@<TRIPOS>MOLECULE
BindingDB_11431
 58 61 0 0 0
SMALL
NO_CHARGES


@<TRIPOS>ATOM
1    C        11.7544  -10.5551   11.5141  C     
2    C        12.4129   -9.9948   10.4731  C     
3    C        13.4888   -9.1177   10.6430  C     
4    C        13.4024   -9.6480   12.9427  C     
5    C        13.7345   -9.7181   14.2764  C     
6    C        12.7760  -10.5566   14.8375  C     
7    N        10.6127  -11.2432   11.2973  N     
8    C         9.6776  -11.1056   10.3033  C     
9    C         8.7560  -12.1683   10.1570  C     
10   C         9.5876  -10.0126    9.3783  C     
11   C         8.5749   -9.9785    8.3986  C     
12   C         7.6902  -11.0616    8.2499  C     
13   C         7.7964  -12.1695    9.1249  C     
14   S         6.4060  -10.9714    7.0803  S     
15   O         5.3876  -12.1949    7.1819  O     
16   O         5.5022   -9.7470    7.5449  O     
17   N         6.8379  -10.7646    5.4491  N     
18   C         6.9572   -9.4281    4.9161  C     
19   C         6.5470  -11.8386    4.5346  C     
20   N        12.3137  -10.4219   12.7381  N     
21   N        13.9654   -8.9659   11.9026  N     
22   N        11.9281  -10.9492   13.8688  N     
23   N        13.9899   -8.2966    9.6870  N     
24   C        13.5170   -8.1158    8.3313  C     
25   C        14.6801   -8.3049    7.3153  C     
26   C        12.8284   -6.7279    8.1785  C     
27   C        13.8321   -5.5461    8.1502  C     
28   C        14.9702   -5.7587    7.1098  C     
29   C        15.6815   -7.1241    7.3269  C     
30   N        14.4467   -5.6397    5.7334  N     
31   Cl       15.0120   -8.8988   15.0154  Cl    
32   H        12.0832  -10.2283    9.5780  H     
33   H        12.7227  -10.8225   15.8191  H     
34   H        10.4039  -11.9327   11.9462  H     
35   H         8.8064  -12.9739   10.7928  H     
36   H        10.3004   -9.2441    9.3718  H     
37   H         8.5126   -9.1776    7.7667  H     
38   H         7.1706  -12.9754    9.0326  H     
39   H         5.9590   -9.0248    4.7158  H     
40   H         7.5332   -9.4253    3.9848  H     
41   H         7.4720   -8.7728    5.6286  H     
42   H         6.8194  -12.8123    4.9696  H     
43   H         7.0984  -11.7342    3.5974  H     
44   H         5.4719  -11.8420    4.3156  H     
45   H        14.7056   -7.6929    9.9678  H     
46   H        12.7721   -8.8497    8.0400  H     
47   H        15.2108   -9.2329    7.5341  H     
48   H        14.2703   -8.4013    6.3064  H     
49   H        12.2427   -6.7160    7.2528  H     
50   H        12.1257   -6.5853    9.0072  H     
51   H        13.2921   -4.6186    7.9238  H     
52   H        14.2750   -5.4401    9.1439  H     
53   H        15.7110   -4.9637    7.2361  H     
54   H        16.2079   -7.1060    8.2854  H     
55   H        16.4318   -7.2788    6.5443  H     
56   H        13.6204   -6.2348    5.6225  H     
57   H        15.1657   -5.9366    5.0663  H     
58   H        14.1897   -4.6642    5.5477  H     
@<TRIPOS>BOND
     1    1    2 2
     2    1    7 1
     3    1   20 1
     4    2    3 1
     5    3   21 2
     6    3   23 1
     7    4    5 2
     8    4   20 1
     9    4   21 1
    10    5    6 1
    11    5   31 1
    12    6   22 2
    13    7    8 1
    14    8    9 1
    15    8   10 2
    16    9   13 2
    17   10   11 1
    18   11   12 2
    19   12   13 1
    20   12   14 1
    21   14   15 2
    22   14   16 2
    23   14   17 1
    24   17   18 1
    25   17   19 1
    26   20   22 1
    27   24   23 1
    28   24   25 1
    29   24   26 1
    30   25   29 1
    31   26   27 1
    32   27   28 1
    33   28   29 1
    34   28   30 1
    35    2   32 1
    36    6   33 1
    37    7   34 1
    38    9   35 1
    39   10   36 1
    40   11   37 1
    41   13   38 1
    42   18   39 1
    43   18   40 1
    44   18   41 1
    45   19   42 1
    46   19   43 1
    47   19   44 1
    48   23   45 1
    49   24   46 1
    50   25   47 1
    51   25   48 1
    52   26   49 1
    53   26   50 1
    54   27   51 1
    55   27   52 1
    56   28   53 1
    57   29   54 1
    58   29   55 1
    59   30   56 1
    60   30   57 1
    61   30   58 1
@<TRIPOS>PROPERTY_DATA
  Total_Score	| 10.9888
  Crash		| -1.7529
  Polar		| 6.6116
  FragIndex	| 1
  FragRMSD	| 1.024

