@<TRIPOS>MOLECULE
BindingDB_11453
 57 60 0 0 0
SMALL
NO_CHARGES


@<TRIPOS>ATOM
1    C         8.3490   -9.8280    8.6669  C     
2    C         9.3677   -9.8759    9.6439  C     
3    C         9.6278  -11.0782   10.3527  C     
4    C         8.8342  -12.2109   10.0713  C     
5    C         7.8537  -12.1777    9.0597  C     
6    C         7.6044  -10.9825    8.3474  C     
7    N        10.6031  -11.2034   11.2969  N     
8    C        11.6816  -10.4372   11.5480  C     
9    C        12.3230   -9.7426   10.5754  C     
10   C        13.5022   -9.0111   10.8655  C     
11   C        13.3700   -9.7733   13.0893  C     
12   C        12.6897  -10.7431   14.8390  C     
13   N        14.0040   -9.0471   12.1279  N     
14   N        12.2334  -10.4482   12.7823  N     
15   N        11.8140  -11.0340   13.8621  N     
16   N        13.6743   -9.9456   14.3763  N     
17   S         6.3622  -10.8869    7.1302  S     
18   O         5.2274  -11.9899    7.3165  O     
19   O         5.5621   -9.5399    7.4079  O     
20   N        14.1971   -8.2309    9.9897  N     
21   C        13.8157   -7.8089    8.6692  C     
22   C        14.8069   -8.3187    7.5881  C     
23   C        14.3820   -7.8326    6.1741  C     
24   C        14.2654   -6.2832    6.1116  C     
25   C        13.3419   -5.7307    7.2337  C     
26   C        13.7625   -6.2575    8.6333  C     
27   N        13.7711   -5.8735    4.7870  N     
28   N         6.9194  -10.8906    5.5291  N     
29   C         6.4904  -11.9565    4.6669  C     
30   C         7.3572   -9.6449    4.9660  C     
31   H         8.1682   -8.9431    8.1895  H     
32   H         9.9319   -9.0392    9.8378  H     
33   H         8.9964  -13.0875   10.5813  H     
34   H         7.3282  -13.0319    8.8478  H     
35   H        10.4827  -11.9635   11.8955  H     
36   H        11.9800   -9.8006    9.6545  H     
37   H        12.6038  -11.0487   15.8002  H     
38   H        15.0336   -7.8593   10.3243  H     
39   H        12.8213   -8.1626    8.3923  H     
40   H        15.8157   -7.9525    7.7990  H     
41   H        14.8368   -9.4110    7.5965  H     
42   H        15.1162   -8.1775    5.4420  H     
43   H        13.4173   -8.2831    5.9140  H     
44   H        15.2629   -5.8484    6.2349  H     
45   H        13.3885   -4.6379    7.2351  H     
46   H        12.3068   -6.0268    7.0317  H     
47   H        13.0452   -5.9028    9.3782  H     
48   H        14.7445   -5.8490    8.8905  H     
49   H        14.4748   -6.1316    4.0911  H     
50   H        13.6177   -4.8625    4.7672  H     
51   H        12.8890   -6.3539    4.5788  H     
52   H         6.5942  -12.9243    5.1676  H     
53   H         7.0908  -11.9966    3.7550  H     
54   H         5.4410  -11.8090    4.3907  H     
55   H         6.4944   -9.0042    4.7620  H     
56   H         7.9062   -9.8007    4.0346  H     
57   H         8.0287   -9.1243    5.6539  H     
@<TRIPOS>BOND
     1    1    2 2
     2    1    6 1
     3    2    3 1
     4    3    4 2
     5    3    7 1
     6    4    5 1
     7    5    6 2
     8    6   17 1
     9    7    8 1
    10    8    9 2
    11    8   14 1
    12    9   10 1
    13   10   13 2
    14   10   20 1
    15   11   13 1
    16   11   14 1
    17   11   16 2
    18   12   15 2
    19   12   16 1
    20   14   15 1
    21   17   18 2
    22   17   19 2
    23   17   28 1
    24   21   20 1
    25   21   22 1
    26   21   26 1
    27   22   23 1
    28   23   24 1
    29   24   25 1
    30   24   27 1
    31   25   26 1
    32   28   29 1
    33   28   30 1
    34    1   31 1
    35    2   32 1
    36    4   33 1
    37    5   34 1
    38    7   35 1
    39    9   36 1
    40   12   37 1
    41   20   38 1
    42   21   39 1
    43   22   40 1
    44   22   41 1
    45   23   42 1
    46   23   43 1
    47   24   44 1
    48   25   45 1
    49   25   46 1
    50   26   47 1
    51   26   48 1
    52   27   49 1
    53   27   50 1
    54   27   51 1
    55   29   52 1
    56   29   53 1
    57   29   54 1
    58   30   55 1
    59   30   56 1
    60   30   57 1
@<TRIPOS>PROPERTY_DATA
  Total_Score	| 10.1695
  Crash		| -1.3318
  Polar		| 5.3896
  FragIndex	| 1
  FragRMSD	| 0.758

