@<TRIPOS>MOLECULE
BindingDB_11454
 52 55 0 0 0
SMALL
NO_CHARGES


@<TRIPOS>ATOM
1    C         8.0623   -9.9053    8.7683  C     
2    C         8.9523   -9.8374    9.8528  C     
3    C         9.3065  -10.9994   10.5805  C     
4    C         8.6295  -12.2020   10.2893  C     
5    C         7.7618  -12.2809    9.1820  C     
6    C         7.5130  -11.1442    8.3831  C     
7    N        10.3240  -11.0465   11.4865  N     
8    C        11.4359  -10.2852   11.5325  C     
9    C        11.8821   -9.6009   10.4513  C     
10   C        13.0939   -8.9098   10.4840  C     
11   C        13.4365   -9.6976   12.6625  C     
12   C        13.1437  -10.6891   14.5126  C     
13   N        13.8736   -8.9711   11.6038  N     
14   N        12.2448  -10.3389   12.6170  N     
15   N        12.0650  -10.9473   13.7514  N     
16   N        14.0120   -9.9094   13.8510  N     
17   S         6.6413  -11.3064    6.8801  S     
18   O         7.4414  -12.3351    5.9642  O     
19   O         5.2153  -11.9762    7.0984  O     
20   N        13.4039   -8.2086    9.3693  N     
21   C        14.5943   -7.4816    9.0619  C     
22   C        14.2871   -5.9589    9.0047  C     
23   C        13.3674   -5.5686    7.8132  C     
24   C        13.8952   -6.0795    6.4425  C     
25   C        14.2291   -7.5964    6.4921  C     
26   C        15.1470   -7.9729    7.6905  C     
27   N        15.0641   -5.3062    5.9955  N     
28   C         6.4554   -9.7769    5.9356  C     
29   H         7.8740   -9.0555    8.2334  H     
30   H         9.3814   -8.9369   10.0771  H     
31   H         8.8501  -13.0559   10.8068  H     
32   H         7.3585  -13.1866    8.9316  H     
33   H        10.3174  -11.8101   12.0856  H     
34   H        11.3801   -9.6375    9.5926  H     
35   H        13.2831  -11.0355   15.4608  H     
36   H        12.7210   -8.2012    8.6802  H     
37   H        15.3564   -7.6585    9.8291  H     
38   H        13.8103   -5.6456    9.9389  H     
39   H        15.2293   -5.4105    8.9213  H     
40   H        12.3707   -5.9844    7.9861  H     
41   H        13.2638   -4.4801    7.7851  H     
42   H        13.1144   -5.9226    5.6932  H     
43   H        13.2968   -8.1627    6.5636  H     
44   H        14.7123   -7.8987    5.5596  H     
45   H        16.1407   -7.5443    7.5279  H     
46   H        15.2590   -9.0615    7.7098  H     
47   H        14.7771   -4.3493    5.7710  H     
48   H        15.4602   -5.7460    5.1611  H     
49   H        15.7685   -5.2845    6.7352  H     
50   H         5.7842   -9.1013    6.4656  H     
51   H         6.0383   -9.9982    4.9543  H     
52   H         7.4250   -9.2986    5.8090  H     
@<TRIPOS>BOND
     1    1    2 2
     2    1    6 1
     3    2    3 1
     4    3    4 2
     5    3    7 1
     6    4    5 1
     7    5    6 2
     8    6   17 1
     9    7    8 1
    10    8    9 2
    11    8   14 1
    12    9   10 1
    13   10   13 2
    14   10   20 1
    15   11   13 1
    16   11   14 1
    17   11   16 2
    18   12   15 2
    19   12   16 1
    20   14   15 1
    21   17   18 2
    22   17   19 2
    23   17   28 1
    24   21   20 1
    25   21   22 1
    26   21   26 1
    27   22   23 1
    28   23   24 1
    29   24   25 1
    30   24   27 1
    31   25   26 1
    32    1   29 1
    33    2   30 1
    34    4   31 1
    35    5   32 1
    36    7   33 1
    37    9   34 1
    38   12   35 1
    39   20   36 1
    40   21   37 1
    41   22   38 1
    42   22   39 1
    43   23   40 1
    44   23   41 1
    45   24   42 1
    46   25   43 1
    47   25   44 1
    48   26   45 1
    49   26   46 1
    50   27   47 1
    51   27   48 1
    52   27   49 1
    53   28   50 1
    54   28   51 1
    55   28   52 1
@<TRIPOS>PROPERTY_DATA
  Total_Score	| 10.3515
  Crash		| -1.1027
  Polar		| 4.7786
  FragIndex	| 1
  FragRMSD	| 0.587

