@<TRIPOS>MOLECULE
BindingDB_11428
 67 70 0 0 0
SMALL
NO_CHARGES


@<TRIPOS>ATOM
1    C        12.3387  -10.5569   10.0241  C     
2    C        13.1005   -9.5018    9.6416  C     
3    C        13.7194   -8.7047   10.6068  C     
4    C        13.0180  -10.2367   12.2627  C     
5    C        12.8197  -10.8762   13.4834  C     
6    C        12.0217  -11.9721   13.1588  C     
7    N        11.6232  -11.2377    9.1358  N     
8    C        10.3491  -10.9918    8.7235  C     
9    C         9.7592  -11.9659    7.8898  C     
10   C         9.5864   -9.8415    9.0486  C     
11   C         8.3040   -9.6551    8.4955  C     
12   C         7.7384  -10.6339    7.6527  C     
13   C         8.4666  -11.8010    7.3687  C     
14   S         6.1765  -10.4106    6.9219  S     
15   O         5.2971  -11.7316    7.0365  O     
16   O         5.3591   -9.3498    7.7759  O     
17   N         6.2172   -9.8660    5.3188  N     
18   C         6.2468  -10.8417    4.2650  C     
19   C         6.7018   -8.5361    5.0794  C     
20   N        12.3442  -10.9310   11.3150  N     
21   N        13.6969   -9.1005   11.9110  N     
22   N        11.7580  -11.9623   11.8428  N     
23   C        13.3108  -10.5719   14.8541  C     
24   C        14.4821   -9.5533   14.8819  C     
25   C        12.1317  -10.1179   15.7588  C     
26   N        14.2313   -7.4779   10.3321  N     
27   C        14.2039   -6.7694    9.0780  C     
28   C        12.7534   -6.5821    8.4949  C     
29   C        15.2342   -7.3559    8.0606  C     
30   C        15.2025   -6.6060    6.7064  C     
31   C        13.7704   -6.5673    6.1057  C     
32   C        12.7834   -5.8974    7.1003  C     
33   N        13.7768   -5.8235    4.8354  N     
34   H        13.1468   -9.2105    8.6816  H     
35   H        11.6984  -12.6972   13.7995  H     
36   H        12.0203  -12.0567    8.8130  H     
37   H        10.2739  -12.8088    7.6305  H     
38   H         9.9712   -9.1098    9.6493  H     
39   H         7.7932   -8.7936    8.6958  H     
40   H         8.0767  -12.5297    6.7602  H     
41   H         7.2339  -11.3061    4.2099  H     
42   H         6.0224  -10.3886    3.2966  H     
43   H         5.4992  -11.6201    4.4317  H     
44   H         6.2399   -7.8253    5.7674  H     
45   H         6.4652   -8.2004    4.0675  H     
46   H         7.7855   -8.5007    5.2121  H     
47   H        13.7021  -11.5049   15.2663  H     
48   H        15.2967   -9.8961   14.2406  H     
49   H        14.8802   -9.4530   15.8911  H     
50   H        14.1499   -8.5680   14.5475  H     
51   H        11.7461   -9.1515   15.4417  H     
52   H        12.4476  -10.0347   16.7960  H     
53   H        11.3171  -10.8396   15.7357  H     
54   H        14.5805   -6.9831   11.0933  H     
55   H        14.5614   -5.7661    9.3257  H     
56   H        12.1794   -7.5454    8.4325  H     
57   H        12.2019   -5.9330    9.1783  H     
58   H        16.2389   -7.2705    8.4865  H     
59   H        15.0546   -8.4130    7.8685  H     
60   H        15.5714   -5.5822    6.8494  H     
61   H        15.8794   -7.1124    6.0122  H     
62   H        13.4373   -7.5887    5.8934  H     
63   H        11.7776   -5.9212    6.6700  H     
64   H        13.0758   -4.8489    7.2231  H     
65   H        14.0408   -4.8469    5.0153  H     
66   H        12.8415   -5.8492    4.4103  H     
67   H        14.4596   -6.2470    4.1950  H     
@<TRIPOS>BOND
     1    1    2 2
     2    1    7 1
     3    1   20 1
     4    2    3 1
     5    3   21 2
     6    3   26 1
     7    4    5 2
     8    4   20 1
     9    4   21 1
    10    5    6 1
    11    5   23 1
    12    6   22 2
    13    7    8 1
    14    8    9 1
    15    8   10 2
    16    9   13 2
    17   10   11 1
    18   11   12 2
    19   12   13 1
    20   12   14 1
    21   14   15 2
    22   14   16 2
    23   14   17 1
    24   17   18 1
    25   17   19 1
    26   20   22 1
    27   23   24 1
    28   23   25 1
    29   27   26 1
    30   27   28 1
    31   27   29 1
    32   28   32 1
    33   29   30 1
    34   30   31 1
    35   31   32 1
    36   31   33 1
    37    2   34 1
    38    6   35 1
    39    7   36 1
    40    9   37 1
    41   10   38 1
    42   11   39 1
    43   13   40 1
    44   18   41 1
    45   18   42 1
    46   18   43 1
    47   19   44 1
    48   19   45 1
    49   19   46 1
    50   23   47 1
    51   24   48 1
    52   24   49 1
    53   24   50 1
    54   25   51 1
    55   25   52 1
    56   25   53 1
    57   26   54 1
    58   27   55 1
    59   28   56 1
    60   28   57 1
    61   29   58 1
    62   29   59 1
    63   30   60 1
    64   30   61 1
    65   31   62 1
    66   32   63 1
    67   32   64 1
    68   33   65 1
    69   33   66 1
    70   33   67 1
@<TRIPOS>PROPERTY_DATA
  Total_Score	| 3.7970
  Crash		| -9.2271
  Polar		| 4.0085
  FragIndex	| 1
  FragRMSD	| 1.449

