@<TRIPOS>MOLECULE
BindingDB_11430
 59 62 0 0 0
SMALL
NO_CHARGES


@<TRIPOS>ATOM
1    C        11.3950  -10.4246   11.5808  C     
2    C        11.8873   -9.7962   10.4815  C     
3    C        13.0798   -9.0582   10.5405  C     
4    C        13.2616   -9.6814   12.8185  C     
5    C        13.7288   -9.7866   14.1182  C     
6    C        12.7742  -10.5659   14.7564  C     
7    N        10.3521  -11.2730   11.4794  N     
8    C         9.4437  -11.3888   10.4742  C     
9    C         8.4837  -10.4113   10.1349  C     
10   C         9.5406  -12.5429    9.6437  C     
11   C         8.8076  -12.6319    8.4505  C     
12   C         7.8913  -11.6119    8.0822  C     
13   C         7.6976  -10.5324    8.9772  C     
14   S         7.0316  -11.6622    6.5598  S     
15   O         7.7170  -12.7613    5.6323  O     
16   O         5.6036  -12.3122    6.8454  O     
17   N         6.8109  -10.2277    5.6672  N     
18   C         6.5326  -10.3457    4.2561  C     
19   C         6.4037   -9.0492    6.3711  C     
20   N        12.0952  -10.3715   12.7318  N     
21   N        13.7507   -9.0098   11.7255  N     
22   N        11.8040  -10.8958   13.8860  N     
23   N        13.6536   -8.3705    9.5254  N     
24   C        13.1999   -8.2278    8.1675  C     
25   C        14.3522   -8.5035    7.1585  C     
26   C        12.5644   -6.8260    7.9696  C     
27   C        13.6126   -5.6779    7.9038  C     
28   C        14.6984   -5.9658    6.8265  C     
29   C        15.3762   -7.3446    7.0824  C     
30   N        14.1160   -5.8843    5.4710  N     
31   C        14.8073   -9.2733   14.6140  C     
32   N        15.7549   -8.7997   15.0536  N     
33   H        11.4191   -9.8863    9.6139  H     
34   H        12.7833  -10.8474   15.7406  H     
35   H        10.2533  -11.9375   12.1977  H     
36   H         8.3587   -9.5944   10.7348  H     
37   H        10.2081  -13.2867    9.8833  H     
38   H         8.9706  -13.4305    7.8242  H     
39   H         7.0132   -9.8044    8.7781  H     
40   H         7.2500  -10.9896    3.7359  H     
41   H         6.5622   -9.3726    3.7521  H     
42   H         5.5282  -10.7629    4.1221  H     
43   H         5.4710   -9.2603    6.9070  H     
44   H         6.2321   -8.2014    5.7021  H     
45   H         7.1818   -8.7665    7.1043  H     
46   H        14.4575   -7.8833    9.7620  H     
47   H        12.4102   -8.9581    7.9379  H     
48   H        14.8775   -9.4180    7.4376  H     
49   H        13.9340   -8.6623    6.1639  H     
50   H        11.9772   -6.8191    7.0534  H     
51   H        11.8736   -6.6250    8.7975  H     
52   H        13.1117   -4.7296    7.6719  H     
53   H        14.1025   -5.5704    8.8796  H     
54   H        15.4713   -5.1816    6.8899  H     
55   H        15.9282   -7.2904    8.0235  H     
56   H        16.0911   -7.5486    6.2779  H     
57   H        13.3149   -6.5125    5.4049  H     
58   H        14.8152   -6.1605    4.7832  H     
59   H        13.8115   -4.9252    5.2868  H     
@<TRIPOS>BOND
     1    1    2 2
     2    1    7 1
     3    1   20 1
     4    2    3 1
     5    3   21 2
     6    3   23 1
     7    4    5 2
     8    4   20 1
     9    4   21 1
    10    5    6 1
    11    5   31 1
    12    6   22 2
    13    7    8 1
    14    8    9 1
    15    8   10 2
    16    9   13 2
    17   10   11 1
    18   11   12 2
    19   12   13 1
    20   12   14 1
    21   14   15 2
    22   14   16 2
    23   14   17 1
    24   17   18 1
    25   17   19 1
    26   20   22 1
    27   24   23 1
    28   24   25 1
    29   24   26 1
    30   25   29 1
    31   26   27 1
    32   27   28 1
    33   28   29 1
    34   28   30 1
    35   31   32 3
    36    2   33 1
    37    6   34 1
    38    7   35 1
    39    9   36 1
    40   10   37 1
    41   11   38 1
    42   13   39 1
    43   18   40 1
    44   18   41 1
    45   18   42 1
    46   19   43 1
    47   19   44 1
    48   19   45 1
    49   23   46 1
    50   24   47 1
    51   25   48 1
    52   25   49 1
    53   26   50 1
    54   26   51 1
    55   27   52 1
    56   27   53 1
    57   28   54 1
    58   29   55 1
    59   29   56 1
    60   30   57 1
    61   30   58 1
    62   30   59 1
@<TRIPOS>PROPERTY_DATA
  Total_Score	| 10.9322
  Crash		| -2.2915
  Polar		| 5.1667
  FragIndex	| 1
  FragRMSD	| 0.742

