@<TRIPOS>MOLECULE
BindingDB_11451
 44 46 0 0 0
SMALL
NO_CHARGES


@<TRIPOS>ATOM
1    C         8.3408  -10.1937    8.6108  C     
2    C         9.3578  -10.1505    9.5813  C     
3    C         9.6548  -11.2874   10.3739  C     
4    C         8.8520  -12.4376   10.2234  C     
5    C         7.8483  -12.4915    9.2394  C     
6    C         7.6024  -11.3775    8.4096  C     
7    N        10.6611  -11.3558   11.2888  N     
8    C        11.7513  -10.5818   11.4118  C     
9    C        12.4003  -10.0630   10.3394  C     
10   C        13.5363   -9.2270   10.4835  C     
11   C        13.3921   -9.6451   12.8212  C     
12   C        12.7584  -10.3680   14.7096  C     
13   N        13.9942   -9.0508   11.7648  N     
14   N        12.2974  -10.4073   12.6329  N     
15   N        11.9084  -10.8564   13.7895  N     
16   N        13.6966   -9.6102   14.1229  N     
17   N         4.8734  -11.7202    7.8337  N     
18   S         6.3947  -11.4898    7.1619  S     
19   O         6.3394  -10.1468    6.3109  O     
20   O         6.7102  -12.6940    6.1697  O     
21   N        14.1824   -8.6103    9.4222  N     
22   C        13.8467   -8.9698    8.0422  C     
23   C        14.5973   -8.3548    6.8331  C     
24   C        15.1846   -7.5868    9.6900  C     
25   C        14.5812   -6.3412   10.3856  C     
26   H         8.1591   -9.3624    8.0431  H     
27   H         9.8687   -9.2755    9.7140  H     
28   H         9.0333  -13.2697   10.7901  H     
29   H         7.3124  -13.3558    9.1230  H     
30   H        10.5821  -12.0742   11.9361  H     
31   H        12.0652  -10.2847    9.4352  H     
32   H        12.6916  -10.5418   15.7121  H     
33   H         4.1322  -11.1690    7.5420  H     
34   H         4.7880  -12.2330    8.6516  H     
35   H        13.9794  -10.0521    7.9375  H     
36   H        12.7880   -8.7424    7.8829  H     
37   H        14.4789   -7.2693    6.8226  H     
38   H        14.1880   -8.7453    5.8989  H     
39   H        15.6605   -8.6056    6.8765  H     
40   H        15.9850   -8.0050   10.3037  H     
41   H        15.6822   -7.2252    8.7926  H     
42   H        13.7880   -5.9145    9.7673  H     
43   H        15.3544   -5.5838   10.5253  H     
44   H        14.1692   -6.5927   11.3659  H     
@<TRIPOS>BOND
     1    1    2 2
     2    1    6 1
     3    2    3 1
     4    3    4 2
     5    3    7 1
     6    4    5 1
     7    5    6 2
     8    6   18 1
     9    7    8 1
    10    8    9 2
    11    8   14 1
    12    9   10 1
    13   10   13 2
    14   10   21 1
    15   11   13 1
    16   11   14 1
    17   11   16 2
    18   12   15 2
    19   12   16 1
    20   14   15 1
    21   17   18 am
    22   18   19 2
    23   18   20 2
    24   21   22 1
    25   21   24 1
    26   22   23 1
    27   24   25 1
    28    1   26 1
    29    2   27 1
    30    4   28 1
    31    5   29 1
    32    7   30 1
    33    9   31 1
    34   12   32 1
    35   17   33 1
    36   17   34 1
    37   22   35 1
    38   22   36 1
    39   23   37 1
    40   23   38 1
    41   23   39 1
    42   24   40 1
    43   24   41 1
    44   25   42 1
    45   25   43 1
    46   25   44 1
@<TRIPOS>PROPERTY_DATA
  Total_Score	| 7.6837
  Crash		| -1.5362
  Polar		| 3.5698
  FragIndex	| 1
  FragRMSD	| 1.098

