@<TRIPOS>MOLECULE
BindingDB_11031
 49 50 0 0 0
SMALL
NO_CHARGES


@<TRIPOS>ATOM
1    C        -3.1566    3.0619   15.2260  C     
2    C        -5.9578    3.4193   15.3902  C     
3    C        -5.3600    2.3049   16.0176  C     
4    C        -3.9554    2.1261   15.9216  C     
5    C        -3.7731    4.1708   14.6108  C     
6    C        -3.1579    5.2058   13.7718  C     
7    C        -4.3194    6.2006   13.4772  C     
8    C        -5.6181    5.4729   13.9273  C     
9    C        -5.1527    4.3363   14.6984  C     
10   N        -4.2688    6.7187   12.1366  N     
11   C        -5.2554    6.9141   11.2703  C     
12   O        -6.4105    6.5565   11.4818  O     
13   C        -4.9732    7.5178    9.9766  C     
14   C        -4.1922    6.5174    9.0474  C     
15   C        -4.7925    5.0881    8.8392  C     
16   C        -4.1614    3.9733    9.7125  C     
17   C        -6.2135    8.1591    9.2566  C     
18   C        -7.0970    9.1855   10.0341  C     
19   C        -6.3955    9.9384   11.1842  C     
20   N        -8.0063    1.4638   16.8074  N     
21   S        -6.3525    1.1762   16.8838  S     
22   O        -6.1774   -0.2116   16.1348  O     
23   O        -5.8847    0.9153   18.3796  O     
24   H        -2.1413    2.9224   15.1529  H     
25   H        -6.9667    3.5710   15.4317  H     
26   H        -3.5037    1.3131   16.3524  H     
27   H        -2.3362    5.6943   14.3056  H     
28   H        -2.7765    4.7386   12.8625  H     
29   H        -4.1752    7.0624   14.1412  H     
30   H        -6.2447    6.1386   14.5253  H     
31   H        -6.1919    5.0607   13.1016  H     
32   H        -3.3975    7.0348   11.8446  H     
33   H        -4.2844    8.3453   10.1639  H     
34   H        -4.1130    6.9810    8.0570  H     
35   H        -3.1658    6.4189    9.4077  H     
36   H        -5.8691    5.0991    9.0215  H     
37   H        -4.6402    4.7921    7.7970  H     
38   H        -3.0935    3.8812    9.5011  H     
39   H        -4.6375    3.0132    9.4916  H     
40   H        -4.2962    4.1820   10.7757  H     
41   H        -5.8587    8.6497    8.3491  H     
42   H        -6.8787    7.3574    8.9235  H     
43   H        -7.4736    9.9154    9.3122  H     
44   H        -7.9719    8.6828   10.4552  H     
45   H        -6.1751    9.2524   12.0022  H     
46   H        -7.0532   10.7231   11.5629  H     
47   H        -5.4747   10.3965   10.8326  H     
48   H        -8.5805    0.8283   16.3594  H     
49   H        -8.3454    2.3442   17.0155  H     
@<TRIPOS>BOND
     1    1    4 2
     2    1    5 1
     3    2    3 2
     4    2    9 1
     5    3    4 1
     6    3   21 1
     7    5    6 1
     8    5    9 2
     9    6    7 1
    10    7    8 1
    11    7   10 1
    12    8    9 1
    13   10   11 am
    14   11   12 2
    15   11   13 1
    16   13   14 1
    17   13   17 1
    18   14   15 1
    19   15   16 1
    20   17   18 1
    21   18   19 1
    22   20   21 am
    23   21   22 2
    24   21   23 2
    25    1   24 1
    26    2   25 1
    27    4   26 1
    28    6   27 1
    29    6   28 1
    30    7   29 1
    31    8   30 1
    32    8   31 1
    33   10   32 1
    34   13   33 1
    35   14   34 1
    36   14   35 1
    37   15   36 1
    38   15   37 1
    39   16   38 1
    40   16   39 1
    41   16   40 1
    42   17   41 1
    43   17   42 1
    44   18   43 1
    45   18   44 1
    46   19   45 1
    47   19   46 1
    48   19   47 1
    49   20   48 1
    50   20   49 1
@<TRIPOS>PROPERTY_DATA
  Total_Score	| 5.7184
  Crash		| -1.5445
  Polar		| 3.0063
  FragIndex	| 1
  FragRMSD	| 1.176

