@<TRIPOS>MOLECULE
BindingDB_50155549
 55 56 0 0 0
SMALL
NO_CHARGES


@<TRIPOS>ATOM
1    S        -6.1470    1.0186   16.6539  S     
2    C        -3.4997    4.9559   11.3497  C     
3    C        -5.5738    2.4461   15.8482  C     
4    C        -3.7397    3.7177   14.8730  C     
5    N        -2.4903    5.1619   12.2013  N     
6    C        -4.5769    4.8232   14.7107  C     
7    C        -2.5403    5.3471   13.6344  C     
8    C        -4.2170    2.5349   15.4631  C     
9    O        -5.9096   -0.2034   15.6679  O     
10   O        -5.2890    0.7568   17.9664  O     
11   C        -2.3818    4.0017   14.4044  C     
12   C        -3.8631    5.9874   14.1654  C     
13   N        -7.7845    0.9554   17.0037  N     
14   O        -4.6460    4.9170   11.7611  O     
15   C        -6.4330    3.5545   15.6309  C     
16   C        -5.9303    4.7448   15.0777  C     
17   C        -3.1769    4.6644    9.9434  C     
18   C        -2.4000    3.3063    9.8390  C     
19   C        -4.3871    4.7788    8.9301  C     
20   C        -2.9223    2.0651   10.6199  C     
21   C        -4.2683    5.8536    7.7938  C     
22   C        -4.4591    1.9474   10.8234  C     
23   C        -3.9724    5.3249    6.3562  C     
24   C        -4.8973    0.4845   11.0805  C     
25   C        -2.4837    5.0299    6.0476  C     
26   H        -1.5908    5.1384   11.8179  H     
27   H        -1.7171    6.0122   13.8849  H     
28   H        -3.5768    1.7452   15.6121  H     
29   H        -1.7072    4.1185   15.2568  H     
30   H        -2.0024    3.2026   13.7656  H     
31   H        -4.4149    6.4899   13.3594  H     
32   H        -3.6630    6.6968   14.9776  H     
33   H        -8.2099    0.0899   17.1551  H     
34   H        -8.3319    1.7584   16.9465  H     
35   H        -7.4171    3.5088   15.9005  H     
36   H        -6.5416    5.5545   14.9533  H     
37   H        -2.4683    5.4371    9.6383  H     
38   H        -2.3200    3.0302    8.7908  H     
39   H        -1.3791    3.4709   10.1896  H     
40   H        -4.5699    3.8100    8.4508  H     
41   H        -5.3093    5.0162    9.4702  H     
42   H        -2.5773    1.1745   10.0769  H     
43   H        -2.4479    2.0346   11.6075  H     
44   H        -5.2296    6.3729    7.7185  H     
45   H        -3.5251    6.6104    8.0641  H     
46   H        -4.7628    2.5555   11.6832  H     
47   H        -4.9851    2.3191    9.9433  H     
48   H        -4.5428    4.4087    6.1755  H     
49   H        -4.3233    6.0770    5.6393  H     
50   H        -4.7175   -0.1216   10.1897  H     
51   H        -5.9687    0.4536   11.3174  H     
52   H        -4.3379    0.0625   11.9233  H     
53   H        -1.8932    5.9489    6.1102  H     
54   H        -2.3973    4.6092    5.0392  H     
55   H        -2.0885    4.2966    6.7543  H     
@<TRIPOS>BOND
     1    1    3 1
     2    1    9 2
     3    1   10 2
     4    1   13 am
     5    2    5 am
     6    2   14 2
     7    2   17 1
     8    3    8 2
     9    3   15 1
    10    4    6 2
    11    4    8 1
    12    4   11 1
    13    5    7 1
    14    6   12 1
    15    6   16 1
    16    7   11 1
    17    7   12 1
    18   15   16 2
    19   17   18 1
    20   17   19 1
    21   18   20 1
    22   19   21 1
    23   20   22 1
    24   21   23 1
    25   22   24 1
    26   23   25 1
    27    5   26 1
    28    7   27 1
    29    8   28 1
    30   11   29 1
    31   11   30 1
    32   12   31 1
    33   12   32 1
    34   13   33 1
    35   13   34 1
    36   15   35 1
    37   16   36 1
    38   17   37 1
    39   18   38 1
    40   18   39 1
    41   19   40 1
    42   19   41 1
    43   20   42 1
    44   20   43 1
    45   21   44 1
    46   21   45 1
    47   22   46 1
    48   22   47 1
    49   23   48 1
    50   23   49 1
    51   24   50 1
    52   24   51 1
    53   24   52 1
    54   25   53 1
    55   25   54 1
    56   25   55 1
@<TRIPOS>PROPERTY_DATA
  Total_Score	| 5.6424
  Crash		| -1.7436
  Polar		| 2.1500
  FragIndex	| 1
  FragRMSD	| 1.477

