@<TRIPOS>MOLECULE
BindingDB_13419
 46 49 0 0 0
SMALL
NO_CHARGES


@<TRIPOS>ATOM
1    C        -2.9652    7.7505   13.5361  C     
2    C        -2.7731    6.4909   14.4244  C     
3    C        -2.6568    6.2466   11.4157  C     
4    C        -2.9589    8.5919   11.1986  C     
5    C        -3.5508    8.0648   10.0027  C     
6    C        -3.1435    6.5819    9.9799  C     
7    O        -3.0129    9.7907   11.4428  O     
8    C        -2.3442    7.6285   12.0989  C     
9    C        -0.8041    7.9018   12.1546  C     
10   C        -3.5890    5.2816   12.2381  C     
11   C        -3.0158    5.1272   13.6890  C     
12   C        -5.8833    5.3801   13.5503  C     
13   C        -5.1289    5.5969   12.2075  C     
14   C        -5.2910    4.2933   14.3676  C     
15   C        -3.8786    4.1898   14.4710  C     
16   C        -3.3202    3.1649   15.2711  C     
17   C        -4.1473    2.2683   15.9673  C     
18   C        -5.5512    2.3869   15.8876  C     
19   C        -6.1141    3.3867   15.0706  C     
20   S        -6.5858    1.3225   16.7906  S     
21   O        -8.1444    1.6330   16.7645  O     
22   O        -6.4255   -0.1153   16.1356  O     
23   N        -6.0716    1.0761   18.3654  N     
24   H        -4.0381    7.9350   13.4580  H     
25   H        -2.5456    8.6147   14.0579  H     
26   H        -1.7513    6.5027   14.8178  H     
27   H        -3.4360    6.5919   15.2899  H     
28   H        -1.7189    5.6884   11.2985  H     
29   H        -4.6372    8.1778   10.0438  H     
30   H        -3.1690    8.5850    9.1201  H     
31   H        -2.3211    6.4476    9.2701  H     
32   H        -3.9715    5.9488    9.6524  H     
33   H        -0.5950    8.8894   12.5720  H     
34   H        -0.3617    7.8543   11.1563  H     
35   H        -0.3076    7.1571   12.7804  H     
36   H        -3.4820    4.2926   11.7710  H     
37   H        -2.0297    4.6585   13.5743  H     
38   H        -5.8294    6.2926   14.1471  H     
39   H        -6.9420    5.1949   13.3464  H     
40   H        -5.3105    6.6249   11.8947  H     
41   H        -5.5894    4.9558   11.4514  H     
42   H        -2.3013    3.0778   15.3632  H     
43   H        -3.7188    1.5469   16.5539  H     
44   H        -7.1350    3.4740   15.0158  H     
45   H        -5.7439    0.2047   18.6273  H     
46   H        -6.1865    1.7743   19.0384  H     
@<TRIPOS>BOND
     1    1    2 1
     2    1    8 1
     3    2   11 1
     4    3    6 1
     5    3    8 1
     6    3   10 1
     7    4    5 1
     8    4    7 2
     9    4    8 1
    10    5    6 1
    11    8    9 1
    12   10   11 1
    13   10   13 1
    14   11   15 1
    15   12   13 1
    16   12   14 1
    17   14   15 2
    18   14   19 1
    19   15   16 1
    20   16   17 2
    21   17   18 1
    22   18   19 2
    23   18   20 1
    24   20   21 2
    25   20   22 2
    26   20   23 am
    27    1   24 1
    28    1   25 1
    29    2   26 1
    30    2   27 1
    31    3   28 1
    32    5   29 1
    33    5   30 1
    34    6   31 1
    35    6   32 1
    36    9   33 1
    37    9   34 1
    38    9   35 1
    39   10   36 1
    40   11   37 1
    41   12   38 1
    42   12   39 1
    43   13   40 1
    44   13   41 1
    45   16   42 1
    46   17   43 1
    47   19   44 1
    48   23   45 1
    49   23   46 1
@<TRIPOS>PROPERTY_DATA
  Total_Score	| 4.5319
  Crash		| -1.4458
  Polar		| 2.1068
  FragIndex	| 1
  FragRMSD	| 1.224

