@<TRIPOS>MOLECULE
BindingDB_11038
 40 41 0 0 0
SMALL
NO_CHARGES


@<TRIPOS>ATOM
1    C        -6.1643    4.3390   14.4211  C     
2    C        -4.2470    2.5353   15.4687  C     
3    C        -5.6122    2.3862   15.7954  C     
4    C        -6.5654    3.2947   15.2777  C     
5    C        -4.7977    4.4895   14.1199  C     
6    C        -4.1972    5.4921   13.2329  C     
7    C        -2.6681    5.2796   13.4436  C     
8    C        -2.4984    3.9209   14.1890  C     
9    C        -3.8533    3.6089   14.6466  C     
10   N        -1.9670    6.3639   14.0915  N     
11   C        -2.3916    7.2031   15.0315  C     
12   O        -3.5151    7.0889   15.5128  O     
13   N        -7.7347    0.9830   17.2074  N     
14   S        -6.1097    1.0656   16.8072  S     
15   O        -5.9091   -0.2182   15.8920  O     
16   O        -5.1540    0.8704   18.0621  O     
17   C        -1.5109    8.2409   15.5527  C     
18   C        -0.7442    9.0740   14.4831  C     
19   C        -1.6047    9.6572   13.3217  C     
20   C        -1.9631   11.1588   13.4594  C     
21   H        -6.8600    4.9816   14.0249  H     
22   H        -3.5440    1.8815   15.8166  H     
23   H        -7.5562    3.1963   15.5112  H     
24   H        -4.4866    5.2734   12.1939  H     
25   H        -4.5173    6.5041   13.4929  H     
26   H        -2.1976    5.1894   12.4604  H     
27   H        -2.1591    3.1414   13.5021  H     
28   H        -1.8065    3.9923   15.0366  H     
29   H        -1.0590    6.4940   13.7802  H     
30   H        -8.1963    0.1268   17.1029  H     
31   H        -8.2578    1.7992   17.2224  H     
32   H        -2.0752    8.9248   16.1900  H     
33   H        -0.7743    7.7474   16.1874  H     
34   H        -0.2293    9.8976   14.9968  H     
35   H         0.0373    8.4448   14.0564  H     
36   H        -1.0451    9.5449   12.3868  H     
37   H        -2.5297    9.0874   13.2164  H     
38   H        -2.4695   11.3498   14.4060  H     
39   H        -2.6296   11.4524   12.6384  H     
40   H        -1.0571   11.7665   13.4009  H     
@<TRIPOS>BOND
     1    1    4 2
     2    1    5 1
     3    2    3 2
     4    2    9 1
     5    3    4 1
     6    3   14 1
     7    5    6 1
     8    5    9 2
     9    6    7 1
    10    7    8 1
    11    7   10 1
    12    8    9 1
    13   10   11 am
    14   11   12 2
    15   11   17 1
    16   13   14 am
    17   14   15 2
    18   14   16 2
    19   17   18 1
    20   18   19 1
    21   19   20 1
    22    1   21 1
    23    2   22 1
    24    4   23 1
    25    6   24 1
    26    6   25 1
    27    7   26 1
    28    8   27 1
    29    8   28 1
    30   10   29 1
    31   13   30 1
    32   13   31 1
    33   17   32 1
    34   17   33 1
    35   18   34 1
    36   18   35 1
    37   19   36 1
    38   19   37 1
    39   20   38 1
    40   20   39 1
    41   20   40 1
@<TRIPOS>PROPERTY_DATA
  Total_Score	| 5.6823
  Crash		| -1.3454
  Polar		| 2.4905
  FragIndex	| 1
  FragRMSD	| 1.398

