@<TRIPOS>MOLECULE
BindingDB_50155556
 24 25 0 0 0
SMALL
NO_CHARGES


@<TRIPOS>ATOM
1    C        -4.2038    2.4653   15.4663  C     
2    C        -5.5705    2.4101   15.8284  C     
3    C        -6.4545    3.4327   15.4100  C     
4    C        -5.9780    4.5059   14.6300  C     
5    C        -3.7410    3.5408   14.6889  C     
6    C        -4.6145    4.5484   14.2763  C     
7    C        -3.9495    5.5615   13.4590  C     
8    C        -2.4683    5.1140   13.4468  C     
9    C        -2.3826    3.7515   14.1859  C     
10   S        -6.1500    1.0721   16.7911  S     
11   N        -7.7801    1.1075   17.2028  N     
12   O        -6.0111   -0.2000   15.8511  O     
13   O        -5.2351    0.8518   18.0761  O     
14   H        -3.5491    1.7321   15.7592  H     
15   H        -7.4480    3.3980   15.6711  H     
16   H        -6.6193    5.2392   14.3197  H     
17   H        -4.3702    5.5601   12.4479  H     
18   H        -4.0656    6.5526   13.9022  H     
19   H        -2.0966    5.0263   12.4228  H     
20   H        -1.8537    5.8604   13.9668  H     
21   H        -1.6677    3.7872   15.0114  H     
22   H        -2.1133    2.9419   13.5014  H     
23   H        -8.2389    0.2711   17.4520  H     
24   H        -8.2876    1.9377   17.1489  H     
@<TRIPOS>BOND
     1    1    2 2
     2    1    5 1
     3    2    3 1
     4    2   10 1
     5    3    4 2
     6    4    6 1
     7    5    6 2
     8    5    9 1
     9    6    7 1
    10    7    8 1
    11    8    9 1
    12   10   11 am
    13   10   12 2
    14   10   13 2
    15    1   14 1
    16    3   15 1
    17    4   16 1
    18    7   17 1
    19    7   18 1
    20    8   19 1
    21    8   20 1
    22    9   21 1
    23    9   22 1
    24   11   23 1
    25   11   24 1
@<TRIPOS>PROPERTY_DATA
  Total_Score	| 3.8010
  Crash		| -0.8271
  Polar		| 2.4113
  FragIndex	| 1
  FragRMSD	| 1.413

