@<TRIPOS>MOLECULE
BindingDB_11037
 37 38 0 0 0
SMALL
NO_CHARGES


@<TRIPOS>ATOM
1    C        -6.1070    4.4214   14.5184  C     
2    C        -4.2507    2.4924   15.4297  C     
3    C        -5.6131    2.3929   15.8008  C     
4    C        -6.5328    3.3698   15.3551  C     
5    C        -4.7488    4.5094   14.1603  C     
6    C        -4.1410    5.4966   13.2622  C     
7    C        -2.6193    5.1687   13.3255  C     
8    C        -2.4780    3.8410   14.1351  C     
9    C        -3.8321    3.5702   14.6247  C     
10   N        -1.7821    6.2351   13.8135  N     
11   C        -2.0516    7.1305   14.7638  C     
12   O        -3.1571    7.1641   15.2999  O     
13   N        -7.7777    0.9950   17.1942  N     
14   S        -6.1520    1.0686   16.7961  S     
15   O        -5.9583   -0.2232   15.8921  O     
16   O        -5.2163    0.8605   18.0668  O     
17   C        -1.0206    8.0442   15.2213  C     
18   C        -1.4415    9.5373   15.3204  C     
19   C        -1.4921   10.2915   13.9734  C     
20   H        -6.7797    5.1153   14.1743  H     
21   H        -3.5699    1.7893   15.7327  H     
22   H        -7.5176    3.3163   15.6301  H     
23   H        -4.5334    5.3753   12.2571  H     
24   H        -4.3476    6.5263   13.6137  H     
25   H        -2.2745    4.9741   12.3017  H     
26   H        -2.1571    3.0204   13.4838  H     
27   H        -1.7795    3.9338   14.9724  H     
28   H        -0.9014    6.2972   13.4023  H     
29   H        -8.2304    0.1302   17.1596  H     
30   H        -8.3094    1.8044   17.1985  H     
31   H        -0.7152    7.7131   16.2255  H     
32   H        -0.1393    7.9831   14.5834  H     
33   H        -2.4141    9.6082   15.8139  H     
34   H        -0.7137   10.0516   15.9566  H     
35   H        -0.4959   10.3366   13.5270  H     
36   H        -1.8448   11.3101   14.1360  H     
37   H        -2.1716    9.7946   13.2776  H     
@<TRIPOS>BOND
     1    1    4 2
     2    1    5 1
     3    2    3 2
     4    2    9 1
     5    3    4 1
     6    3   14 1
     7    5    6 1
     8    5    9 2
     9    6    7 1
    10    7    8 1
    11    7   10 1
    12    8    9 1
    13   10   11 am
    14   11   12 2
    15   11   17 1
    16   13   14 am
    17   14   15 2
    18   14   16 2
    19   17   18 1
    20   18   19 1
    21    1   20 1
    22    2   21 1
    23    4   22 1
    24    6   23 1
    25    6   24 1
    26    7   25 1
    27    8   26 1
    28    8   27 1
    29   10   28 1
    30   13   29 1
    31   13   30 1
    32   17   31 1
    33   17   32 1
    34   18   33 1
    35   18   34 1
    36   19   35 1
    37   19   36 1
    38   19   37 1
@<TRIPOS>PROPERTY_DATA
  Total_Score	| 5.7928
  Crash		| -1.3821
  Polar		| 2.4610
  FragIndex	| 1
  FragRMSD	| 1.397

