@<TRIPOS>MOLECULE
BindingDB_11036
 34 35 0 0 0
SMALL
NO_CHARGES


@<TRIPOS>ATOM
1    C        -6.1308    4.5110   14.4679  C     
2    C        -4.2868    2.5384   15.3193  C     
3    C        -5.6377    2.4763   15.7398  C     
4    C        -6.5504    3.4724   15.3265  C     
5    C        -4.7852    4.5604   14.0558  C     
6    C        -4.1841    5.5349   13.1405  C     
7    C        -2.6618    5.1912   13.1859  C     
8    C        -2.5385    3.8296   13.9348  C     
9    C        -3.8751    3.5999   14.4902  C     
10   N        -1.8156    6.2060   13.7508  N     
11   C        -2.0924    7.0383   14.7546  C     
12   O        -3.2134    7.0511   15.2545  O     
13   N        -7.7736    1.0654   17.1763  N     
14   S        -6.1576    1.1654   16.7574  S     
15   O        -5.9737   -0.1328   15.8585  O     
16   O        -5.1978    0.9619   18.0110  O     
17   C        -1.0516    7.8888   15.3022  C     
18   C        -1.4701    9.3576   15.5318  C     
19   H        -6.7914    5.2252   14.1467  H     
20   H        -3.6089    1.8238   15.6007  H     
21   H        -7.5235    3.4473   15.6451  H     
22   H        -4.5908    5.4039   12.1373  H     
23   H        -4.3613    6.5717   13.5003  H     
24   H        -2.3125    5.0447   12.1532  H     
25   H        -2.2882    3.0182   13.2458  H     
26   H        -1.7911    3.8568   14.7403  H     
27   H        -0.9114    6.2494   13.3914  H     
28   H        -8.2072    0.1899   17.1842  H     
29   H        -8.3188    1.8606   17.2093  H     
30   H        -0.7301    7.4687   16.2612  H     
31   H        -0.1871    7.8894   14.6386  H     
32   H        -1.8426    9.7989   14.6078  H     
33   H        -0.6144    9.9364   15.8732  H     
34   H        -2.2447    9.4044   16.2966  H     
@<TRIPOS>BOND
     1    1    4 2
     2    1    5 1
     3    2    3 2
     4    2    9 1
     5    3    4 1
     6    3   14 1
     7    5    6 1
     8    5    9 2
     9    6    7 1
    10    7    8 1
    11    7   10 1
    12    8    9 1
    13   10   11 am
    14   11   12 2
    15   11   17 1
    16   13   14 am
    17   14   15 2
    18   14   16 2
    19   17   18 1
    20    1   19 1
    21    2   20 1
    22    4   21 1
    23    6   22 1
    24    6   23 1
    25    7   24 1
    26    8   25 1
    27    8   26 1
    28   10   27 1
    29   13   28 1
    30   13   29 1
    31   17   30 1
    32   17   31 1
    33   18   32 1
    34   18   33 1
    35   18   34 1
@<TRIPOS>PROPERTY_DATA
  Total_Score	| 6.0223
  Crash		| -1.5719
  Polar		| 2.7038
  FragIndex	| 1
  FragRMSD	| 1.418

