@<TRIPOS>MOLECULE
BindingDB_11028
 31 32 0 0 0
SMALL
NO_CHARGES


@<TRIPOS>ATOM
1    C        -6.1542    3.4168   15.2462  C     
2    C        -3.3659    3.3476   14.7818  C     
3    C        -3.9768    2.3640   15.5853  C     
4    C        -5.3706    2.3979   15.8260  C     
5    C        -5.5376    4.3948   14.4471  C     
6    C        -6.1892    5.5240   13.7930  C     
7    C        -5.0617    6.1644   12.9415  C     
8    C        -3.7280    5.4660   13.3574  C     
9    C        -4.1590    4.3594   14.2137  C     
10   N        -2.7565    6.3385   13.9606  N     
11   C        -2.8893    7.0579   15.0707  C     
12   C        -1.7883    7.8874   15.5021  C     
13   O        -3.9036    7.0190   15.7561  O     
14   S        -6.1180    1.1796   16.8140  S     
15   O        -6.2539   -0.1246   15.9249  O     
16   O        -5.1908    0.8675   18.0678  O     
17   N        -7.6575    1.5531   17.3524  N     
18   H        -7.1641    3.4570   15.3807  H     
19   H        -2.3561    3.3232   14.6082  H     
20   H        -3.3943    1.6226   15.9862  H     
21   H        -7.0187    5.1815   13.1700  H     
22   H        -6.5638    6.2247   14.5478  H     
23   H        -5.2579    5.9908   11.8848  H     
24   H        -5.0235    7.2467   13.1062  H     
25   H        -3.2586    5.0412   12.4613  H     
26   H        -1.9048    6.4139   13.5012  H     
27   H        -0.9418    7.2517   15.7635  H     
28   H        -2.0592    8.4843   16.3752  H     
29   H        -1.4945    8.5664   14.6990  H     
30   H        -8.0849    0.9717   18.0028  H     
31   H        -8.0497    2.4165   17.1602  H     
@<TRIPOS>BOND
     1    1    4 2
     2    1    5 1
     3    2    3 2
     4    2    9 1
     5    3    4 1
     6    4   14 1
     7    5    6 1
     8    5    9 2
     9    6    7 1
    10    7    8 1
    11    8    9 1
    12    8   10 1
    13   10   11 am
    14   11   12 1
    15   11   13 2
    16   14   15 2
    17   14   16 2
    18   14   17 am
    19    1   18 1
    20    2   19 1
    21    3   20 1
    22    6   21 1
    23    6   22 1
    24    7   23 1
    25    7   24 1
    26    8   25 1
    27   10   26 1
    28   12   27 1
    29   12   28 1
    30   12   29 1
    31   17   30 1
    32   17   31 1
@<TRIPOS>PROPERTY_DATA
  Total_Score	| 5.0155
  Crash		| -1.6464
  Polar		| 2.6042
  FragIndex	| 1
  FragRMSD	| 1.168

