@<TRIPOS>MOLECULE
BindingDB_11039
 55 56 0 0 0
SMALL
NO_CHARGES


@<TRIPOS>ATOM
1    C        -3.2584    3.3728   15.2340  C     
2    C        -6.0882    3.3419   15.3625  C     
3    C        -5.3412    2.2908   15.9379  C     
4    C        -3.9274    2.3072   15.8643  C     
5    C        -4.0143    4.4138   14.6697  C     
6    C        -3.5040    5.6040   13.9986  C     
7    C        -4.7865    6.2546   13.4088  C     
8    C        -5.9955    5.6120   14.1530  C     
9    C        -5.4093    4.4055   14.7397  C     
10   N        -4.8426    6.1440   11.9769  N     
11   C        -4.8305    5.0393   11.2344  C     
12   O        -4.8718    3.9255   11.7420  O     
13   N        -7.7573    1.2303   17.1027  N     
14   S        -6.1384    0.9810   16.7610  S     
15   O        -6.0654   -0.2571   15.7772  O     
16   O        -5.3520    0.6263   18.0935  O     
17   C        -4.9076    5.1483    9.7919  C     
18   C        -4.1616    4.0427    8.9950  C     
19   C        -2.6153    3.9389    9.2055  C     
20   C        -2.1753    2.9689   10.3574  C     
21   C        -1.3779    1.7192    9.8743  C     
22   C        -1.3290    0.5136   10.8498  C     
23   C        -2.6016   -0.3879   10.9457  C     
24   C        -3.6163   -0.0067   12.0680  C     
25   C        -5.0083    0.4028   11.5194  C     
26   H        -2.2355    3.3951   15.2005  H     
27   H        -7.1103    3.3481   15.3954  H     
28   H        -3.3737    1.5546   16.2798  H     
29   H        -3.0293    6.2614   14.7328  H     
30   H        -2.7776    5.3415   13.2266  H     
31   H        -4.7616    7.3282   13.6264  H     
32   H        -6.3696    6.2516   14.9557  H     
33   H        -6.8214    5.3713   13.4770  H     
34   H        -4.8933    6.9848   11.4944  H     
35   H        -8.3257    0.4646   17.2710  H     
36   H        -8.1604    2.0930   16.9121  H     
37   H        -5.9648    5.1070    9.5204  H     
38   H        -4.5267    6.1171    9.4557  H     
39   H        -4.6268    3.0751    9.2179  H     
40   H        -4.3503    4.2436    7.9360  H     
41   H        -2.1771    3.5979    8.2606  H     
42   H        -2.2089    4.9410    9.3870  H     
43   H        -1.5435    3.5202   11.0706  H     
44   H        -3.0424    2.6352   10.9106  H     
45   H        -1.7911    1.3778    8.9176  H     
46   H        -0.3436    2.0448    9.6884  H     
47   H        -0.5157   -0.1230   10.4931  H     
48   H        -1.0448    0.8606   11.8511  H     
49   H        -3.0883   -0.4096    9.9643  H     
50   H        -2.2722   -1.4164   11.1345  H     
51   H        -3.7562   -0.8583   12.7390  H     
52   H        -3.2395    0.8166   12.6839  H     
53   H        -4.9062    1.2176   10.7994  H     
54   H        -5.6479    0.7348   12.3399  H     
55   H        -5.4770   -0.4569   11.0234  H     
@<TRIPOS>BOND
     1    1    4 2
     2    1    5 1
     3    2    3 2
     4    2    9 1
     5    3    4 1
     6    3   14 1
     7    5    6 1
     8    5    9 2
     9    6    7 1
    10    7    8 1
    11    7   10 1
    12    8    9 1
    13   10   11 am
    14   11   12 2
    15   11   17 1
    16   13   14 am
    17   14   15 2
    18   14   16 2
    19   17   18 1
    20   18   19 1
    21   19   20 1
    22   20   21 1
    23   21   22 1
    24   22   23 1
    25   23   24 1
    26   24   25 1
    27    1   26 1
    28    2   27 1
    29    4   28 1
    30    6   29 1
    31    6   30 1
    32    7   31 1
    33    8   32 1
    34    8   33 1
    35   10   34 1
    36   13   35 1
    37   13   36 1
    38   17   37 1
    39   17   38 1
    40   18   39 1
    41   18   40 1
    42   19   41 1
    43   19   42 1
    44   20   43 1
    45   20   44 1
    46   21   45 1
    47   21   46 1
    48   22   47 1
    49   22   48 1
    50   23   49 1
    51   23   50 1
    52   24   51 1
    53   24   52 1
    54   25   53 1
    55   25   54 1
    56   25   55 1
@<TRIPOS>PROPERTY_DATA
  Total_Score	| 6.5724
  Crash		| -2.2849
  Polar		| 1.9391
  FragIndex	| 1
  FragRMSD	| 1.189

