@<TRIPOS>MOLECULE
BindingDB_10882
 26 27 0 0 0
SMALL
NO_CHARGES


@<TRIPOS>ATOM
1    C        -1.9649    3.9330   14.9615  C     
2    C        -1.5993    5.1480   14.3475  C     
3    C        -2.5819    6.1153   14.0167  C     
4    C        -3.9445    5.8335   14.2516  C     
5    O        -2.2641    7.3128   13.4228  O     
6    C        -1.1969    8.0912   13.9926  C     
7    C        -1.4109    8.5166   15.4586  C     
8    C        -3.3219    3.6550   15.2000  C     
9    C        -4.2923    4.6081   14.8453  C     
10   C        -5.1450    2.4997   15.9336  C     
11   S        -5.8138    3.9564   15.2992  S     
12   N        -3.7988    2.5279   15.7866  N     
13   N        -7.5892    1.6709   17.1078  N     
14   O        -6.1033   -0.0110   15.7345  O     
15   S        -6.0176    1.2289   16.7198  S     
16   O        -5.2337    0.8033   18.0318  O     
17   H        -1.2478    3.2532   15.2222  H     
18   H        -0.6118    5.3254   14.1566  H     
19   H        -4.6712    6.5057   13.9977  H     
20   H        -0.2494    7.5523   13.8938  H     
21   H        -1.1078    8.9928   13.3850  H     
22   H        -2.3737    9.0302   15.5630  H     
23   H        -0.6119    9.1861   15.7647  H     
24   H        -1.4017    7.6340   16.1080  H     
25   H        -8.2341    0.9905   17.3721  H     
26   H        -7.8386    2.6143   17.1441  H     
@<TRIPOS>BOND
     1    1    2 2
     2    1    8 1
     3    2    3 1
     4    3    4 2
     5    3    5 1
     6    4    9 1
     7    5    6 1
     8    6    7 1
     9    8    9 2
    10    8   12 1
    11    9   11 1
    12   10   11 1
    13   10   12 2
    14   10   15 1
    15   13   15 am
    16   14   15 2
    17   15   16 2
    18    1   17 1
    19    2   18 1
    20    4   19 1
    21    6   20 1
    22    6   21 1
    23    7   22 1
    24    7   23 1
    25    7   24 1
    26   13   25 1
    27   13   26 1
@<TRIPOS>PROPERTY_DATA
  Total_Score	| 5.7867
  Crash		| -0.6126
  Polar		| 3.5055
  FragIndex	| 1
  FragRMSD	| 0.956

