@<TRIPOS>MOLECULE
BindingDB_10874
 20 21 0 0 0
SMALL
NO_CHARGES


@<TRIPOS>ATOM
1    C        -2.0182    3.9334   14.9575  C     
2    C        -1.7073    5.1434   14.2882  C     
3    C        -2.7364    6.0227   13.8882  C     
4    C        -4.0860    5.7003   14.1410  C     
5    C        -3.3655    3.5983   15.1965  C     
6    C        -4.3742    4.4867   14.7863  C     
7    C        -5.1515    2.3892   15.9380  C     
8    O        -2.4355    7.1739   13.2417  O     
9    S        -5.8754    3.7879   15.2381  S     
10   N        -3.8094    2.4704   15.8061  N     
11   N        -7.6177    1.4577   17.1026  N     
12   O        -6.0339   -0.1481   15.8266  O     
13   S        -6.0094    1.1304   16.7650  S     
14   O        -5.2353    0.7302   18.0913  O     
15   H        -1.2681    3.3131   15.2636  H     
16   H        -0.7350    5.3777   14.0990  H     
17   H        -4.8390    6.3308   13.8631  H     
18   H        -2.3018    7.8314   13.9515  H     
19   H        -8.2888    0.7679   16.9582  H     
20   H        -7.9019    2.3767   17.2417  H     
@<TRIPOS>BOND
     1    1    2 2
     2    1    5 1
     3    2    3 1
     4    3    4 2
     5    3    8 1
     6    4    6 1
     7    5    6 2
     8    5   10 1
     9    6    9 1
    10    7    9 1
    11    7   10 2
    12    7   13 1
    13   11   13 am
    14   12   13 2
    15   13   14 2
    16    1   15 1
    17    2   16 1
    18    4   17 1
    19    8   18 1
    20   11   19 1
    21   11   20 1
@<TRIPOS>PROPERTY_DATA
  Total_Score	| 4.9210
  Crash		| -0.2150
  Polar		| 3.4624
  FragIndex	| 1
  FragRMSD	| 1.010

