@<TRIPOS>MOLECULE
BindingDB_12414
 17 17 0 0 0
SMALL
NO_CHARGES


@<TRIPOS>ATOM
1    C        -5.8484    3.2654   15.4264  C     
2    C        -6.3183    2.1348   16.1174  C     
3    C        -5.4528    1.0501   16.3762  C     
4    C        -4.1008    1.1342   15.9927  C     
5    C        -3.6345    2.2706   15.3007  C     
6    C        -4.5125    3.3244   14.9868  C     
7    N        -7.6540   -0.3344   17.5958  N     
8    S        -5.9992   -0.3485   17.2570  S     
9    O        -5.9219   -1.6601   16.3459  O     
10   O        -5.2159   -0.4821   18.6334  O     
11   H        -6.4851    4.0304   15.2259  H     
12   H        -7.2669    2.1198   16.4782  H     
13   H        -3.4503    0.3881   16.2607  H     
14   H        -2.6563    2.3215   14.9956  H     
15   H        -4.1832    4.1359   14.4600  H     
16   H        -8.0436   -1.1498   17.9662  H     
17   H        -8.2171    0.4003   17.3159  H     
@<TRIPOS>BOND
     1    1    2 2
     2    1    6 1
     3    2    3 1
     4    3    4 2
     5    3    8 1
     6    4    5 1
     7    5    6 2
     8    7    8 am
     9    8    9 2
    10    8   10 2
    11    1   11 1
    12    2   12 1
    13    4   13 1
    14    5   14 1
    15    6   15 1
    16    7   16 1
    17    7   17 1
@<TRIPOS>PROPERTY_DATA
  Total_Score	| 3.8942
  Crash		| -0.4945
  Polar		| 2.8482
  FragIndex	| 1
  FragRMSD	| 1.181

