@<TRIPOS>MOLECULE
BindingDB_50155502
 19 19 0 0 0
SMALL
NO_CHARGES


@<TRIPOS>ATOM
1    S        -6.0863   -0.3523   17.3132  S     
2    C        -3.6015    5.6606   15.3571  C     
3    N        -3.3538    6.3734   16.2219  N     
4    C        -5.4835    1.0508   16.4746  C     
5    O        -5.9278   -1.5804   16.3227  O     
6    O        -5.2382   -0.6380   18.6218  O     
7    N        -7.7213   -0.3370   17.6758  N     
8    S        -3.9355    4.6518   14.1142  S     
9    C        -6.3207    2.1551   16.2061  C     
10   C        -4.1406    1.0810   16.0422  C     
11   C        -4.4853    3.2985   15.0660  C     
12   C        -5.8251    3.2697   15.5054  C     
13   C        -3.6478    2.1921   15.3330  C     
14   H        -8.1683   -1.1906   17.8162  H     
15   H        -8.2543    0.4302   17.4201  H     
16   H        -7.2961    2.1582   16.5100  H     
17   H        -3.5159    0.2908   16.2285  H     
18   H        -6.4523    4.0537   15.3092  H     
19   H        -2.6789    2.1842   15.0039  H     
@<TRIPOS>BOND
     1    1    4 1
     2    1    5 2
     3    1    6 2
     4    1    7 am
     5    2    3 3
     6    2    8 1
     7    4    9 2
     8    4   10 1
     9    8   11 1
    10    9   12 1
    11   10   13 2
    12   11   12 2
    13   11   13 1
    14    7   14 1
    15    7   15 1
    16    9   16 1
    17   10   17 1
    18   12   18 1
    19   13   19 1
@<TRIPOS>PROPERTY_DATA
  Total_Score	| 4.6715
  Crash		| -0.6348
  Polar		| 2.9423
  FragIndex	| 1
  FragRMSD	| 1.190

