@<TRIPOS>MOLECULE
BindingDB_50025093
 17 17 0 0 0
SMALL
NO_CHARGES


@<TRIPOS>ATOM
1    S        -6.0734   -0.3472   17.3520  S     
2    C        -5.4533    1.0024   16.4435  C     
3    O        -5.9267   -1.6144   16.4082  O     
4    O        -5.2191   -0.6060   18.6648  O     
5    N        -7.7131   -0.3120   17.6943  N     
6    C        -6.2766    2.1009   16.1171  C     
7    C        -4.1034    1.0022   16.0334  C     
8    C        -4.4057    3.1832   14.9848  C     
9    C        -5.7534    3.1878   15.3931  C     
10   C        -3.5829    2.0861   15.3034  C     
11   Cl       -3.7781    4.4962   14.1212  Cl    
12   H        -8.2018   -1.1489   17.7447  H     
13   H        -8.2052    0.5279   17.5935  H     
14   H        -7.2569    2.1233   16.4042  H     
15   H        -3.4895    0.2173   16.2646  H     
16   H        -6.3586    3.9811   15.1680  H     
17   H        -2.6045    2.0683   15.0076  H     
@<TRIPOS>BOND
     1    1    2 1
     2    1    3 2
     3    1    4 2
     4    1    5 am
     5    2    6 1
     6    2    7 2
     7    6    9 2
     8    7   10 1
     9    8    9 1
    10    8   10 2
    11    8   11 1
    12    5   12 1
    13    5   13 1
    14    6   14 1
    15    7   15 1
    16    9   16 1
    17   10   17 1
@<TRIPOS>PROPERTY_DATA
  Total_Score	| 4.1329
  Crash		| -0.4562
  Polar		| 3.0417
  FragIndex	| 1
  FragRMSD	| 1.186

