@<TRIPOS>MOLECULE
BindingDB_50379563
 31 34 0 0 0
SMALL
NO_CHARGES


@<TRIPOS>ATOM
1    C         0.2361   37.2318   12.8036  C     
2    C        -0.1634   36.2134   11.9081  C     
3    C         0.6692   35.9571   10.7935  C     
4    C         1.4210   37.9634   12.5940  C     
5    C         2.2506   37.7016   11.4766  C     
6    C         1.8622   36.6747   10.5612  C     
7    C         4.2052   38.1440   10.1445  C     
8    C         3.4452   38.4232   11.2215  C     
9    C         2.6319   35.5821    8.4545  C     
10   N         3.6785   35.7739    7.6844  N     
11   N         4.4214   36.7183    8.1628  N     
12   C         3.8103   37.1429    9.2772  C     
13   N         2.6787   36.4318    9.4655  N     
14   O         1.7861   34.7362    8.2018  O     
15   N         3.8574   39.3650   12.0008  N     
16   C        -1.3661   35.4780   12.1261  C     
17   N        -2.2171   35.6404   13.1588  N     
18   C        -3.2454   34.7827   13.0669  C     
19   C        -3.0757   34.0105   11.9325  C     
20   C        -1.8995   34.4455   11.3456  C     
21   H        -0.3294   37.4627   13.6317  H     
22   H         0.4056   35.2331   10.1426  H     
23   H         1.6682   38.6918   13.2697  H     
24   H         5.0493   38.6366    9.9516  H     
25   H         3.8678   35.2661    6.8733  H     
26   H         4.6535   39.8174   11.8074  H     
27   H         3.3740   39.5948   12.7635  H     
28   H        -2.1080   36.2911   13.8656  H     
29   H        -4.0245   34.7171   13.7256  H     
30   H        -3.6903   33.2726   11.5944  H     
31   H        -1.5152   34.0446   10.4826  H     
@<TRIPOS>BOND
     1    1    2 2
     2    1    4 1
     3    2    3 1
     4    2   16 1
     5    3    6 2
     6    4    5 2
     7    5    6 1
     8    5    8 1
     9    6   13 1
    10    7    8 2
    11    7   12 1
    12    8   15 1
    13    9   10 1
    14    9   13 1
    15    9   14 2
    16   10   11 1
    17   11   12 2
    18   12   13 1
    19   16   17 1
    20   16   20 2
    21   17   18 1
    22   18   19 2
    23   19   20 1
    24    1   21 1
    25    3   22 1
    26    4   23 1
    27    7   24 1
    28   10   25 1
    29   15   26 1
    30   15   27 1
    31   17   28 1
    32   18   29 1
    33   19   30 1
    34   20   31 1
@<TRIPOS>PROPERTY_DATA
  Total_Score	| 5.3335
  Crash		| -0.1716
  Polar		| 1.6583
  FragIndex	| 1
  FragRMSD	| 1.089

