@<TRIPOS>MOLECULE
BindingDB_50379572
 45 48 0 0 0
SMALL
NO_CHARGES


@<TRIPOS>ATOM
1    C         0.4757   37.6224   12.5910  C     
2    C         0.0620   36.4889   11.8579  C     
3    C         0.8674   36.0886   10.7695  C     
4    C         1.6457   38.3239   12.2504  C     
5    C         2.4487   37.9375   11.1490  C     
6    C         2.0423   36.7853   10.3997  C     
7    C         4.3520   38.1820    9.6943  C     
8    C         3.6253   38.6445   10.7394  C     
9    C         2.7428   35.4283    8.4353  C     
10   N         3.7693   35.4988    7.6224  N     
11   N         4.5289   36.4900    7.9405  N     
12   C         3.9492   37.0597    9.0069  C     
13   N         2.8264   36.3948    9.3270  N     
14   O         1.8684   34.5886    8.3117  O     
15   C         4.1225   39.8454   11.4346  C     
16   C        -1.1192   35.7518   12.1760  C     
17   N        -1.4099   34.5098   11.7212  N     
18   C        -2.5965   34.1000   12.1907  C     
19   C        -3.1166   35.1114   12.9880  C     
20   C        -2.1900   36.1469   12.9847  C     
21   N         5.2469   39.5950   12.3690  N     
22   C         6.2082   38.4975   12.0790  C     
23   C         7.6106   38.9832   11.6435  C     
24   C         7.7044   39.5269   10.2027  C     
25   O         7.4353   38.5149    9.2351  O     
26   H        -0.0702   37.9441   13.3966  H     
27   H         0.5819   35.2726   10.2342  H     
28   H         1.8925   39.1302   12.8190  H     
29   H         5.1985   38.6183    9.3949  H     
30   H         3.9244   34.8980    6.8794  H     
31   H         4.4462   40.6159   10.7310  H     
32   H         3.3037   40.3014   11.9857  H     
33   H        -0.8238   33.9611   11.1684  H     
34   H        -3.0356   33.2006   11.9996  H     
35   H        -4.0073   35.0948   13.4848  H     
36   H        -2.2986   37.0355   13.4837  H     
37   H         5.7820   40.4639   12.4519  H     
38   H         4.8517   39.3991   13.2864  H     
39   H         6.3310   37.9286   13.0035  H     
40   H         5.8156   37.7995   11.3362  H     
41   H         7.9394   39.7550   12.3414  H     
42   H         8.3035   38.1428   11.7289  H     
43   H         7.0005   40.3433   10.0624  H     
44   H         8.7066   39.9199   10.0273  H     
45   H         7.9029   37.7118    9.5619  H     
@<TRIPOS>BOND
     1    1    2 2
     2    1    4 1
     3    2    3 1
     4    2   16 1
     5    3    6 2
     6    4    5 2
     7    5    6 1
     8    5    8 1
     9    6   13 1
    10    7    8 2
    11    7   12 1
    12    8   15 1
    13    9   10 1
    14    9   13 1
    15    9   14 2
    16   10   11 1
    17   11   12 2
    18   12   13 1
    19   15   21 1
    20   16   17 1
    21   16   20 2
    22   17   18 1
    23   18   19 2
    24   19   20 1
    25   21   22 1
    26   22   23 1
    27   23   24 1
    28   24   25 1
    29    1   26 1
    30    3   27 1
    31    4   28 1
    32    7   29 1
    33   10   30 1
    34   15   31 1
    35   15   32 1
    36   17   33 1
    37   18   34 1
    38   19   35 1
    39   20   36 1
    40   21   37 1
    41   21   38 1
    42   22   39 1
    43   22   40 1
    44   23   41 1
    45   23   42 1
    46   24   43 1
    47   24   44 1
    48   25   45 1
@<TRIPOS>PROPERTY_DATA
  Total_Score	| 9.9846
  Crash		| -1.7584
  Polar		| 6.7378
  FragIndex	| 1
  FragRMSD	| 0.376

