@<TRIPOS>MOLECULE
BindingDB_50379565
 42 45 0 0 0
SMALL
NO_CHARGES


@<TRIPOS>ATOM
1    C         0.4717   37.4979   12.6848  C     
2    C         0.0193   36.4151   11.8982  C     
3    C         0.8098   36.0370   10.7906  C     
4    C         1.6436   38.2044   12.3528  C     
5    C         2.4156   37.8606   11.2106  C     
6    C         1.9909   36.7324   10.4372  C     
7    C         4.2673   38.1750    9.7023  C     
8    C         3.5686   38.5987   10.7835  C     
9    C         2.6946   35.3932    8.4554  C     
10   N         3.7007   35.5057    7.6174  N     
11   N         4.4382   36.5171    7.9297  N     
12   C         3.8627   37.0605    9.0094  C     
13   N         2.7621   36.3638    9.3462  N     
14   O         1.8551   34.5149    8.3497  O     
15   C         4.0382   39.8265   11.4407  C     
16   C        -1.1828   35.7024   12.1923  C     
17   N        -1.5092   34.4779   11.7139  N     
18   C        -2.7076   34.0922   12.1771  C     
19   C        -3.1982   35.0957   13.0005  C     
20   C        -2.2449   36.1061   13.0095  C     
21   N         5.2339   39.6321   12.2978  N     
22   C         6.2995   38.7258   11.8123  C     
23   C         7.2631   39.3726   10.7811  C     
24   O         7.4341   38.5505    9.6297  O     
25   H        -0.0453   37.7924   13.5175  H     
26   H         0.5032   35.2526   10.2162  H     
27   H         1.9292   38.9704   12.9680  H     
28   H         5.0650   38.6651    9.3676  H     
29   H         3.8702   34.9098    6.8708  H     
30   H         4.2613   40.6143   10.7156  H     
31   H         3.2424   40.2446   12.0576  H     
32   H        -0.9467   33.9324   11.1392  H     
33   H        -3.1647   33.2042   11.9708  H     
34   H        -4.0883   35.0916   13.4991  H     
35   H        -2.3276   36.9851   13.5240  H     
36   H         5.6595   40.5507   12.4378  H     
37   H         4.9166   39.2942   13.2097  H     
38   H         6.8811   38.4235   12.6835  H     
39   H         5.8525   37.8152   11.4013  H     
40   H         6.8890   40.3453   10.4552  H     
41   H         8.2492   39.5279   11.2269  H     
42   H         7.8277   37.7130    9.9642  H     
@<TRIPOS>BOND
     1    1    2 2
     2    1    4 1
     3    2    3 1
     4    2   16 1
     5    3    6 2
     6    4    5 2
     7    5    6 1
     8    5    8 1
     9    6   13 1
    10    7    8 2
    11    7   12 1
    12    8   15 1
    13    9   10 1
    14    9   13 1
    15    9   14 2
    16   10   11 1
    17   11   12 2
    18   12   13 1
    19   15   21 1
    20   16   17 1
    21   16   20 2
    22   17   18 1
    23   18   19 2
    24   19   20 1
    25   21   22 1
    26   22   23 1
    27   23   24 1
    28    1   25 1
    29    3   26 1
    30    4   27 1
    31    7   28 1
    32   10   29 1
    33   15   30 1
    34   15   31 1
    35   17   32 1
    36   18   33 1
    37   19   34 1
    38   20   35 1
    39   21   36 1
    40   21   37 1
    41   22   38 1
    42   22   39 1
    43   23   40 1
    44   23   41 1
    45   24   42 1
@<TRIPOS>PROPERTY_DATA
  Total_Score	| 9.8182
  Crash		| -1.1190
  Polar		| 6.5873
  FragIndex	| 1
  FragRMSD	| 0.327

