@<TRIPOS>MOLECULE
BindingDB_50325146
 31 34 0 0 0
SMALL
NO_CHARGES


@<TRIPOS>ATOM
1    C         0.2680   37.1748   12.6518  C     
2    C        -0.1836   36.1526   11.7837  C     
3    C         0.5995   35.8689   10.6423  C     
4    C         1.4509   37.8772   12.3873  C     
5    C         2.2409   37.6054   11.2397  C     
6    C         1.8047   36.5592   10.3647  C     
7    C         4.1450   37.9860    9.8153  C     
8    C         3.4283   38.3247   10.9117  C     
9    C         3.7246   36.9416    9.0114  C     
10   N         2.5946   36.2594    9.2680  N     
11   C         2.5227   35.3542    8.3066  C     
12   N         3.5604   35.4827    7.5145  N     
13   N         4.3166   36.4470    7.9167  N     
14   O         1.6780   34.4895    8.1353  O     
15   C         3.8884   39.4578   11.7198  C     
16   C        -1.3654   35.4107   12.0814  C     
17   N        -2.1292   35.5791   13.1795  N     
18   C        -3.1163   34.6696   13.1552  C     
19   N        -2.9994   33.9110   12.0588  N     
20   C        -1.9386   34.3489   11.3750  C     
21   H        -0.2646   37.4145   13.4945  H     
22   H         0.2878   35.1430   10.0048  H     
23   H         1.7331   38.6022   13.0543  H     
24   H         4.9699   38.4660    9.5577  H     
25   H         3.7397   34.9141    6.7520  H     
26   H         3.0980   40.2072   11.7682  H     
27   H         4.7813   39.9497   11.3210  H     
28   H         4.1248   39.1144   12.7278  H     
29   H        -3.8352   34.5595   13.8712  H     
30   H        -3.5682   33.1648   11.8145  H     
31   H        -1.6128   33.9347   10.5044  H     
@<TRIPOS>BOND
     1    1    2 2
     2    1    4 1
     3    2    3 1
     4    2   16 1
     5    3    6 2
     6    4    5 2
     7    5    6 1
     8    5    8 1
     9    6   10 1
    10    7    8 2
    11    7    9 1
    12    8   15 1
    13    9   10 1
    14    9   13 2
    15   10   11 1
    16   11   12 1
    17   11   14 2
    18   12   13 1
    19   16   17 1
    20   16   20 2
    21   17   18 2
    22   18   19 1
    23   19   20 1
    24    1   21 1
    25    3   22 1
    26    4   23 1
    27    7   24 1
    28   12   25 1
    29   15   26 1
    30   15   27 1
    31   15   28 1
    32   18   29 1
    33   19   30 1
    34   20   31 1
@<TRIPOS>PROPERTY_DATA
  Total_Score	| 5.6938
  Crash		| -0.5551
  Polar		| 1.9120
  FragIndex	| 1
  FragRMSD	| 0.877

