@<TRIPOS>MOLECULE
BindingDB_50379571
 34 37 0 0 0
SMALL
NO_CHARGES


@<TRIPOS>ATOM
1    C         0.6117   37.7043   12.8515  C     
2    C         0.0518   36.5850   12.1752  C     
3    C         0.8061   36.1547   11.0460  C     
4    C         1.8059   38.3284   12.4561  C     
5    C         2.5123   37.9087   11.3048  C     
6    C         1.9884   36.7880   10.5891  C     
7    C         4.2711   38.1114    9.6738  C     
8    C         3.6849   38.5618   10.8120  C     
9    C         2.4585   35.4073    8.5575  C     
10   N         3.3883   35.4770    7.6333  N     
11   N         4.1901   36.4583    7.8789  N     
12   C         3.7470   37.0287    9.0045  C     
13   N         2.6512   36.3762    9.4399  N     
14   O         1.5898   34.5526    8.5295  O     
15   C         4.3384   39.6857   11.5041  C     
16   O         5.3345   39.2037   12.3989  O     
17   C        -1.1958   35.9311   12.5911  C     
18   C        -1.7935   36.1742   13.8623  C     
19   C        -2.9992   35.5565   14.2410  C     
20   N        -3.6026   34.6891   13.4011  N     
21   C        -3.0927   34.3933   12.1887  C     
22   C        -1.9026   35.0080   11.7631  C     
23   H         0.1526   38.1262   13.6586  H     
24   H         0.4986   35.3528   10.5208  H     
25   H         2.1270   39.1079   13.0190  H     
26   H         5.0880   38.5434    9.3000  H     
27   H         3.4650   34.8606    6.8835  H     
28   H         4.8354   40.3699   10.8073  H     
29   H         3.6327   40.3126   12.0455  H     
30   H         4.8669   38.9330   13.2177  H     
31   H        -1.3819   36.7873   14.5482  H     
32   H        -3.4234   35.7515   15.1458  H     
33   H        -3.5811   33.7261   11.5886  H     
34   H        -1.5964   34.7544   10.8344  H     
@<TRIPOS>BOND
     1    1    2 2
     2    1    4 1
     3    2    3 1
     4    2   17 1
     5    3    6 2
     6    4    5 2
     7    5    6 1
     8    5    8 1
     9    6   13 1
    10    7    8 2
    11    7   12 1
    12    8   15 1
    13    9   10 1
    14    9   13 1
    15    9   14 2
    16   10   11 1
    17   11   12 2
    18   12   13 1
    19   15   16 1
    20   17   18 2
    21   17   22 1
    22   18   19 1
    23   19   20 2
    24   20   21 1
    25   21   22 2
    26    1   23 1
    27    3   24 1
    28    4   25 1
    29    7   26 1
    30   10   27 1
    31   15   28 1
    32   15   29 1
    33   16   30 1
    34   18   31 1
    35   19   32 1
    36   21   33 1
    37   22   34 1
@<TRIPOS>PROPERTY_DATA
  Total_Score	| 7.0669
  Crash		| -0.4465
  Polar		| 3.5053
  FragIndex	| 1
  FragRMSD	| 0.584

