@<TRIPOS>MOLECULE
BindingDB_50379564
 35 38 0 0 0
SMALL
NO_CHARGES


@<TRIPOS>ATOM
1    C         0.4742   37.5273   12.5718  C     
2    C         0.0461   36.4302   11.7949  C     
3    C         0.8649   36.0382   10.7158  C     
4    C         1.6636   38.2156   12.2697  C     
5    C         2.4692   37.8577   11.1591  C     
6    C         2.0556   36.7283   10.3809  C     
7    C         4.4002   38.1072    9.7420  C     
8    C         3.6538   38.5662   10.7759  C     
9    C         2.7595   35.4113    8.3850  C     
10   N         3.7961   35.4909    7.5848  N     
11   N         4.5659   36.4645    7.9419  N     
12   C         3.9863   37.0137    9.0182  C     
13   N         2.8487   36.3540    9.3058  N     
14   O         1.8856   34.5727    8.2335  O     
15   C         4.0941   39.8113   11.4210  C     
16   C        -1.1662   35.7333   12.0642  C     
17   N        -1.4511   34.4774   11.6579  N     
18   C        -2.6828   34.1215   12.0524  C     
19   C        -3.2391   35.1853   12.7455  C     
20   C        -2.2874   36.1954   12.7566  C     
21   N         5.2254   39.5752   12.3260  N     
22   H        -0.0720   37.8352   13.3800  H     
23   H         0.5692   35.2462   10.1471  H     
24   H         1.9242   38.9930   12.8791  H     
25   H         5.2399   38.5589    9.4609  H     
26   H         3.9524   34.9048    6.8266  H     
27   H         4.4335   40.5568   10.6931  H     
28   H         3.2722   40.2801   11.9630  H     
29   H        -0.8494   33.8959   11.1673  H     
30   H        -3.1291   33.2217   11.8697  H     
31   H        -4.1717   35.2210   13.1627  H     
32   H        -2.4133   37.1169   13.1792  H     
33   H         4.9096   39.0766   13.1594  H     
34   H         5.6340   40.4773   12.5962  H     
35   H         5.9369   39.0214   11.8443  H     
@<TRIPOS>BOND
     1    1    2 2
     2    1    4 1
     3    2    3 1
     4    2   16 1
     5    3    6 2
     6    4    5 2
     7    5    6 1
     8    5    8 1
     9    6   13 1
    10    7    8 2
    11    7   12 1
    12    8   15 1
    13    9   10 1
    14    9   13 1
    15    9   14 2
    16   10   11 1
    17   11   12 2
    18   12   13 1
    19   15   21 1
    20   16   17 1
    21   16   20 2
    22   17   18 1
    23   18   19 2
    24   19   20 1
    25    1   22 1
    26    3   23 1
    27    4   24 1
    28    7   25 1
    29   10   26 1
    30   15   27 1
    31   15   28 1
    32   17   29 1
    33   18   30 1
    34   19   31 1
    35   20   32 1
    36   21   33 1
    37   21   34 1
    38   21   35 1
@<TRIPOS>PROPERTY_DATA
  Total_Score	| 8.2399
  Crash		| -0.6357
  Polar		| 5.0403
  FragIndex	| 1
  FragRMSD	| 0.350

