@<TRIPOS>MOLECULE
BindingDB_50379584
 44 47 0 0 0
SMALL
NO_CHARGES


@<TRIPOS>ATOM
1    C         0.4824   37.5221   12.6855  C     
2    C         0.0303   36.4382   11.8988  C     
3    C         0.8212   36.0818   10.7839  C     
4    C         1.6589   38.2277   12.3609  C     
5    C         2.4277   37.9062   11.2131  C     
6    C         1.9982   36.7832   10.4304  C     
7    C         4.2180   38.2822    9.6422  C     
8    C         3.5716   38.6516   10.7832  C     
9    C         2.7171   35.4377    8.4558  C     
10   N         3.7219   35.5490    7.6167  N     
11   N         4.4190   36.6013    7.8905  N     
12   C         3.8306   37.1599    8.9557  C     
13   N         2.7617   36.4292    9.3258  N     
14   O         1.9232   34.5104    8.3974  O     
15   C         4.1534   39.7898   11.5225  C     
16   C        -1.1765   35.7209   12.1891  C     
17   N        -1.5807   34.5847   11.5754  N     
18   C        -2.7450   34.1526   12.0842  C     
19   C        -3.1358   35.0404   13.0755  C     
20   C        -2.1576   36.0222   13.1387  C     
21   N         5.3544   39.4725   12.3466  N     
22   C         6.3484   38.4906   11.8266  C     
23   C         7.4480   39.0641   10.8956  C     
24   N         8.4018   39.8978   11.6283  N     
25   H        -0.0424   37.8143   13.5119  H     
26   H         0.5109   35.3076   10.1977  H     
27   H         1.9219   38.9982   12.9747  H     
28   H         4.9997   38.7858    9.2965  H     
29   H         3.9254   34.9167    6.9078  H     
30   H         4.4145   40.6130   10.8451  H     
31   H         3.4086   40.2298   12.1748  H     
32   H        -1.0860   34.1106   10.8906  H     
33   H        -3.2515   33.3147   11.7925  H     
34   H        -3.9819   34.9777   13.6448  H     
35   H        -2.1718   36.8120   13.7832  H     
36   H         5.8527   40.3553   12.5036  H     
37   H         5.0260   39.1322   13.2548  H     
38   H         6.8307   38.0251   12.6854  H     
39   H         5.8257   37.6831   11.3108  H     
40   H         8.0009   38.2340   10.4480  H     
41   H         7.0177   39.6572   10.0901  H     
42   H         7.9173   40.6986   12.0393  H     
43   H         9.1247   40.2249   10.9830  H     
44   H         8.8409   39.3357   12.3628  H     
@<TRIPOS>BOND
     1    1    2 2
     2    1    4 1
     3    2    3 1
     4    2   16 1
     5    3    6 2
     6    4    5 2
     7    5    6 1
     8    5    8 1
     9    6   13 1
    10    7    8 2
    11    7   12 1
    12    8   15 1
    13    9   10 1
    14    9   13 1
    15    9   14 2
    16   10   11 1
    17   11   12 2
    18   12   13 1
    19   15   21 1
    20   16   17 1
    21   16   20 2
    22   17   18 1
    23   18   19 2
    24   19   20 1
    25   21   22 1
    26   22   23 1
    27   23   24 1
    28    1   25 1
    29    3   26 1
    30    4   27 1
    31    7   28 1
    32   10   29 1
    33   15   30 1
    34   15   31 1
    35   17   32 1
    36   18   33 1
    37   19   34 1
    38   20   35 1
    39   21   36 1
    40   21   37 1
    41   22   38 1
    42   22   39 1
    43   23   40 1
    44   23   41 1
    45   24   42 1
    46   24   43 1
    47   24   44 1
@<TRIPOS>PROPERTY_DATA
  Total_Score	| 12.5613
  Crash		| -1.1238
  Polar		| 9.0516
  FragIndex	| 1
  FragRMSD	| 0.354

