@<TRIPOS>MOLECULE
BindingDB_50379570
 50 53 0 0 0
SMALL
NO_CHARGES


@<TRIPOS>ATOM
1    C         0.0264   37.2104   12.8240  C     
2    C        -0.3622   36.1560   11.9665  C     
3    C         0.4690   35.8604   10.8641  C     
4    C         1.1635   37.9917   12.5479  C     
5    C         1.9421   37.7662   11.3886  C     
6    C         1.6086   36.6402   10.5700  C     
7    C         3.4142   38.5343    9.6659  C     
8    C         2.9594   38.6586   10.9353  C     
9    C         2.5221   35.3827    8.6339  C     
10   N         3.4262   35.6740    7.7295  N     
11   N         3.8721   36.8743    7.9149  N     
12   C         3.2158   37.3528    8.9831  C     
13   N         2.3732   36.4130    9.4425  N     
14   O         1.9724   34.2945    8.6938  O     
15   C         3.7066   39.5839   11.8094  C     
16   C        -1.5737   35.4320   12.1484  C     
17   N        -1.8609   34.2327   11.5940  N     
18   C        -3.1026   33.8507   11.9198  C     
19   C        -3.6617   34.8323   12.7240  C     
20   C        -2.7057   35.8276   12.8658  C     
21   N         5.0001   39.0488   12.3253  N     
22   C         5.7273   37.9652   11.6035  C     
23   C         6.4088   38.3574   10.2582  C     
24   N         7.8595   38.7153   10.2878  N     
25   C         8.2511   39.4707    9.0546  C     
26   C         8.2874   39.4201   11.5315  C     
27   H        -0.5289   37.4396   13.6518  H     
28   H         0.2021   35.1105   10.2220  H     
29   H         1.3746   38.7614   13.1813  H     
30   H         4.0478   39.1971    9.2842  H     
31   H         3.7386   35.0571    7.0494  H     
32   H         3.9248   40.5296   11.2989  H     
33   H         3.1001   39.8763   12.6621  H     
34   H        -1.2552   33.7014   11.0488  H     
35   H        -3.5569   32.9855   11.6224  H     
36   H        -4.6005   34.8274   13.1254  H     
37   H        -2.8338   36.6943   13.3885  H     
38   H         5.6426   39.8430   12.4104  H     
39   H         4.8197   38.7054   13.2739  H     
40   H         6.4903   37.5628   12.2739  H     
41   H         5.0171   37.1560   11.4155  H     
42   H         6.2933   37.4984    9.5866  H     
43   H         5.8669   39.1745    9.8043  H     
44   H         8.3496   37.8237   10.2409  H     
45   H         8.0220   38.8889    8.1565  H     
46   H         9.3233   39.6755    9.0358  H     
47   H         7.7234   40.4295    8.9937  H     
48   H         7.7090   40.3343   11.6766  H     
49   H         9.3453   39.6779   11.4865  H     
50   H         8.1599   38.7819   12.4054  H     
@<TRIPOS>BOND
     1    1    2 2
     2    1    4 1
     3    2    3 1
     4    2   16 1
     5    3    6 2
     6    4    5 2
     7    5    6 1
     8    5    8 1
     9    6   13 1
    10    7    8 2
    11    7   12 1
    12    8   15 1
    13    9   10 1
    14    9   13 1
    15    9   14 2
    16   10   11 1
    17   11   12 2
    18   12   13 1
    19   15   21 1
    20   16   17 1
    21   16   20 2
    22   17   18 1
    23   18   19 2
    24   19   20 1
    25   21   22 1
    26   22   23 1
    27   23   24 1
    28   24   25 1
    29   24   26 1
    30    1   27 1
    31    3   28 1
    32    4   29 1
    33    7   30 1
    34   10   31 1
    35   15   32 1
    36   15   33 1
    37   17   34 1
    38   18   35 1
    39   19   36 1
    40   20   37 1
    41   21   38 1
    42   21   39 1
    43   22   40 1
    44   22   41 1
    45   23   42 1
    46   23   43 1
    47   24   44 1
    48   25   45 1
    49   25   46 1
    50   25   47 1
    51   26   48 1
    52   26   49 1
    53   26   50 1
@<TRIPOS>PROPERTY_DATA
  Total_Score	| 10.0291
  Crash		| -2.6237
  Polar		| 5.7520
  FragIndex	| 1
  FragRMSD	| 0.399

