@<TRIPOS>MOLECULE
BindingDB_50379560
 33 36 0 0 0
SMALL
NO_CHARGES


@<TRIPOS>ATOM
1    C         0.4364   37.1416   12.7269  C     
2    C        -0.0517   36.1924   11.8091  C     
3    C         0.7233   35.9652   10.6504  C     
4    C         1.6150   37.8676   12.4811  C     
5    C         2.3646   37.6927   11.2900  C     
6    C         1.9298   36.6648   10.3919  C     
7    C         4.2591   38.1272    9.8632  C     
8    C         3.5232   38.4627   10.9499  C     
9    C         2.6859   35.4755    8.3357  C     
10   N         3.7297   35.6170    7.5536  N     
11   N         4.4687   36.5950    7.9642  N     
12   C         3.8574   37.0867    9.0534  C     
13   N         2.7309   36.3873    9.2899  N     
14   O         1.8631   34.5889    8.1757  O     
15   C         3.9575   39.6563   11.6886  C     
16   C        -1.2675   35.4858   12.0708  C     
17   N        -2.0478   35.6711   13.1577  N     
18   C        -3.1023   34.8405   13.1423  C     
19   C        -3.0273   34.0750   11.9946  C     
20   C        -1.8803   34.4742   11.3238  C     
21   O         5.1760   39.3726   12.3715  O     
22   H        -0.0617   37.3271   13.5980  H     
23   H         0.3939   35.2780    9.9755  H     
24   H         1.9098   38.5234   13.2050  H     
25   H         5.0738   38.6403    9.6079  H     
26   H         3.9336   35.0303    6.8088  H     
27   H         4.1314   40.4983   11.0080  H     
28   H         3.2262   40.0154   12.4113  H     
29   H        -1.8680   36.3155   13.8610  H     
30   H        -3.8242   34.7820   13.8628  H     
31   H        -3.6816   33.3505   11.7043  H     
32   H        -1.5617   34.0682   10.4463  H     
33   H         4.9077   38.9786   13.2299  H     
@<TRIPOS>BOND
     1    1    2 2
     2    1    4 1
     3    2    3 1
     4    2   16 1
     5    3    6 2
     6    4    5 2
     7    5    6 1
     8    5    8 1
     9    6   13 1
    10    7    8 2
    11    7   12 1
    12    8   15 1
    13    9   10 1
    14    9   13 1
    15    9   14 2
    16   10   11 1
    17   11   12 2
    18   12   13 1
    19   15   21 1
    20   16   17 1
    21   16   20 2
    22   17   18 1
    23   18   19 2
    24   19   20 1
    25    1   22 1
    26    3   23 1
    27    4   24 1
    28    7   25 1
    29   10   26 1
    30   15   27 1
    31   15   28 1
    32   17   29 1
    33   18   30 1
    34   19   31 1
    35   20   32 1
    36   21   33 1
@<TRIPOS>PROPERTY_DATA
  Total_Score	| 7.1006
  Crash		| -0.4423
  Polar		| 3.2508
  FragIndex	| 1
  FragRMSD	| 0.888

