@<TRIPOS>MOLECULE
BindingDB_50379559
 32 35 0 0 0
SMALL
NO_CHARGES


@<TRIPOS>ATOM
1    C         0.2311   37.2836   12.7174  C     
2    C        -0.1631   36.2083   11.8911  C     
3    C         0.6694   35.9240   10.7856  C     
4    C         1.3992   38.0273   12.4612  C     
5    C         2.2302   37.7604   11.3382  C     
6    C         1.8399   36.6657   10.4963  C     
7    C         4.1481   38.1358    9.9308  C     
8    C         3.4092   38.5083   11.0030  C     
9    C         2.5921   35.4623    8.4354  C     
10   N         3.6238   35.6155    7.6408  N     
11   N         4.3596   36.5971    8.0487  N     
12   C         3.7606   37.0764    9.1480  C     
13   N         2.6444   36.3676    9.4037  N     
14   O         1.7599   34.5903    8.2453  O     
15   C         3.9063   39.6936   11.7105  C     
16   C        -1.3269   35.4271   12.1788  C     
17   C        -1.8692   34.3667   11.4498  C     
18   N        -2.9318   33.8885   12.1141  N     
19   N        -3.1169   34.5526   13.2046  N     
20   C        -2.1709   35.5007   13.2878  C     
21   O         5.1668   39.4019   12.3327  O     
22   H        -0.3274   37.5555   13.5277  H     
23   H         0.4249   35.1430   10.1818  H     
24   H         1.6226   38.7744   13.1238  H     
25   H         4.9680   38.6280    9.6652  H     
26   H         3.8044   35.0620    6.8653  H     
27   H         4.0688   40.5074   10.9967  H     
28   H         3.2471   40.0970   12.4815  H     
29   H        -1.5383   33.9834   10.5613  H     
30   H        -3.4766   33.1375   11.8211  H     
31   H        -2.0932   36.1453   14.0740  H     
32   H         4.9287   39.0708   13.2424  H     
@<TRIPOS>BOND
     1    1    2 2
     2    1    4 1
     3    2    3 1
     4    2   16 1
     5    3    6 2
     6    4    5 2
     7    5    6 1
     8    5    8 1
     9    6   13 1
    10    7    8 2
    11    7   12 1
    12    8   15 1
    13    9   10 1
    14    9   13 1
    15    9   14 2
    16   10   11 1
    17   11   12 2
    18   12   13 1
    19   15   21 1
    20   16   17 2
    21   16   20 1
    22   17   18 1
    23   18   19 1
    24   19   20 2
    25    1   22 1
    26    3   23 1
    27    4   24 1
    28    7   25 1
    29   10   26 1
    30   15   27 1
    31   15   28 1
    32   17   29 1
    33   18   30 1
    34   20   31 1
    35   21   32 1
@<TRIPOS>PROPERTY_DATA
  Total_Score	| 6.7884
  Crash		| -0.5890
  Polar		| 3.2557
  FragIndex	| 1
  FragRMSD	| 0.170

