@<TRIPOS>MOLECULE
BindingDB_50325177
 32 35 0 0 0
SMALL
NO_CHARGES


@<TRIPOS>ATOM
1    C         0.4723   37.3209   12.6479  C     
2    C        -0.0130   36.3118   11.7872  C     
3    C         0.7558   36.0117   10.6429  C     
4    C         1.6610   38.0105   12.3687  C     
5    C         2.4310   37.7223   11.2135  C     
6    C         1.9747   36.6766   10.3552  C     
7    C         4.3204   38.0758    9.7689  C     
8    C         3.6255   38.4289   10.8742  C     
9    C         3.8906   37.0263    8.9859  C     
10   N         2.7598   36.3508    9.2572  N     
11   C         2.6795   35.4292    8.3154  C     
12   N         3.7096   35.5422    7.5111  N     
13   N         4.4705   36.5133    7.8909  N     
14   O         1.8381   34.5601    8.1679  O     
15   C         4.1219   39.5384   11.6864  C     
16   C        -1.2139   35.6026   12.1005  C     
17   C        -1.8335   34.5717   11.3837  C     
18   C        -2.9577   34.1711   12.0886  C     
19   C        -3.0122   34.9592   13.2262  C     
20   N        -1.9662   35.7986   13.2035  N     
21   H        -0.0373   37.5708   13.5026  H     
22   H         0.4215   35.2909   10.0069  H     
23   H         1.9518   38.7270   13.0334  H     
24   H         5.1463   38.5577    9.4947  H     
25   H         3.8827   34.9597    6.7513  H     
26   H         3.3618   40.3199   11.7469  H     
27   H         5.0300   40.0019   11.2894  H     
28   H         4.3456   39.1794   12.6922  H     
29   H        -1.5287   34.1572   10.5052  H     
30   H        -3.6131   33.4346   11.8259  H     
31   H        -3.7179   34.9122   13.9587  H     
32   H        -1.7747   36.4491   13.8929  H     
@<TRIPOS>BOND
     1    1    2 2
     2    1    4 1
     3    2    3 1
     4    2   16 1
     5    3    6 2
     6    4    5 2
     7    5    6 1
     8    5    8 1
     9    6   10 1
    10    7    8 2
    11    7    9 1
    12    8   15 1
    13    9   10 1
    14    9   13 2
    15   10   11 1
    16   11   12 1
    17   11   14 2
    18   12   13 1
    19   16   17 2
    20   16   20 1
    21   17   18 1
    22   18   19 2
    23   19   20 1
    24    1   21 1
    25    3   22 1
    26    4   23 1
    27    7   24 1
    28   12   25 1
    29   15   26 1
    30   15   27 1
    31   15   28 1
    32   17   29 1
    33   18   30 1
    34   19   31 1
    35   20   32 1
@<TRIPOS>PROPERTY_DATA
  Total_Score	| 6.0186
  Crash		| -0.4053
  Polar		| 1.9823
  FragIndex	| 1
  FragRMSD	| 0.936

