@<TRIPOS>MOLECULE
BindingDB_50325173
 32 35 0 0 0
SMALL
NO_CHARGES


@<TRIPOS>ATOM
1    C         0.6252   37.7102   12.7238  C     
2    C         0.0491   36.6350   12.0054  C     
3    C         0.7694   36.1982   10.8639  C     
4    C         1.8426   38.2991   12.3465  C     
5    C         2.5547   37.8636   11.2055  C     
6    C         1.9959   36.7838   10.4529  C     
7    C         4.4073   37.9863    9.6747  C     
8    C         3.7752   38.4648   10.7746  C     
9    C         3.8664   36.9285    8.9785  C     
10   N         2.7018   36.3519    9.3353  N     
11   C         2.5093   35.3971    8.4426  C     
12   N         3.5075   35.3943    7.5895  N     
13   N         4.3547   36.3201    7.8899  N     
14   O         1.5778   34.6157    8.3526  O     
15   C         4.3748   39.6054   11.4749  C     
16   C        -1.1834   36.0010   12.3971  C     
17   N        -1.6710   34.9507   11.6730  N     
18   C        -2.8061   34.2628   11.9605  C     
19   C        -3.5565   34.6595   13.0776  C     
20   N        -3.1035   35.6949   13.8232  N     
21   C        -1.9602   36.3662   13.5292  C     
22   H         0.1709   38.0926   13.5473  H     
23   H         0.3900   35.4302   10.3124  H     
24   H         2.1987   39.0605   12.9274  H     
25   H         5.2554   38.3864    9.3400  H     
26   H         3.6073   34.7761    6.8480  H     
27   H         3.6774   40.4434   11.4734  H     
28   H         5.3039   39.9589   11.0202  H     
29   H         4.6036   39.3341   12.5067  H     
30   H        -3.1123   33.4824   11.3816  H     
31   H        -4.4212   34.1822   13.3379  H     
32   H        -1.6988   37.1277   14.1506  H     
@<TRIPOS>BOND
     1    1    2 2
     2    1    4 1
     3    2    3 1
     4    2   16 1
     5    3    6 2
     6    4    5 2
     7    5    6 1
     8    5    8 1
     9    6   10 1
    10    7    8 2
    11    7    9 1
    12    8   15 1
    13    9   10 1
    14    9   13 2
    15   10   11 1
    16   11   12 1
    17   11   14 2
    18   12   13 1
    19   16   17 2
    20   16   21 1
    21   17   18 1
    22   18   19 2
    23   19   20 1
    24   20   21 2
    25    1   22 1
    26    3   23 1
    27    4   24 1
    28    7   25 1
    29   12   26 1
    30   15   27 1
    31   15   28 1
    32   15   29 1
    33   18   30 1
    34   19   31 1
    35   21   32 1
@<TRIPOS>PROPERTY_DATA
  Total_Score	| 5.7608
  Crash		| -0.1201
  Polar		| 2.1602
  FragIndex	| 1
  FragRMSD	| 0.488

