@<TRIPOS>MOLECULE
BindingDB_50379573
 41 44 0 0 0
SMALL
NO_CHARGES


@<TRIPOS>ATOM
1    C         0.6283   37.4708   12.7414  C     
2    C         0.1012   36.4524   11.9153  C     
3    C         0.8394   36.0976   10.7691  C     
4    C         1.8176   38.1367   12.3995  C     
5    C         2.5490   37.8258   11.2221  C     
6    C         2.0488   36.7442   10.4198  C     
7    C         4.3033   38.1663    9.6053  C     
8    C         3.7189   38.5369   10.7679  C     
9    C         2.6570   35.3914    8.4173  C     
10   N         3.6296   35.4912    7.5383  N     
11   N         4.3802   36.5067    7.8131  N     
12   C         3.8573   37.0572    8.9144  C     
13   N         2.7665   36.3705    9.3008  N     
14   O         1.8259   34.5027    8.3674  O     
15   C         4.3452   39.6980   11.4503  C     
16   C        -1.1159   35.7778   12.2326  C     
17   N        -1.5098   34.5931   11.7067  N     
18   C        -2.6921   34.2151   12.2177  C     
19   C        -3.0969   35.1796   13.1314  C     
20   C        -2.1119   36.1560   13.1452  C     
21   N         5.8242   39.6398   11.7406  N     
22   C         6.2516   38.3922   12.4420  C     
23   C         6.7323   39.9496   10.5938  C     
24   H         0.1505   37.7491   13.6020  H     
25   H         0.4679   35.3704   10.1590  H     
26   H         2.1272   38.8479   13.0561  H     
27   H         5.0685   38.6687    9.2149  H     
28   H         3.7667   34.8779    6.7948  H     
29   H         4.1400   40.5986   10.8624  H     
30   H         3.8824   39.9122   12.4107  H     
31   H        -0.9948   34.0600   11.0794  H     
32   H        -3.1896   33.3526   11.9953  H     
33   H        -3.9491   35.1682   13.6929  H     
34   H        -2.1339   36.9992   13.7213  H     
35   H         5.9975   40.4096   12.3939  H     
36   H         5.5782   38.1617   13.2689  H     
37   H         7.2551   38.5285   12.8485  H     
38   H         6.2652   37.5367   11.7668  H     
39   H         6.7077   39.1583    9.8348  H     
40   H         7.7649   40.0648   10.9471  H     
41   H         6.4453   40.9041   10.1407  H     
@<TRIPOS>BOND
     1    1    2 2
     2    1    4 1
     3    2    3 1
     4    2   16 1
     5    3    6 2
     6    4    5 2
     7    5    6 1
     8    5    8 1
     9    6   13 1
    10    7    8 2
    11    7   12 1
    12    8   15 1
    13    9   10 1
    14    9   13 1
    15    9   14 2
    16   10   11 1
    17   11   12 2
    18   12   13 1
    19   15   21 1
    20   16   17 1
    21   16   20 2
    22   17   18 1
    23   18   19 2
    24   19   20 1
    25   21   22 1
    26   21   23 1
    27    1   24 1
    28    3   25 1
    29    4   26 1
    30    7   27 1
    31   10   28 1
    32   15   29 1
    33   15   30 1
    34   17   31 1
    35   18   32 1
    36   19   33 1
    37   20   34 1
    38   21   35 1
    39   22   36 1
    40   22   37 1
    41   22   38 1
    42   23   39 1
    43   23   40 1
    44   23   41 1
@<TRIPOS>PROPERTY_DATA
  Total_Score	| 8.1406
  Crash		| -0.7905
  Polar		| 3.0439
  FragIndex	| 1
  FragRMSD	| 0.301

