@<TRIPOS>MOLECULE
BindingDB_50379580
 53 56 0 0 0
SMALL
NO_CHARGES


@<TRIPOS>ATOM
1    C         0.3655   37.4476   12.7427  C     
2    C        -0.0830   36.3945   11.9190  C     
3    C         0.7127   36.0426   10.8113  C     
4    C         1.5478   38.1553   12.4458  C     
5    C         2.3152   37.8591   11.2904  C     
6    C         1.8956   36.7454   10.4891  C     
7    C         4.1330   38.2237    9.7536  C     
8    C         3.4806   38.5989   10.8849  C     
9    C         2.5937   35.4388    8.4817  C     
10   N         3.6000   35.5599    7.6496  N     
11   N         4.3176   36.5821    7.9672  N     
12   C         3.7373   37.1235    9.0450  C     
13   N         2.6547   36.4047    9.3815  N     
14   O         1.7823   34.5322    8.3839  O     
15   C         4.0341   39.7776   11.5942  C     
16   C        -1.2846   35.6693   12.1825  C     
17   N        -1.6008   34.4652   11.6503  N     
18   C        -2.8126   34.0630   12.0675  C     
19   C        -3.3228   35.0381   12.9064  C     
20   C        -2.3656   36.0463   12.9813  C     
21   N         5.3548   39.6265   12.2763  N     
22   C         6.3278   38.6672   11.6882  C     
23   C         7.7370   38.6351   12.3219  C     
24   C         8.5650   39.9489   12.2266  C     
25   N         8.5129   40.9122   13.3881  N     
26   C         8.1090   40.3534   14.7085  C     
27   C         9.7958   41.6739   13.5139  C     
28   H        -0.1512   37.7190   13.5827  H     
29   H         0.3943   35.2920   10.2087  H     
30   H         1.8160   38.9007   13.0862  H     
31   H         4.8948   38.7437    9.3929  H     
32   H         3.7856   34.9461    6.9186  H     
33   H         4.1393   40.6085   10.8908  H     
34   H         3.3282   40.1488   12.3336  H     
35   H        -1.0287   33.9404   11.0672  H     
36   H        -3.2707   33.1863   11.8091  H     
37   H        -4.2239   35.0233   13.3808  H     
38   H        -2.4640   36.9092   13.5255  H     
39   H         5.7952   40.5519   12.2780  H     
40   H         5.1757   39.3482   13.2482  H     
41   H         5.8936   37.6634   11.7962  H     
42   H         6.4611   38.8632   10.6121  H     
43   H         7.6665   38.2966   13.3545  H     
44   H         8.2935   37.8603   11.7823  H     
45   H         9.6158   39.6658   12.0523  H     
46   H         8.2256   40.4881   11.3333  H     
47   H         7.8135   41.6065   13.1513  H     
48   H         7.0587   40.0753   14.6844  H     
49   H         8.2059   41.0949   15.5042  H     
50   H         8.7065   39.4757   14.9763  H     
51   H        10.6114   41.0191   13.8476  H     
52   H         9.6952   42.4911   14.2366  H     
53   H        10.0850   42.1217   12.5666  H     
@<TRIPOS>BOND
     1    1    2 2
     2    1    4 1
     3    2    3 1
     4    2   16 1
     5    3    6 2
     6    4    5 2
     7    5    6 1
     8    5    8 1
     9    6   13 1
    10    7    8 2
    11    7   12 1
    12    8   15 1
    13    9   10 1
    14    9   13 1
    15    9   14 2
    16   10   11 1
    17   11   12 2
    18   12   13 1
    19   15   21 1
    20   16   17 1
    21   16   20 2
    22   17   18 1
    23   18   19 2
    24   19   20 1
    25   21   22 1
    26   22   23 1
    27   23   24 1
    28   24   25 1
    29   25   26 1
    30   25   27 1
    31    1   28 1
    32    3   29 1
    33    4   30 1
    34    7   31 1
    35   10   32 1
    36   15   33 1
    37   15   34 1
    38   17   35 1
    39   18   36 1
    40   19   37 1
    41   20   38 1
    42   21   39 1
    43   21   40 1
    44   22   41 1
    45   22   42 1
    46   23   43 1
    47   23   44 1
    48   24   45 1
    49   24   46 1
    50   25   47 1
    51   26   48 1
    52   26   49 1
    53   26   50 1
    54   27   51 1
    55   27   52 1
    56   27   53 1
@<TRIPOS>PROPERTY_DATA
  Total_Score	| 11.2987
  Crash		| -2.1385
  Polar		| 6.5847
  FragIndex	| 1
  FragRMSD	| 0.236

