@<TRIPOS>MOLECULE
BindingDB_50325169
 38 41 0 0 0
SMALL
NO_CHARGES


@<TRIPOS>ATOM
1    C         0.4605   37.6017   12.7440  C     
2    C        -0.0310   36.4600   12.0540  C     
3    C         0.7622   36.0436   10.9473  C     
4    C         1.6543   38.2434   12.3764  C     
5    C         2.4104   37.8428   11.2509  C     
6    C         1.9286   36.7213   10.5101  C     
7    C         4.2502   38.0696    9.7104  C     
8    C         3.6076   38.5031   10.8223  C     
9    C         3.7609   36.9946    9.0029  C     
10   N         2.6414   36.3419    9.3781  N     
11   C         2.4714   35.4050    8.4654  C     
12   N         3.4494   35.4710    7.5894  N     
13   N         4.2540   36.4364    7.8883  N     
14   O         1.5713   34.5844    8.3789  O     
15   C         4.1655   39.6481   11.5449  C     
16   C        -1.2537   35.7664   12.4591  C     
17   C        -1.8822   35.9783   13.7221  C     
18   C        -3.0688   35.3209   14.0982  C     
19   C        -3.6897   34.3841   13.2455  C     
20   C        -3.0637   34.1202   12.0114  C     
21   C        -1.9030   34.8108   11.6250  C     
22   C        -4.9417   33.6823   13.6563  C     
23   O        -4.6278   32.4986   14.3843  O     
24   H        -0.0382   38.0083   13.5371  H     
25   H         0.5052   35.2026   10.4467  H     
26   H         1.9534   39.0269   12.9522  H     
27   H         5.0742   38.5124    9.3769  H     
28   H         3.5540   34.8764    6.8286  H     
29   H         3.4336   40.4557   11.5564  H     
30   H         5.0850   40.0534   11.1082  H     
31   H         4.3980   39.3545   12.5701  H     
32   H        -1.4884   36.6101   14.4168  H     
33   H        -3.4793   35.5350   15.0099  H     
34   H        -3.4459   33.4136   11.3756  H     
35   H        -1.5572   34.5920   10.6953  H     
36   H        -5.5544   34.3215   14.2978  H     
37   H        -5.5478   33.4112   12.7852  H     
38   H        -4.2851   31.8771   13.7079  H     
@<TRIPOS>BOND
     1    1    2 2
     2    1    4 1
     3    2    3 1
     4    2   16 1
     5    3    6 2
     6    4    5 2
     7    5    6 1
     8    5    8 1
     9    6   10 1
    10    7    8 2
    11    7    9 1
    12    8   15 1
    13    9   10 1
    14    9   13 2
    15   10   11 1
    16   11   12 1
    17   11   14 2
    18   12   13 1
    19   16   17 2
    20   16   21 1
    21   17   18 1
    22   18   19 2
    23   19   20 1
    24   19   22 1
    25   20   21 2
    26   22   23 1
    27    1   24 1
    28    3   25 1
    29    4   26 1
    30    7   27 1
    31   12   28 1
    32   15   29 1
    33   15   30 1
    34   15   31 1
    35   17   32 1
    36   18   33 1
    37   20   34 1
    38   21   35 1
    39   22   36 1
    40   22   37 1
    41   23   38 1
@<TRIPOS>PROPERTY_DATA
  Total_Score	| 6.7197
  Crash		| -0.5790
  Polar		| 3.2121
  FragIndex	| 1
  FragRMSD	| 0.701

