@<TRIPOS>MOLECULE
BindingDB_50219562
 41 43 0 0 0
SMALL
NO_CHARGES


@<TRIPOS>ATOM
1    S        44.4316   14.2812    1.1393  S     
2    C        44.6535   15.7467    2.0058  C     
3    C        45.6250   15.4715    2.9743  C     
4    C        46.0783   14.1359    3.0075  C     
5    C        45.5350   13.2889    2.0205  C     
6    C        43.9770   16.9510    1.7842  C     
7    O        42.9697   17.0177    0.8884  O     
8    O        44.2369   18.0602    2.5138  O     
9    C        45.7680   11.9095    1.7461  C     
10   C        46.9947   11.2816    2.0835  C     
11   C        47.2253    9.9006    1.8861  C     
12   C        46.2207    9.1469    1.2300  C     
13   C        45.0177    9.7554    0.8291  C     
14   C        44.7842   11.1155    1.0953  C     
15   Br       47.2169   13.6448    4.3987  Br    
16   O        46.0865   16.3921    3.8638  O     
17   C        47.2293   17.1319    3.4019  C     
18   C        48.0269   17.4477    4.5903  C     
19   O        49.3116   17.0346    4.6723  O     
20   O        47.4268   17.9569    5.6906  O     
21   N        48.4141    9.4269    2.3945  N     
22   C        48.9574    8.2076    2.4427  C     
23   O        48.3949    7.2731    1.8878  O     
24   C        50.1620    7.9571    3.1276  C     
25   C        50.9662    9.0018    3.6650  C     
26   C        52.1770    8.7429    4.3285  C     
27   C        52.6268    7.4198    4.4749  C     
28   C        51.8521    6.3618    3.9724  C     
29   C        50.6384    6.6279    3.3112  C     
30   H        47.7542   11.8452    2.4743  H     
31   H        46.3304    8.1543    1.0372  H     
32   H        44.2966    9.2011    0.3543  H     
33   H        43.8817   11.5153    0.8185  H     
34   H        47.8547   16.5924    2.6757  H     
35   H        46.8924   18.0616    2.9403  H     
36   H        48.9328   10.1149    2.8337  H     
37   H        50.6930    9.9778    3.5717  H     
38   H        52.7379    9.5139    4.7017  H     
39   H        53.5089    7.2287    4.9538  H     
40   H        52.1775    5.3998    4.0885  H     
41   H        50.1071    5.8259    2.9606  H     
@<TRIPOS>BOND
     1    1    2 1
     2    1    5 1
     3    2    3 2
     4    2    6 1
     5    3    4 1
     6    3   16 1
     7    4    5 2
     8    4   15 1
     9    5    9 1
    10    6    7 2
    11    6    8 1
    12    9   10 2
    13    9   14 1
    14   10   11 1
    15   11   12 2
    16   11   21 1
    17   12   13 1
    18   13   14 2
    19   16   17 1
    20   17   18 1
    21   18   19 1
    22   18   20 2
    23   21   22 am
    24   22   23 2
    25   22   24 1
    26   24   25 2
    27   24   29 1
    28   25   26 1
    29   26   27 2
    30   27   28 1
    31   28   29 2
    32   10   30 1
    33   12   31 1
    34   13   32 1
    35   14   33 1
    36   17   34 1
    37   17   35 1
    38   21   36 1
    39   25   37 1
    40   26   38 1
    41   27   39 1
    42   28   40 1
    43   29   41 1
@<TRIPOS>PROPERTY_DATA
  Total_Score	| 11.6809
  Crash		| -2.3288
  Polar		| 8.7944
  FragIndex	| 1
  FragRMSD	| 0.645

