@<TRIPOS>MOLECULE
BindingDB_50219579
 37 38 0 0 0
SMALL
NO_CHARGES


@<TRIPOS>ATOM
1    S        44.4402   14.2593    1.2211  S     
2    C        44.6130   15.7240    2.1060  C     
3    C        45.6136   15.4876    3.0565  C     
4    C        46.1233   14.1757    3.0660  C     
5    C        45.6124   13.3207    2.0689  C     
6    C        43.8968   16.9109    1.8706  C     
7    O        44.1057   18.0268    2.6023  O     
8    O        42.9549   16.9689    0.9070  O     
9    C        45.9368   11.9630    1.7670  C     
10   C        47.2565   11.4659    1.9099  C     
11   C        47.5914   10.1119    1.6645  C     
12   C        46.5745    9.2619    1.1712  C     
13   C        45.2708    9.7422    0.9698  C     
14   C        44.9475   11.0737    1.2811  C     
15   Br       47.3334   13.6838    4.3925  Br    
16   O        46.0455   16.4221    3.9489  O     
17   C        47.1724   17.1923    3.4893  C     
18   C        48.0001   17.4936    4.6642  C     
19   O        49.2792   17.0611    4.7176  O     
20   O        47.4206   17.9458    5.7975  O     
21   N        48.8970    9.7530    1.9075  N     
22   C        49.4924    8.5656    1.9758  C     
23   C        50.9213    8.5147    2.2412  C     
24   O        48.8912    7.5092    1.8358  O     
25   C        51.2598    8.5384    3.7480  C     
26   H        48.0068   12.1099    2.1804  H     
27   H        46.7687    8.2901    0.9330  H     
28   H        44.5483    9.1178    0.6055  H     
29   H        43.9787   11.3828    1.1543  H     
30   H        47.7917   16.6714    2.7484  H     
31   H        46.8226   18.1255    3.0454  H     
32   H        49.4871   10.4980    2.1022  H     
33   H        51.3626    7.6067    1.8158  H     
34   H        51.4047    9.3663    1.7529  H     
35   H        50.8986    9.4573    4.2157  H     
36   H        52.3426    8.4895    3.8870  H     
37   H        50.8043    7.6844    4.2574  H     
@<TRIPOS>BOND
     1    1    2 1
     2    1    5 1
     3    2    3 2
     4    2    6 1
     5    3    4 1
     6    3   16 1
     7    4    5 2
     8    4   15 1
     9    5    9 1
    10    6    7 2
    11    6    8 1
    12    9   10 2
    13    9   14 1
    14   10   11 1
    15   11   12 2
    16   11   21 1
    17   12   13 1
    18   13   14 2
    19   16   17 1
    20   17   18 1
    21   18   19 1
    22   18   20 2
    23   21   22 am
    24   22   23 1
    25   22   24 2
    26   23   25 1
    27   10   26 1
    28   12   27 1
    29   13   28 1
    30   14   29 1
    31   17   30 1
    32   17   31 1
    33   21   32 1
    34   23   33 1
    35   23   34 1
    36   25   35 1
    37   25   36 1
    38   25   37 1
@<TRIPOS>PROPERTY_DATA
  Total_Score	| 11.6574
  Crash		| -1.3369
  Polar		| 9.2368
  FragIndex	| 1
  FragRMSD	| 0.768

