@<TRIPOS>MOLECULE
BindingDB_50219603
 29 30 0 0 0
SMALL
NO_CHARGES


@<TRIPOS>ATOM
1    S        44.4505   14.3003    1.2381  S     
2    C        44.6206   15.7583    2.1363  C     
3    C        45.6135   15.5236    3.1000  C     
4    C        46.1313   14.2151    3.1053  C     
5    C        45.6153   13.3740    2.1001  C     
6    C        43.9237   16.9360    1.8607  C     
7    O        42.9955   16.9735    0.8848  O     
8    O        44.1600   18.0723    2.5577  O     
9    C        45.9406   12.0311    1.7896  C     
10   C        47.2772   11.5669    1.8873  C     
11   C        47.5989   10.2288    1.5976  C     
12   C        46.5920    9.3487    1.1583  C     
13   C        45.2700    9.8032    1.0201  C     
14   C        44.9431   11.1343    1.3397  C     
15   Br       47.3527   13.6905    4.4086  Br    
16   O        46.0163   16.4495    4.0029  O     
17   C        47.0746   17.3087    3.5343  C     
18   C        47.9458   17.5551    4.6824  C     
19   O        49.2223   17.0912    4.6863  O     
20   O        47.4060   17.9565    5.8567  O     
21   N        48.8585    9.7906    1.7538  N     
22   H        48.0306   12.2137    2.1388  H     
23   H        46.8147    8.3763    0.9467  H     
24   H        44.5397    9.1654    0.7012  H     
25   H        43.9666   11.4322    1.2543  H     
26   H        47.6744   16.8966    2.7175  H     
27   H        46.6422   18.2538    3.1957  H     
28   H        49.0864    8.8740    1.5391  H     
29   H        49.5344   10.3817    2.1227  H     
@<TRIPOS>BOND
     1    1    2 1
     2    1    5 1
     3    2    3 2
     4    2    6 1
     5    3    4 1
     6    3   16 1
     7    4    5 2
     8    4   15 1
     9    5    9 1
    10    6    7 2
    11    6    8 1
    12    9   10 2
    13    9   14 1
    14   10   11 1
    15   11   12 2
    16   11   21 1
    17   12   13 1
    18   13   14 2
    19   16   17 1
    20   17   18 1
    21   18   19 1
    22   18   20 2
    23   10   22 1
    24   12   23 1
    25   13   24 1
    26   14   25 1
    27   17   26 1
    28   17   27 1
    29   21   28 1
    30   21   29 1
@<TRIPOS>PROPERTY_DATA
  Total_Score	| 11.1799
  Crash		| -1.1732
  Polar		| 9.3428
  FragIndex	| 1
  FragRMSD	| 0.121

