@<TRIPOS>MOLECULE
BindingDB_50219590
 43 45 0 0 0
SMALL
NO_CHARGES


@<TRIPOS>ATOM
1    S        44.4475   14.2578    1.2466  S     
2    C        44.6241   15.7466    2.0824  C     
3    C        45.5859   15.5180    3.0664  C     
4    C        46.0856   14.2023    3.1301  C     
5    C        45.5822   13.3189    2.1508  C     
6    C        43.9213   16.9332    1.8128  C     
7    O        42.9865   16.9783    0.8448  O     
8    O        44.1193   18.0548    2.5404  O     
9    C        45.8946   11.9472    1.8787  C     
10   C        47.1650   11.3891    2.1532  C     
11   C        47.4915   10.0397    1.8622  C     
12   C        46.5299    9.2604    1.1768  C     
13   C        45.2552    9.7835    0.8957  C     
14   C        44.9368   11.0993    1.2663  C     
15   Br       47.2660   13.7680    4.5081  Br    
16   O        45.9936   16.4731    3.9582  O     
17   C        47.1157   17.2685    3.5262  C     
18   C        47.9449   17.5171    4.7098  C     
19   O        49.2185   17.0701    4.7599  O     
20   O        47.3732   17.9916    5.8360  O     
21   N        48.7261    9.6167    2.2547  N     
22   C        49.4165    8.3751    2.0062  C     
23   O        50.4573    7.2801    4.5433  O     
24   C        51.0474    8.4804    4.0052  C     
25   C        50.9045    8.5469    2.4613  C     
26   C        48.8356    7.1050    2.6956  C     
27   C        49.0636    7.1212    4.2255  C     
28   H        47.9077   11.9831    2.5219  H     
29   H        46.7314    8.3203    0.8595  H     
30   H        44.5619    9.2011    0.4186  H     
31   H        43.9869   11.4343    1.0707  H     
32   H        47.7304   16.7993    2.7464  H     
33   H        46.7509   18.2236    3.1423  H     
34   H        49.2524   10.2887    2.7223  H     
35   H        49.4191    8.2217    0.9197  H     
36   H        50.5878    9.3605    4.4652  H     
37   H        52.1059    8.4843    4.2718  H     
38   H        51.5156    7.7558    2.0190  H     
39   H        51.3018    9.5039    2.1061  H     
40   H        47.7799    6.9786    2.5215  H     
41   H        49.3329    6.2181    2.2849  H     
42   H        48.7300    6.1692    4.6504  H     
43   H        48.4710    7.9132    4.6890  H     
@<TRIPOS>BOND
     1    1    2 1
     2    1    5 1
     3    2    3 2
     4    2    6 1
     5    3    4 1
     6    3   16 1
     7    4    5 2
     8    4   15 1
     9    5    9 1
    10    6    7 2
    11    6    8 1
    12    9   10 2
    13    9   14 1
    14   10   11 1
    15   11   12 2
    16   11   21 1
    17   12   13 1
    18   13   14 2
    19   16   17 1
    20   17   18 1
    21   18   19 1
    22   18   20 2
    23   21   22 1
    24   22   25 1
    25   22   26 1
    26   23   24 1
    27   23   27 1
    28   24   25 1
    29   26   27 1
    30   10   28 1
    31   12   29 1
    32   13   30 1
    33   14   31 1
    34   17   32 1
    35   17   33 1
    36   21   34 1
    37   22   35 1
    38   24   36 1
    39   24   37 1
    40   25   38 1
    41   25   39 1
    42   26   40 1
    43   26   41 1
    44   27   42 1
    45   27   43 1
@<TRIPOS>PROPERTY_DATA
  Total_Score	| 12.7264
  Crash		| -1.4848
  Polar		| 9.2356
  FragIndex	| 1
  FragRMSD	| 0.497

