@<TRIPOS>MOLECULE
BindingDB_50219587
 42 44 0 0 0
SMALL
NO_CHARGES


@<TRIPOS>ATOM
1    S        44.5389   14.2770    1.1764  S     
2    C        44.6694   15.7516    2.0474  C     
3    C        45.6187   15.5262    3.0450  C     
4    C        46.1329   14.2143    3.1035  C     
5    C        45.6542   13.3375    2.1048  C     
6    C        43.9560   16.9302    1.8009  C     
7    O        42.9794   16.9600    0.8767  O     
8    O        44.1400   18.0367    2.5549  O     
9    C        45.9589   11.9636    1.8500  C     
10   C        47.2335   11.4165    2.1487  C     
11   C        47.5383   10.0525    1.9722  C     
12   C        46.5601    9.2295    1.3615  C     
13   C        45.3092    9.7561    0.9923  C     
14   C        45.0053   11.0991    1.2560  C     
15   Br       47.2521   13.8022    4.5401  Br    
16   O        46.0055   16.4804    3.9354  O     
17   C        47.1144   17.2925    3.4958  C     
18   C        47.9469   17.5243    4.6704  C     
19   O        49.2210   17.0720    4.6979  O     
20   O        47.3901   17.9963    5.8097  O     
21   N        48.7624    9.6456    2.4089  N     
22   C        49.1753    8.3442    2.8410  C     
23   C        50.0767    7.6812    1.7820  C     
24   C        51.4767    8.2705    2.0343  C     
25   C        51.5190    8.6842    3.5215  C     
26   C        50.0997    8.4390    4.0711  C     
27   H        47.9833   12.0186    2.4809  H     
28   H        46.7398    8.2474    1.1670  H     
29   H        44.6130    9.1476    0.5553  H     
30   H        44.0714   11.4362    1.0067  H     
31   H        47.7267   16.8319    2.7031  H     
32   H        46.7360   18.2449    3.1239  H     
33   H        49.4605   10.3245    2.4113  H     
34   H        48.3245    7.7058    3.0914  H     
35   H        50.0922    6.5992    1.9408  H     
36   H        49.7287    7.8776    0.7633  H     
37   H        52.2535    7.5377    1.8019  H     
38   H        51.6188    9.1476    1.4012  H     
39   H        52.2519    8.0953    4.0698  H     
40   H        51.7806    9.7432    3.6083  H     
41   H        49.7817    9.2296    4.7572  H     
42   H        50.0789    7.4880    4.6086  H     
@<TRIPOS>BOND
     1    1    2 1
     2    1    5 1
     3    2    3 2
     4    2    6 1
     5    3    4 1
     6    3   16 1
     7    4    5 2
     8    4   15 1
     9    5    9 1
    10    6    7 2
    11    6    8 1
    12    9   10 2
    13    9   14 1
    14   10   11 1
    15   11   12 2
    16   11   21 1
    17   12   13 1
    18   13   14 2
    19   16   17 1
    20   17   18 1
    21   18   19 1
    22   18   20 2
    23   21   22 1
    24   22   23 1
    25   22   26 1
    26   23   24 1
    27   24   25 1
    28   25   26 1
    29   10   27 1
    30   12   28 1
    31   13   29 1
    32   14   30 1
    33   17   31 1
    34   17   32 1
    35   21   33 1
    36   22   34 1
    37   23   35 1
    38   23   36 1
    39   24   37 1
    40   24   38 1
    41   25   39 1
    42   25   40 1
    43   26   41 1
    44   26   42 1
@<TRIPOS>PROPERTY_DATA
  Total_Score	| 13.0767
  Crash		| -1.3949
  Polar		| 9.2126
  FragIndex	| 1
  FragRMSD	| 0.599

