@<TRIPOS>MOLECULE
BindingDB_50219597
 45 47 0 0 0
SMALL
NO_CHARGES


@<TRIPOS>ATOM
1    S        44.4406   14.2774    1.1321  S     
2    C        44.6208   15.7170    2.0614  C     
3    C        45.6147   15.4599    3.0100  C     
4    C        46.1290   14.1465    2.9878  C     
5    C        45.6097   13.3280    1.9643  C     
6    C        43.9176   16.9097    1.8550  C     
7    O        44.1469   18.0125    2.6005  O     
8    O        42.9827   16.9921    0.8883  O     
9    C        45.9493   11.9879    1.6422  C     
10   C        47.2761   11.5311    1.7626  C     
11   C        47.6204   10.1712    1.6016  C     
12   C        46.6050    9.2711    1.1936  C     
13   C        45.2949    9.7251    0.9758  C     
14   C        44.9610   11.0672    1.2213  C     
15   Br       47.3338   13.6144    4.3056  Br    
16   O        46.0498   16.3614    3.9351  O     
17   C        47.1359   17.1965    3.4825  C     
18   C        47.9580   17.4957    4.6603  C     
19   O        47.3735   17.9396    5.7900  O     
20   O        49.2413   17.0859    4.7169  O     
21   N        48.8888    9.8236    1.9338  N     
22   C        49.3882    8.5221    2.2599  C     
23   C        50.9443    8.5355    2.1556  C     
24   C        51.5767    7.2118    2.6532  C     
25   C        51.1195    6.8558    4.0870  C     
26   C        49.5806    6.8131    4.1955  C     
27   C        48.9389    8.1383    3.6994  C     
28   H        48.0220   12.1971    1.9991  H     
29   H        46.8122    8.2814    1.0475  H     
30   H        44.5740    9.0741    0.6516  H     
31   H        43.9850   11.3607    1.1105  H     
32   H        47.7728   16.7432    2.7098  H     
33   H        46.7335   18.1319    3.0805  H     
34   H        49.4791   10.5643    2.1655  H     
35   H        49.0133    7.7862    1.5442  H     
36   H        51.2435    8.7016    1.1171  H     
37   H        51.3429    9.3655    2.7532  H     
38   H        51.3018    6.3986    1.9723  H     
39   H        52.6674    7.3046    2.6395  H     
40   H        51.5318    5.8832    4.3722  H     
41   H        51.5129    7.6042    4.7888  H     
42   H        49.1928    5.9816    3.6008  H     
43   H        49.2964    6.6447    5.2374  H     
44   H        49.2137    8.9423    4.3937  H     
45   H        47.8524    8.0275    3.7362  H     
@<TRIPOS>BOND
     1    1    2 1
     2    1    5 1
     3    2    3 2
     4    2    6 1
     5    3    4 1
     6    3   16 1
     7    4    5 2
     8    4   15 1
     9    5    9 1
    10    6    7 2
    11    6    8 1
    12    9   10 2
    13    9   14 1
    14   10   11 1
    15   11   12 2
    16   11   21 1
    17   12   13 1
    18   13   14 2
    19   16   17 1
    20   17   18 1
    21   18   19 1
    22   18   20 2
    23   21   22 1
    24   22   23 1
    25   22   27 1
    26   23   24 1
    27   24   25 1
    28   25   26 1
    29   26   27 1
    30   10   28 1
    31   12   29 1
    32   13   30 1
    33   14   31 1
    34   17   32 1
    35   17   33 1
    36   21   34 1
    37   22   35 1
    38   23   36 1
    39   23   37 1
    40   24   38 1
    41   24   39 1
    42   25   40 1
    43   25   41 1
    44   26   42 1
    45   26   43 1
    46   27   44 1
    47   27   45 1
@<TRIPOS>PROPERTY_DATA
  Total_Score	| 12.7978
  Crash		| -1.2360
  Polar		| 9.2748
  FragIndex	| 1
  FragRMSD	| 0.902

