@<TRIPOS>MOLECULE
BindingDB_50219601
 48 50 0 0 0
SMALL
NO_CHARGES


@<TRIPOS>ATOM
1    S        44.3940   14.2770    1.1957  S     
2    C        44.5822   15.7388    2.0800  C     
3    C        45.5662   15.4926    3.0442  C     
4    C        46.0853   14.1815    3.0371  C     
5    C        45.5622   13.3321    2.0438  C     
6    C        43.8717   16.9281    1.8429  C     
7    O        44.0704   18.0348    2.5900  O     
8    O        42.9528   17.0005    0.8576  O     
9    C        45.9115   11.9929    1.7138  C     
10   C        47.2597   11.5596    1.7190  C     
11   C        47.6318   10.2551    1.3090  C     
12   C        46.6052    9.3799    0.8799  C     
13   C        45.2628    9.7909    0.8588  C     
14   C        44.9182   11.0873    1.2771  C     
15   Br       47.3151   13.6529    4.3379  Br    
16   O        45.9793   16.4232    3.9520  O     
17   C        47.0763   17.2508    3.5175  C     
18   C        47.8972   17.5152    4.7076  C     
19   O        47.3216   17.9969    5.8304  O     
20   O        49.1811   17.0888    4.7632  O     
21   N        48.9518    9.9145    1.3513  N     
22   C        49.6054    8.8103    0.7093  C     
23   C        50.0780    7.6370    1.6298  C     
24   C        51.5147    7.8181    2.2121  C     
25   C        51.5682    8.7907    3.4172  C     
26   C        50.5872    8.3542    4.5337  C     
27   C        49.1417    8.1795    3.9986  C     
28   C        49.0798    7.2377    2.7619  C     
29   H        47.9977   12.2190    1.9672  H     
30   H        46.8180    8.4224    0.5845  H     
31   H        44.5399    9.1456    0.5327  H     
32   H        43.9294   11.3517    1.2648  H     
33   H        47.6969   16.7832    2.7468  H     
34   H        46.7024   18.2029    3.1334  H     
35   H        49.5406   10.5538    1.7988  H     
36   H        48.9703    8.4031   -0.0842  H     
37   H        50.4761    9.2262    0.1860  H     
38   H        50.1487    6.7633    0.9683  H     
39   H        51.8865    6.8455    2.5477  H     
40   H        52.1963    8.1703    1.4343  H     
41   H        52.5827    8.8084    3.8263  H     
42   H        51.3221    9.8051    3.0842  H     
43   H        50.9382    7.4120    4.9743  H     
44   H        50.5881    9.1175    5.3165  H     
45   H        48.5149    7.7601    4.7959  H     
46   H        48.7462    9.1608    3.7193  H     
47   H        48.0565    7.2263    2.3712  H     
48   H        49.3071    6.2187    3.0886  H     
@<TRIPOS>BOND
     1    1    2 1
     2    1    5 1
     3    2    3 2
     4    2    6 1
     5    3    4 1
     6    3   16 1
     7    4    5 2
     8    4   15 1
     9    5    9 1
    10    6    7 2
    11    6    8 1
    12    9   10 2
    13    9   14 1
    14   10   11 1
    15   11   12 2
    16   11   21 1
    17   12   13 1
    18   13   14 2
    19   16   17 1
    20   17   18 1
    21   18   19 1
    22   18   20 2
    23   21   22 1
    24   22   23 1
    25   23   24 1
    26   23   28 1
    27   24   25 1
    28   25   26 1
    29   26   27 1
    30   27   28 1
    31   10   29 1
    32   12   30 1
    33   13   31 1
    34   14   32 1
    35   17   33 1
    36   17   34 1
    37   21   35 1
    38   22   36 1
    39   22   37 1
    40   23   38 1
    41   24   39 1
    42   24   40 1
    43   25   41 1
    44   25   42 1
    45   26   43 1
    46   26   44 1
    47   27   45 1
    48   27   46 1
    49   28   47 1
    50   28   48 1
@<TRIPOS>PROPERTY_DATA
  Total_Score	| 13.1263
  Crash		| -1.6093
  Polar		| 9.1350
  FragIndex	| 1
  FragRMSD	| 1.215

