@<TRIPOS>MOLECULE
BindingDB_50219574
 42 44 0 0 0
SMALL
NO_CHARGES


@<TRIPOS>ATOM
1    S        44.3675   14.3186    1.2107  S     
2    C        44.5917   15.7609    2.1186  C     
3    C        45.5869   15.4829    3.0596  C     
4    C        46.0684   14.1584    3.0366  C     
5    C        45.5237   13.3358    2.0284  C     
6    C        43.9057   16.9635    1.9057  C     
7    O        44.1443   18.0634    2.6524  O     
8    O        42.9507   17.0432    0.9582  O     
9    C        45.8017   11.9797    1.6975  C     
10   C        47.0964   11.4376    1.8801  C     
11   C        47.3597   10.0643    1.6975  C     
12   C        46.3309    9.2334    1.1944  C     
13   C        45.0622    9.7704    0.9146  C     
14   C        44.7929   11.1252    1.1871  C     
15   Br       47.2695   13.6223    4.3570  Br    
16   O        46.0493   16.3931    3.9666  O     
17   C        47.1716   17.1743    3.5124  C     
18   C        47.9974   17.4535    4.6872  C     
19   O        47.4339   17.9418    5.8167  O     
20   O        49.2871   17.0443    4.7269  O     
21   N        48.5856    9.6310    2.0775  N     
22   C        48.9976    8.2789    2.2923  C     
23   C        50.2631    8.1963    3.0727  C     
24   C        50.5120    9.0912    4.1430  C     
25   C        51.7070    9.0218    4.8788  C     
26   C        52.6406    8.0110    4.5983  C     
27   C        52.3849    7.0749    3.5799  C     
28   C        51.2069    7.1718    2.8132  C     
29   H        47.8633   12.0500    2.1835  H     
30   H        46.5015    8.2400    1.0213  H     
31   H        44.3248    9.1691    0.5392  H     
32   H        43.8438   11.4699    1.0264  H     
33   H        47.7887   16.6669    2.7591  H     
34   H        46.8157   18.1157    3.0883  H     
35   H        49.2127   10.3168    2.3587  H     
36   H        48.2294    7.7476    2.8620  H     
37   H        49.1013    7.7928    1.3148  H     
38   H        49.8347    9.8143    4.3947  H     
39   H        51.8867    9.6903    5.6308  H     
40   H        53.4991    7.9476    5.1497  H     
41   H        53.0528    6.3209    3.4048  H     
42   H        51.0367    6.4828    2.0776  H     
@<TRIPOS>BOND
     1    1    2 1
     2    1    5 1
     3    2    3 2
     4    2    6 1
     5    3    4 1
     6    3   16 1
     7    4    5 2
     8    4   15 1
     9    5    9 1
    10    6    7 2
    11    6    8 1
    12    9   10 2
    13    9   14 1
    14   10   11 1
    15   11   12 2
    16   11   21 1
    17   12   13 1
    18   13   14 2
    19   16   17 1
    20   17   18 1
    21   18   19 1
    22   18   20 2
    23   21   22 1
    24   22   23 1
    25   23   24 2
    26   23   28 1
    27   24   25 1
    28   25   26 2
    29   26   27 1
    30   27   28 2
    31   10   29 1
    32   12   30 1
    33   13   31 1
    34   14   32 1
    35   17   33 1
    36   17   34 1
    37   21   35 1
    38   22   36 1
    39   22   37 1
    40   24   38 1
    41   25   39 1
    42   26   40 1
    43   27   41 1
    44   28   42 1
@<TRIPOS>PROPERTY_DATA
  Total_Score	| 13.2289
  Crash		| -1.6839
  Polar		| 9.2265
  FragIndex	| 1
  FragRMSD	| 1.215

