@<TRIPOS>MOLECULE
BindingDB_50219578
 48 50 0 0 0
SMALL
NO_CHARGES


@<TRIPOS>ATOM
1    S        44.4330   14.2850    1.2419  S     
2    C        44.5799   15.7486    2.1315  C     
3    C        45.5720   15.5238    3.0940  C     
4    C        46.1100   14.2201    3.0976  C     
5    C        45.6155   13.3636    2.0928  C     
6    C        43.8488   16.9215    1.8966  C     
7    O        42.9260   16.9715    0.9141  O     
8    O        44.0539   18.0419    2.6223  O     
9    C        45.9580   12.0153    1.7885  C     
10   C        47.2778   11.5276    1.9620  C     
11   C        47.6049   10.1657    1.7739  C     
12   C        46.6004    9.2930    1.2972  C     
13   C        45.3079    9.7719    1.0288  C     
14   C        44.9844   11.1140    1.2918  C     
15   Br       47.3138   13.7338    4.4359  Br    
16   O        45.9777   16.4698    3.9888  O     
17   C        47.0849   17.2794    3.5383  C     
18   C        47.9444   17.5196    4.7014  C     
19   O        49.2277   17.0954    4.7099  O     
20   O        47.4049   17.9985    5.8435  O     
21   N        48.8617    9.7793    2.1211  N     
22   C        49.3453    8.4513    2.3802  C     
23   C        50.9008    8.5024    2.3972  C     
24   C        51.6237    7.1690    2.7364  C     
25   C        48.7198    7.9517    3.7228  C     
26   C        51.5272    6.7609    4.2318  C     
27   C        48.8958    6.4329    3.9908  C     
28   C        50.2324    6.0160    4.6616  C     
29   H        48.0190   12.1700    2.2485  H     
30   H        46.7985    8.3051    1.1339  H     
31   H        44.5932    9.1344    0.6729  H     
32   H        44.0188   11.4167    1.1385  H     
33   H        47.6801   16.8198    2.7396  H     
34   H        46.7137   18.2380    3.1750  H     
35   H        49.4653   10.4945    2.3765  H     
36   H        49.0428    7.7908    1.5607  H     
37   H        51.2384    8.8172    1.4051  H     
38   H        51.2335    9.2721    3.1002  H     
39   H        51.2493    6.3639    2.0999  H     
40   H        52.6842    7.3040    2.4973  H     
41   H        49.1277    8.5280    4.5580  H     
42   H        47.6434    8.1451    3.7047  H     
43   H        52.3752    6.1081    4.4634  H     
44   H        51.6497    7.6536    4.8515  H     
45   H        48.0844    6.1033    4.6464  H     
46   H        48.7779    5.8854    3.0526  H     
47   H        50.3717    4.9477    4.4780  H     
48   H        50.1280    6.1366    5.7434  H     
@<TRIPOS>BOND
     1    1    2 1
     2    1    5 1
     3    2    3 2
     4    2    6 1
     5    3    4 1
     6    3   16 1
     7    4    5 2
     8    4   15 1
     9    5    9 1
    10    6    7 2
    11    6    8 1
    12    9   10 2
    13    9   14 1
    14   10   11 1
    15   11   12 2
    16   11   21 1
    17   12   13 1
    18   13   14 2
    19   16   17 1
    20   17   18 1
    21   18   19 1
    22   18   20 2
    23   21   22 1
    24   22   23 1
    25   22   25 1
    26   23   24 1
    27   24   26 1
    28   25   27 1
    29   26   28 1
    30   27   28 1
    31   10   29 1
    32   12   30 1
    33   13   31 1
    34   14   32 1
    35   17   33 1
    36   17   34 1
    37   21   35 1
    38   22   36 1
    39   23   37 1
    40   23   38 1
    41   24   39 1
    42   24   40 1
    43   25   41 1
    44   25   42 1
    45   26   43 1
    46   26   44 1
    47   27   45 1
    48   27   46 1
    49   28   47 1
    50   28   48 1
@<TRIPOS>PROPERTY_DATA
  Total_Score	| 13.2222
  Crash		| -1.4361
  Polar		| 9.2079
  FragIndex	| 1
  FragRMSD	| 0.259

