@<TRIPOS>MOLECULE
BindingDB_50219594
 49 51 0 0 0
SMALL
NO_CHARGES


@<TRIPOS>ATOM
1    S        44.5672   14.2941    1.0081  S     
2    C        44.7264   15.7248    1.9544  C     
3    C        45.7251   15.4521    2.8969  C     
4    C        46.2845   14.1586    2.8249  C     
5    C        45.7913   13.3531    1.7839  C     
6    C        43.9692   16.8967    1.8151  C     
7    O        44.1899   17.9899    2.5785  O     
8    O        42.9636   16.9679    0.9285  O     
9    C        46.1044   11.9894    1.5171  C     
10   C        47.4051   11.4701    1.6950  C     
11   C        47.6427   10.0730    1.7168  C     
12   C        46.5865    9.1999    1.3814  C     
13   C        45.3295    9.7210    1.0352  C     
14   C        45.0738   11.0969    1.1482  C     
15   Br       47.4817   13.6138    4.1442  Br    
16   O        46.0916   16.3216    3.8812  O     
17   C        47.1077   17.2647    3.4894  C     
18   C        47.9440   17.5148    4.6653  C     
19   O        47.3968   17.9757    5.8062  O     
20   O        49.2272   17.1030    4.6804  O     
21   N        48.8568    9.6525    2.1657  N     
22   C        48.9980    8.6745    3.2224  C     
23   N        51.8148    7.9133    3.6931  N     
24   C        51.1220    7.3208    2.5517  C     
25   C        49.5885    7.3011    2.7669  C     
26   C        49.8933    9.3017    4.3302  C     
27   C        51.4010    9.2842    3.9760  C     
28   C        52.7041    7.2543    4.4654  C     
29   C        53.1135    5.8662    4.2707  C     
30   O        53.2318    7.8216    5.4208  O     
31   H        48.1756   12.0923    1.9321  H     
32   H        46.7235    8.1788    1.3828  H     
33   H        44.5764    9.0865    0.7608  H     
34   H        44.1157   11.4247    1.0149  H     
35   H        47.7439   16.9001    2.6713  H     
36   H        46.6434   18.2013    3.1717  H     
37   H        49.5857   10.3261    2.1453  H     
38   H        48.0241    8.4743    3.6890  H     
39   H        51.3547    7.9087    1.6564  H     
40   H        51.4401    6.2989    2.3258  H     
41   H        49.3795    6.5592    3.5510  H     
42   H        49.0922    6.9710    1.8491  H     
43   H        49.5829   10.3325    4.5244  H     
44   H        49.7609    8.7447    5.2643  H     
45   H        51.9539    9.7458    4.8005  H     
46   H        51.5862    9.9078    3.0940  H     
47   H        52.2502    5.2012    4.3636  H     
48   H        53.8625    5.5556    5.0118  H     
49   H        53.5590    5.7505    3.2787  H     
@<TRIPOS>BOND
     1    1    2 1
     2    1    5 1
     3    2    3 2
     4    2    6 1
     5    3    4 1
     6    3   16 1
     7    4    5 2
     8    4   15 1
     9    5    9 1
    10    6    7 2
    11    6    8 1
    12    9   10 2
    13    9   14 1
    14   10   11 1
    15   11   12 2
    16   11   21 1
    17   12   13 1
    18   13   14 2
    19   16   17 1
    20   17   18 1
    21   18   19 1
    22   18   20 2
    23   21   22 1
    24   22   25 1
    25   22   26 1
    26   23   24 1
    27   23   27 1
    28   23   28 am
    29   24   25 1
    30   26   27 1
    31   28   29 1
    32   28   30 2
    33   10   31 1
    34   12   32 1
    35   13   33 1
    36   14   34 1
    37   17   35 1
    38   17   36 1
    39   21   37 1
    40   22   38 1
    41   24   39 1
    42   24   40 1
    43   25   41 1
    44   25   42 1
    45   26   43 1
    46   26   44 1
    47   27   45 1
    48   27   46 1
    49   29   47 1
    50   29   48 1
    51   29   49 1
@<TRIPOS>PROPERTY_DATA
  Total_Score	| 14.9110
  Crash		| -2.3829
  Polar		| 10.7490
  FragIndex	| 1
  FragRMSD	| 1.265

