@<TRIPOS>MOLECULE
BindingDB_50219573
 57 59 0 0 0
SMALL
NO_CHARGES


@<TRIPOS>ATOM
1    S        44.4759   14.1811    1.1919  S     
2    C        44.6567   15.6680    2.0310  C     
3    C        45.6375   15.4315    2.9968  C     
4    C        46.1325   14.1128    3.0489  C     
5    C        45.6140   13.2313    2.0770  C     
6    C        43.9645   16.8617    1.7676  C     
7    O        44.1956   17.9917    2.4673  O     
8    O        43.0223   16.9192    0.8075  O     
9    C        45.9156   11.8592    1.7878  C     
10   C        47.1874   11.2892    2.0599  C     
11   C        47.5218    9.9592    1.7120  C     
12   C        46.5638    9.1986    1.0011  C     
13   C        45.2868    9.7230    0.7369  C     
14   C        44.9654   11.0311    1.1309  C     
15   Br       47.3151   13.6866    4.4274  Br    
16   O        46.0781   16.3843    3.8662  O     
17   C        47.2800   17.0593    3.4433  C     
18   C        48.0225   17.3939    4.6612  C     
19   O        49.3292   17.0730    4.7806  O     
20   O        47.3764   17.9579    5.7024  O     
21   N        48.7705    9.5341    2.0595  N     
22   C        49.4641    8.3186    1.7299  C     
23   C        50.9130    8.3578    2.3079  C     
24   C        51.0421    8.0928    3.8536  C     
25   C        50.2694    6.7766    4.2273  C     
26   C        48.8303    6.5562    3.6367  C     
27   C        48.8032    6.9583    2.1207  C     
28   C        52.5553    7.8793    4.2097  C     
29   C        50.5951    9.3352    4.6934  C     
30   C        47.7113    7.3100    4.4313  C     
31   C        48.4881    5.0268    3.7534  C     
32   H        47.9217   11.8630    2.4681  H     
33   H        46.7829    8.2679    0.6509  H     
34   H        44.5974    9.1558    0.2325  H     
35   H        44.0238   11.3693    0.9170  H     
36   H        47.9206   16.4543    2.7879  H     
37   H        47.0234   17.9824    2.9196  H     
38   H        49.3061   10.1972    2.5347  H     
39   H        49.5584    8.3272    0.6380  H     
40   H        51.4843    7.5924    1.7761  H     
41   H        51.3844    9.3134    2.0535  H     
42   H        50.8891    5.9440    3.8762  H     
43   H        50.2307    6.6746    5.3170  H     
44   H        47.7723    6.9151    1.7739  H     
45   H        49.3387    6.1894    1.5580  H     
46   H        53.0111    7.1086    3.5859  H     
47   H        52.6793    7.5804    5.2569  H     
48   H        53.1113    8.8007    4.0615  H     
49   H        51.1212   10.2332    4.3579  H     
50   H        50.8285    9.1935    5.7509  H     
51   H        49.5297    9.5335    4.6199  H     
52   H        47.8306    7.1585    5.5058  H     
53   H        46.7195    6.9383    4.1559  H     
54   H        47.7118    8.3756    4.2311  H     
55   H        49.1999    4.4146    3.1957  H     
56   H        47.4919    4.8132    3.3605  H     
57   H        48.5192    4.7020    4.7963  H     
@<TRIPOS>BOND
     1    1    2 1
     2    1    5 1
     3    2    3 2
     4    2    6 1
     5    3    4 1
     6    3   16 1
     7    4    5 2
     8    4   15 1
     9    5    9 1
    10    6    7 2
    11    6    8 1
    12    9   10 2
    13    9   14 1
    14   10   11 1
    15   11   12 2
    16   11   21 1
    17   12   13 1
    18   13   14 2
    19   16   17 1
    20   17   18 1
    21   18   19 1
    22   18   20 2
    23   21   22 1
    24   22   23 1
    25   22   27 1
    26   23   24 1
    27   24   25 1
    28   24   28 1
    29   24   29 1
    30   25   26 1
    31   26   27 1
    32   26   30 1
    33   26   31 1
    34   10   32 1
    35   12   33 1
    36   13   34 1
    37   14   35 1
    38   17   36 1
    39   17   37 1
    40   21   38 1
    41   22   39 1
    42   23   40 1
    43   23   41 1
    44   25   42 1
    45   25   43 1
    46   27   44 1
    47   27   45 1
    48   28   46 1
    49   28   47 1
    50   28   48 1
    51   29   49 1
    52   29   50 1
    53   29   51 1
    54   30   52 1
    55   30   53 1
    56   30   54 1
    57   31   55 1
    58   31   56 1
    59   31   57 1
@<TRIPOS>PROPERTY_DATA
  Total_Score	| 13.8645
  Crash		| -3.1499
  Polar		| 8.9466
  FragIndex	| 1
  FragRMSD	| 0.833

