@<TRIPOS>MOLECULE
BindingDB_50219598
 50 52 0 0 0
SMALL
NO_CHARGES


@<TRIPOS>ATOM
1    S        44.5555   14.3163    0.9901  S     
2    C        44.7191   15.7254    1.9600  C     
3    C        45.7131   15.4384    2.9031  C     
4    C        46.2561   14.1419    2.8218  C     
5    C        45.7533   13.3538    1.7700  C     
6    C        43.9687   16.9021    1.8252  C     
7    O        42.9947   16.9955    0.8976  O     
8    O        44.1776   17.9777    2.6162  O     
9    C        46.0638   12.0045    1.4583  C     
10   C        47.3764   11.5074    1.6176  C     
11   C        47.6356   10.1163    1.6157  C     
12   C        46.5899    9.2245    1.2897  C     
13   C        45.3110    9.7187    0.9800  C     
14   C        45.0388   11.0949    1.0969  C     
15   Br       47.4386   13.5465    4.1368  Br    
16   O        46.1036   16.3016    3.8845  O     
17   C        47.1471   17.2158    3.4872  C     
18   C        47.9695   17.4771    4.6748  C     
19   O        47.3970   17.9591    5.7994  O     
20   O        49.2517   17.0532    4.7278  O     
21   N        48.8564    9.7206    2.0620  N     
22   C        49.0413    8.6640    3.0265  C     
23   N        51.8356    7.9684    3.4781  N     
24   C        51.2222    7.4363    2.2731  C     
25   C        49.6779    7.3574    2.4419  C     
26   C        49.8990    9.2406    4.1954  C     
27   C        51.4112    9.3038    3.8451  C     
28   C        52.6265    7.2214    4.3040  C     
29   O        52.8424    5.8966    4.0612  O     
30   O        53.1790    7.7600    5.4305  O     
31   C        53.5723    4.9846    4.8832  C     
32   H        48.1372   12.1586    1.8448  H     
33   H        46.7503    8.2129    1.2615  H     
34   H        44.5607    9.0662    0.7278  H     
35   H        44.0751   11.4146    0.9578  H     
36   H        47.7864   16.8288    2.6800  H     
37   H        46.7063   18.1601    3.1459  H     
38   H        49.5310   10.4205    2.1041  H     
39   H        48.0740    8.3899    3.4741  H     
40   H        51.4668    8.0901    1.4261  H     
41   H        51.5949    6.4385    2.0145  H     
42   H        49.4618    6.5372    3.1371  H     
43   H        49.2136    7.1131    1.4829  H     
44   H        49.5506   10.2459    4.4677  H     
45   H        49.7786    8.6025    5.0789  H     
46   H        51.9540    9.7163    4.7020  H     
47   H        51.5734    9.9875    3.0037  H     
48   H        54.6101    5.3060    4.9841  H     
49   H        53.5488    3.9959    4.4151  H     
50   H        53.1150    4.9211    5.8774  H     
@<TRIPOS>BOND
     1    1    2 1
     2    1    5 1
     3    2    3 2
     4    2    6 1
     5    3    4 1
     6    3   16 1
     7    4    5 2
     8    4   15 1
     9    5    9 1
    10    6    7 2
    11    6    8 1
    12    9   10 2
    13    9   14 1
    14   10   11 1
    15   11   12 2
    16   11   21 1
    17   12   13 1
    18   13   14 2
    19   16   17 1
    20   17   18 1
    21   18   19 1
    22   18   20 2
    23   21   22 1
    24   22   25 1
    25   22   26 1
    26   23   24 1
    27   23   27 1
    28   23   28 1
    29   24   25 1
    30   26   27 1
    31   28   29 1
    32   28   30 2
    33   29   31 1
    34   10   32 1
    35   12   33 1
    36   13   34 1
    37   14   35 1
    38   17   36 1
    39   17   37 1
    40   21   38 1
    41   22   39 1
    42   24   40 1
    43   24   41 1
    44   25   42 1
    45   25   43 1
    46   26   44 1
    47   26   45 1
    48   27   46 1
    49   27   47 1
    50   31   48 1
    51   31   49 1
    52   31   50 1
@<TRIPOS>PROPERTY_DATA
  Total_Score	| 15.3601
  Crash		| -2.1329
  Polar		| 10.6859
  FragIndex	| 1
  FragRMSD	| 0.800

