@<TRIPOS>MOLECULE
BindingDB_50219596
 50 52 0 0 0
SMALL
NO_CHARGES


@<TRIPOS>ATOM
1    S        44.4855   14.2415    1.1955  S     
2    C        44.6416   15.7150    2.0692  C     
3    C        45.6252   15.4871    3.0357  C     
4    C        46.1536   14.1820    3.0560  C     
5    C        45.6569   13.3165    2.0600  C     
6    C        43.9219   16.8969    1.8330  C     
7    O        42.9843   16.9496    0.8654  O     
8    O        44.1388   18.0193    2.5543  O     
9    C        45.9928   11.9578    1.7901  C     
10   C        47.2966   11.4575    2.0351  C     
11   C        47.6205   10.0894    1.8800  C     
12   C        46.6263    9.2189    1.3765  C     
13   C        45.3509    9.7103    1.0440  C     
14   C        45.0304   11.0607    1.2660  C     
15   Br       47.3384   13.7076    4.4141  Br    
16   O        46.0296   16.4247    3.9389  O     
17   C        47.1238   17.2510    3.4939  C     
18   C        47.9581   17.5146    4.6721  C     
19   O        47.3869   17.9495    5.8172  O     
20   O        49.2433   17.0973    4.7052  O     
21   N        48.8775    9.7104    2.2328  N     
22   C        49.4431    8.3926    2.2768  C     
23   N        51.2368    6.5066    3.5554  N     
24   C        51.6631    7.1093    2.3175  C     
25   C        50.9910    8.4960    2.1424  C     
26   C        49.0656    7.6641    3.6053  C     
27   C        49.8200    6.3127    3.7489  C     
28   S        52.3375    6.3728    4.8389  S     
29   C        53.6422    5.1646    4.5453  C     
30   O        52.9751    7.7890    5.1846  O     
31   O        51.6230    5.9006    6.1797  O     
32   H        48.0336   12.1019    2.3313  H     
33   H        46.8177    8.2269    1.2322  H     
34   H        44.6452    9.0757    0.6601  H     
35   H        44.0790   11.3755    1.0571  H     
36   H        47.7393   16.7869    2.7145  H     
37   H        46.7368   18.1966    3.1134  H     
38   H        49.4630   10.4244    2.5377  H     
39   H        49.0829    7.8096    1.4273  H     
40   H        52.7495    7.2264    2.2688  H     
41   H        51.3769    6.4560    1.4885  H     
42   H        51.2538    8.8976    1.1606  H     
43   H        51.3897    9.1755    2.9023  H     
44   H        49.3199    8.3031    4.4584  H     
45   H        47.9870    7.4821    3.6365  H     
46   H        49.4496    5.6196    2.9894  H     
47   H        49.5771    5.8779    4.7205  H     
48   H        53.2044    4.1723    4.4536  H     
49   H        54.3458    5.1743    5.3784  H     
50   H        54.1714    5.4086    3.6255  H     
@<TRIPOS>BOND
     1    1    2 1
     2    1    5 1
     3    2    3 2
     4    2    6 1
     5    3    4 1
     6    3   16 1
     7    4    5 2
     8    4   15 1
     9    5    9 1
    10    6    7 2
    11    6    8 1
    12    9   10 2
    13    9   14 1
    14   10   11 1
    15   11   12 2
    16   11   21 1
    17   12   13 1
    18   13   14 2
    19   16   17 1
    20   17   18 1
    21   18   19 1
    22   18   20 2
    23   21   22 1
    24   22   25 1
    25   22   26 1
    26   23   24 1
    27   23   27 1
    28   23   28 1
    29   24   25 1
    30   26   27 1
    31   28   29 1
    32   28   30 2
    33   28   31 2
    34   10   32 1
    35   12   33 1
    36   13   34 1
    37   14   35 1
    38   17   36 1
    39   17   37 1
    40   21   38 1
    41   22   39 1
    42   24   40 1
    43   24   41 1
    44   25   42 1
    45   25   43 1
    46   26   44 1
    47   26   45 1
    48   27   46 1
    49   27   47 1
    50   29   48 1
    51   29   49 1
    52   29   50 1
@<TRIPOS>PROPERTY_DATA
  Total_Score	| 13.7406
  Crash		| -2.0146
  Polar		| 9.4984
  FragIndex	| 1
  FragRMSD	| 0.667

