@<TRIPOS>MOLECULE
BindingDB_50219605
 45 47 0 0 0
SMALL
NO_CHARGES


@<TRIPOS>ATOM
1    S        44.4716   14.2947    1.1694  S     
2    C        44.6177   15.7588    2.0597  C     
3    C        45.6006   15.5341    3.0288  C     
4    C        46.1425   14.2313    3.0362  C     
5    C        45.6485   13.3737    2.0312  C     
6    C        43.8734   16.9264    1.8358  C     
7    O        42.9584   16.9833    0.8492  O     
8    O        44.0666   18.0375    2.5803  O     
9    C        45.9848   12.0209    1.7465  C     
10   C        47.3023   11.5373    1.9164  C     
11   C        47.6252   10.1691    1.7615  C     
12   C        46.6145    9.2840    1.3284  C     
13   C        45.3255    9.7647    1.0428  C     
14   C        45.0058   11.1133    1.2723  C     
15   Br       47.3277   13.7445    4.3933  Br    
16   O        45.9888   16.4829    3.9317  O     
17   C        47.0901   17.3110    3.5015  C     
18   C        47.9508   17.5158    4.6703  C     
19   O        49.2415   17.1074    4.6621  O     
20   O        47.4177   17.9842    5.8190  O     
21   N        48.8960    9.8048    2.0731  N     
22   C        49.4167    8.5007    2.3504  C     
23   N        51.1477    6.8329    4.0712  N     
24   C        51.5935    7.1925    2.7060  C     
25   C        50.9664    8.5348    2.2465  C     
26   C        48.9980    8.0792    3.7919  C     
27   C        49.6769    6.7536    4.2211  C     
28   H        48.0476   12.1868    2.1757  H     
29   H        46.8042    8.2903    1.1940  H     
30   H        44.6045    9.1194    0.7064  H     
31   H        44.0438   11.4171    1.1115  H     
32   H        47.6819   16.8873    2.6806  H     
33   H        46.7144   18.2809    3.1797  H     
34   H        49.4965   10.5346    2.2924  H     
35   H        49.0430    7.7709    1.6277  H     
36   H        51.5532    5.9277    4.3176  H     
37   H        51.5045    7.5364    4.7214  H     
38   H        52.6826    7.2848    2.7065  H     
39   H        51.3224    6.3945    2.0079  H     
40   H        51.2657    8.7414    1.2156  H     
41   H        51.3615    9.3388    2.8745  H     
42   H        49.2944    8.8636    4.4963  H     
43   H        47.9137    7.9646    3.8490  H     
44   H        49.2916    5.9227    3.6246  H     
45   H        49.4502    6.5535    5.2685  H     
@<TRIPOS>BOND
     1    1    2 1
     2    1    5 1
     3    2    3 2
     4    2    6 1
     5    3    4 1
     6    3   16 1
     7    4    5 2
     8    4   15 1
     9    5    9 1
    10    6    7 2
    11    6    8 1
    12    9   10 2
    13    9   14 1
    14   10   11 1
    15   11   12 2
    16   11   21 1
    17   12   13 1
    18   13   14 2
    19   16   17 1
    20   17   18 1
    21   18   19 1
    22   18   20 2
    23   21   22 1
    24   22   25 1
    25   22   26 1
    26   23   24 1
    27   23   27 1
    28   24   25 1
    29   26   27 1
    30   10   28 1
    31   12   29 1
    32   13   30 1
    33   14   31 1
    34   17   32 1
    35   17   33 1
    36   21   34 1
    37   22   35 1
    38   23   36 1
    39   23   37 1
    40   24   38 1
    41   24   39 1
    42   25   40 1
    43   25   41 1
    44   26   42 1
    45   26   43 1
    46   27   44 1
    47   27   45 1
@<TRIPOS>PROPERTY_DATA
  Total_Score	| 12.8094
  Crash		| -1.3600
  Polar		| 9.0958
  FragIndex	| 1
  FragRMSD	| 0.111

