@<TRIPOS>MOLECULE
BindingDB_50219591
 61 64 0 0 0
SMALL
NO_CHARGES


@<TRIPOS>ATOM
1    C        50.4415    7.9392    2.8521  C     
2    N        52.7822    6.4979    3.9350  N     
3    C        52.4246    6.3553    2.5289  C     
4    C        50.9010    6.5468    2.3227  C     
5    C        50.8745    8.0646    4.3474  C     
6    C        52.3985    7.7843    4.5146  C     
7    S        44.4270   14.2950    1.2012  S     
8    C        44.6057   15.7751    2.0586  C     
9    C        45.6030   15.5543    3.0107  C     
10   C        46.1177   14.2426    3.0397  C     
11   C        45.5945   13.3709    2.0677  C     
12   C        43.8736   16.9443    1.8277  C     
13   O        44.0686   18.0689    2.5508  O     
14   O        42.8879   16.9683    0.9071  O     
15   C        45.8662   11.9963    1.8380  C     
16   C        47.1143   11.4089    2.1708  C     
17   C        47.3619   10.0254    2.0353  C     
18   C        46.3556    9.2253    1.4416  C     
19   C        45.1287    9.7899    1.0474  C     
20   C        44.8749   11.1547    1.2703  C     
21   O        45.9922   16.4799    3.9344  O     
22   C        47.0951   17.3060    3.5111  C     
23   C        47.9270   17.5378    4.6954  C     
24   O        49.1997   17.0999    4.7291  O     
25   O        47.3460   17.9645    5.8365  O     
26   N        48.5554    9.5400    2.4732  N     
27   C        48.9203    8.1618    2.5966  C     
28   C        53.4033    5.5299    4.6384  C     
29   O        53.7318    5.7364    5.8032  O     
30   N        53.7358    4.3455    4.1069  N     
31   Br       47.3215   13.7885    4.3891  Br    
32   C        54.2445    3.2031    4.6706  C     
33   C        53.8500    2.6740    5.9253  C     
34   C        54.3738    1.4501    6.3908  C     
35   C        55.2990    0.7344    5.6119  C     
36   C        55.6966    1.2443    4.3636  C     
37   C        55.1747    2.4673    3.9019  C     
38   H        50.9747    8.7060    2.2770  H     
39   H        52.9650    7.1095    1.9512  H     
40   H        52.6800    5.3953    2.0833  H     
41   H        50.3612    5.7566    2.8479  H     
42   H        50.6794    6.4691    1.2545  H     
43   H        50.6430    9.0690    4.7194  H     
44   H        50.3140    7.3448    4.9526  H     
45   H        52.6355    7.8711    5.5795  H     
46   H        52.9533    8.5789    4.0137  H     
47   H        47.8742   11.9974    2.5184  H     
48   H        46.4965    8.2251    1.2793  H     
49   H        44.4048    9.1962    0.6289  H     
50   H        43.9493   11.5164    1.0174  H     
51   H        47.7135   16.8581    2.7228  H     
52   H        46.7203   18.2654    3.1420  H     
53   H        49.2344   10.1939    2.7196  H     
54   H        48.6355    7.6487    1.6600  H     
55   H        48.3334    7.7089    3.4121  H     
56   H        53.6112    4.2744    3.1538  H     
57   H        53.1480    3.1453    6.4949  H     
58   H        54.0718    1.0787    7.2945  H     
59   H        55.6698   -0.1559    5.9476  H     
60   H        56.3665    0.7179    3.7911  H     
61   H        55.4758    2.8087    2.9825  H     
@<TRIPOS>BOND
     1    1    4 1
     2    1    5 1
     3    1   27 1
     4    2    3 1
     5    2    6 1
     6    2   28 1
     7    3    4 1
     8    5    6 1
     9    7    8 1
    10    7   11 1
    11    8    9 2
    12    8   12 1
    13    9   10 1
    14    9   21 1
    15   10   11 2
    16   10   31 1
    17   11   15 1
    18   12   13 2
    19   12   14 1
    20   15   16 2
    21   15   20 1
    22   16   17 1
    23   17   18 2
    24   17   26 1
    25   18   19 1
    26   19   20 2
    27   21   22 1
    28   22   23 1
    29   23   24 1
    30   23   25 2
    31   26   27 1
    32   28   29 2
    33   28   30 am
    34   30   32 1
    35   32   33 2
    36   32   37 1
    37   33   34 1
    38   34   35 2
    39   35   36 1
    40   36   37 2
    41    1   38 1
    42    3   39 1
    43    3   40 1
    44    4   41 1
    45    4   42 1
    46    5   43 1
    47    5   44 1
    48    6   45 1
    49    6   46 1
    50   16   47 1
    51   18   48 1
    52   19   49 1
    53   20   50 1
    54   22   51 1
    55   22   52 1
    56   26   53 1
    57   27   54 1
    58   27   55 1
    59   30   56 1
    60   33   57 1
    61   34   58 1
    62   35   59 1
    63   36   60 1
    64   37   61 1
@<TRIPOS>PROPERTY_DATA
  Total_Score	| 14.3603
  Crash		| -2.1845
  Polar		| 9.8047
  FragIndex	| 1
  FragRMSD	| 0.960

