@<TRIPOS>MOLECULE
BindingDB_50291363
 72 75 0 0 0
SMALL
NO_CHARGES


@<TRIPOS>ATOM
1    S       -37.6038  -31.4500   47.5702  S     
2    C       -35.2588  -28.1025   42.1085  C     
3    C       -36.5439  -28.8229   42.2107  C     
4    C       -37.9132  -29.8390   48.0770  C     
5    N       -37.7396  -31.7956   45.9228  N     
6    N       -34.8886  -26.9527   42.7273  N     
7    N       -36.3739  -29.9133   43.1335  N     
8    C       -42.4167  -31.4137   40.5937  C     
9    C       -37.1454  -30.2304   44.1676  C     
10   C       -36.7670  -31.3858   44.9626  C     
11   O       -36.2254  -32.0272   48.1174  O     
12   O       -38.6511  -32.4101   48.2846  O     
13   C       -36.9042  -28.9440   48.1830  C     
14   C       -41.0891  -30.9024   40.7142  C     
15   N       -43.4186  -30.7146   40.0275  N     
16   C       -37.0111  -29.3750   40.8274  C     
17   C       -37.1430  -27.6352   48.6319  C     
18   O       -34.4276  -28.6848   41.4165  O     
19   C       -39.1947  -29.4702   48.4174  C     
20   O       -38.1808  -29.6199   44.4117  O     
21   C       -38.4763  -27.2644   48.9757  C     
22   C       -39.4809  -28.2279   48.8565  C     
23   C       -40.8279  -29.5122   40.8334  C     
24   C       -39.9668  -31.7693   40.6858  C     
25   N       -42.7666  -32.6503   41.0034  N     
26   C       -38.4056  -29.8897   40.8289  C     
27   C       -38.6550  -31.2764   40.7475  C     
28   C       -39.5143  -29.0161   40.8897  C     
29   C       -35.7836  -26.2029   43.5955  C     
30   C       -33.4859  -26.5057   42.6995  C     
31   C       -36.1045  -26.6876   48.7763  C     
32   C       -38.7447  -25.9587   49.4476  C     
33   C       -32.9215  -25.7373   43.9421  C     
34   C       -35.7082  -26.7067   45.0668  C     
35   C       -36.3836  -25.3841   49.2252  C     
36   C       -37.7018  -25.0216   49.5625  C     
37   C       -34.3564  -27.3591   45.4716  C     
38   C       -33.1045  -26.4499   45.3174  C     
39   H       -37.3411  -28.1690   42.5587  H     
40   H       -38.6097  -32.0630   45.5891  H     
41   H       -35.6176  -30.4962   42.9673  H     
42   H       -35.8107  -31.1855   45.4540  H     
43   H       -36.6159  -32.2328   44.2858  H     
44   H       -35.9801  -29.2157   47.9510  H     
45   H       -44.2827  -31.1416   39.9108  H     
46   H       -36.9248  -28.5833   40.0788  H     
47   H       -36.3376  -30.1728   40.4983  H     
48   H       -39.9370  -30.1314   48.3646  H     
49   H       -40.4152  -27.9985   49.1089  H     
50   H       -41.5963  -28.8376   40.8731  H     
51   H       -40.0868  -32.7780   40.5834  H     
52   H       -43.6738  -32.9714   40.8622  H     
53   H       -42.1165  -33.2413   41.4142  H     
54   H       -37.8757  -31.9388   40.7110  H     
55   H       -39.3691  -28.0048   40.9693  H     
56   H       -35.5289  -25.1432   43.5597  H     
57   H       -36.8162  -26.2054   43.2483  H     
58   H       -32.8119  -27.3576   42.5782  H     
59   H       -33.3578  -25.8792   41.8121  H     
60   H       -35.1418  -26.9270   48.5729  H     
61   H       -39.6944  -25.6878   49.7101  H     
62   H       -31.8487  -25.5612   43.7768  H     
63   H       -33.3749  -24.7453   43.9921  H     
64   H       -35.9107  -25.8749   45.7478  H     
65   H       -36.4945  -27.4514   45.2225  H     
66   H       -35.6264  -24.7034   49.3261  H     
67   H       -37.9005  -24.0775   49.9039  H     
68   H       -34.4201  -27.6770   46.5076  H     
69   H       -34.2017  -28.2686   44.8882  H     
70   H       -32.2229  -27.0710   45.5012  H     
71   H       -33.1274  -25.6851   46.1019  H     
72   H       -43.2699  -29.8257   39.6683  H     
@<TRIPOS>BOND
     1    1    4 1
     2    1    5 1
     3    1   11 2
     4    1   12 2
     5    2    3 1
     6    2    6 am
     7    2   18 2
     8    3    7 1
     9    3   16 1
    10    4   13 2
    11    4   19 1
    12    5   10 1
    13    6   29 1
    14    6   30 1
    15    7    9 am
    16    8   14 1
    17    8   15 2
    18    8   25 1
    19    9   10 1
    20    9   20 2
    21   13   17 1
    22   14   23 2
    23   14   24 1
    24   16   26 1
    25   17   21 1
    26   17   31 2
    27   19   22 2
    28   21   22 1
    29   21   32 2
    30   23   28 1
    31   24   27 2
    32   26   27 1
    33   26   28 2
    34   29   34 1
    35   30   33 1
    36   31   35 1
    37   32   36 1
    38   33   38 1
    39   34   37 1
    40   35   36 2
    41   37   38 1
    42    3   39 1
    43    5   40 1
    44    7   41 1
    45   10   42 1
    46   10   43 1
    47   13   44 1
    48   15   45 1
    49   16   46 1
    50   16   47 1
    51   19   48 1
    52   22   49 1
    53   23   50 1
    54   24   51 1
    55   25   52 1
    56   25   53 1
    57   27   54 1
    58   28   55 1
    59   29   56 1
    60   29   57 1
    61   30   58 1
    62   30   59 1
    63   31   60 1
    64   32   61 1
    65   33   62 1
    66   33   63 1
    67   34   64 1
    68   34   65 1
    69   35   66 1
    70   36   67 1
    71   37   68 1
    72   37   69 1
    73   38   70 1
    74   38   71 1
    75   15   72 1
@<TRIPOS>PROPERTY_DATA
  Total_Score	| 10.0211
  Crash		| -2.0792
  Polar		| 5.0070
  FragIndex	| 1
  FragRMSD	| 0.853

