@<TRIPOS>MOLECULE
BindingDB_50291361
 68 71 0 0 0
SMALL
NO_CHARGES


@<TRIPOS>ATOM
1    S       -37.3966  -31.6942   47.5844  S     
2    C       -36.9155  -31.2432   44.9072  C     
3    N       -37.6492  -31.9339   45.9315  N     
4    C       -37.6768  -31.3069   43.6511  C     
5    C       -37.3480  -30.0392   48.0474  C     
6    N       -38.0680  -30.2569   42.8982  N     
7    C       -34.2326  -36.2441   41.4446  C     
8    O       -36.1263  -32.5202   48.0760  O     
9    O       -38.6329  -32.3984   48.3004  O     
10   C       -38.4789  -29.3745   48.3852  C     
11   C       -35.4219  -31.6940   44.7617  C     
12   C       -34.5309  -35.1515   42.2849  C     
13   N       -35.0730  -36.5072   40.4124  N     
14   C       -38.4443  -28.0039   48.6876  C     
15   O       -38.0540  -32.4315   43.3351  O     
16   C       -36.1496  -29.3690   47.9766  C     
17   C       -37.1948  -27.3201   48.6046  C     
18   C       -36.0620  -28.0501   48.2443  C     
19   C       -33.7793  -33.9639   42.1617  C     
20   C       -35.5728  -35.2111   43.2393  C     
21   N       -33.1217  -36.9790   41.6830  N     
22   C       -35.1281  -32.8865   43.9104  C     
23   C       -35.8703  -34.0859   44.0369  C     
24   C       -34.0777  -32.8476   42.9606  C     
25   C       -39.2334  -30.3802   42.0324  C     
26   C       -37.3767  -28.9749   42.9357  C     
27   C       -34.6890  -36.8135   39.0770  C     
28   C       -39.6034  -27.2862   49.0654  C     
29   C       -37.1337  -25.9340   48.8707  C     
30   C       -38.8606  -30.8698   40.6085  C     
31   C       -37.1644  -28.2518   41.5747  C     
32   C       -39.5299  -25.9055   49.3273  C     
33   C       -38.2996  -25.2309   49.2253  C     
34   C       -36.8769  -29.1900   40.3692  C     
35   C       -38.1594  -29.7986   39.7392  C     
36   H       -36.9045  -30.2020   45.2409  H     
37   H       -38.5424  -32.2280   45.6917  H     
38   H       -39.3495  -29.8554   48.4058  H     
39   H       -34.8756  -30.8310   44.3671  H     
40   H       -34.9945  -31.8760   45.7510  H     
41   H       -36.0251  -36.4291   40.5862  H     
42   H       -35.3168  -29.8527   47.7238  H     
43   H       -35.1788  -27.5998   48.1805  H     
44   H       -33.0121  -33.9029   41.4873  H     
45   H       -36.1391  -36.0610   43.3380  H     
46   H       -32.9375  -37.7676   41.1479  H     
47   H       -36.6349  -34.1488   44.7106  H     
48   H       -33.5147  -32.0001   42.8435  H     
49   H       -39.9617  -31.0758   42.4628  H     
50   H       -39.7667  -29.4305   41.9626  H     
51   H       -37.9312  -28.3104   43.6022  H     
52   H       -36.3762  -29.0839   43.3595  H     
53   H       -34.2873  -35.9137   38.5986  H     
54   H       -35.5740  -37.1367   38.5235  H     
55   H       -33.9388  -37.6066   39.0375  H     
56   H       -40.5034  -27.7628   49.1552  H     
57   H       -36.2425  -25.4293   48.8048  H     
58   H       -38.2205  -31.7513   40.6821  H     
59   H       -39.7760  -31.1770   40.0955  H     
60   H       -38.0377  -27.6345   41.3570  H     
61   H       -36.3224  -27.5618   41.6815  H     
62   H       -40.3751  -25.3899   49.5839  H     
63   H       -38.2511  -24.2270   49.4069  H     
64   H       -36.3736  -28.6056   39.5949  H     
65   H       -36.1920  -29.9873   40.6666  H     
66   H       -37.8864  -30.2665   38.7917  H     
67   H       -38.8702  -29.0014   39.5047  H     
68   H       -32.5317  -36.7535   42.4249  H     
@<TRIPOS>BOND
     1    1    3 1
     2    1    5 1
     3    1    8 2
     4    1    9 2
     5    2    3 1
     6    2    4 1
     7    2   11 1
     8    4    6 am
     9    4   15 2
    10    5   10 2
    11    5   16 1
    12    6   25 1
    13    6   26 1
    14    7   12 1
    15    7   13 1
    16    7   21 2
    17   10   14 1
    18   11   22 1
    19   12   19 2
    20   12   20 1
    21   13   27 1
    22   14   17 1
    23   14   28 2
    24   16   18 2
    25   17   18 1
    26   17   29 2
    27   19   24 1
    28   20   23 2
    29   22   23 1
    30   22   24 2
    31   25   30 1
    32   26   31 1
    33   28   32 1
    34   29   33 1
    35   30   35 1
    36   31   34 1
    37   32   33 2
    38   34   35 1
    39    2   36 1
    40    3   37 1
    41   10   38 1
    42   11   39 1
    43   11   40 1
    44   13   41 1
    45   16   42 1
    46   18   43 1
    47   19   44 1
    48   20   45 1
    49   21   46 1
    50   23   47 1
    51   24   48 1
    52   25   49 1
    53   25   50 1
    54   26   51 1
    55   26   52 1
    56   27   53 1
    57   27   54 1
    58   27   55 1
    59   28   56 1
    60   29   57 1
    61   30   58 1
    62   30   59 1
    63   31   60 1
    64   31   61 1
    65   32   62 1
    66   33   63 1
    67   34   64 1
    68   34   65 1
    69   35   66 1
    70   35   67 1
    71   21   68 1
@<TRIPOS>PROPERTY_DATA
  Total_Score	| 6.1135
  Crash		| -1.6125
  Polar		| 1.8710
  FragIndex	| 1
  FragRMSD	| 1.004

