@<TRIPOS>MOLECULE
BindingDB_50098234
 75 78 0 0 0
SMALL
NO_CHARGES


@<TRIPOS>ATOM
1    S       -36.6638  -31.5315   47.5045  S     
2    C       -35.0619  -28.2663   42.4259  C     
3    C       -36.3735  -28.9335   42.3279  C     
4    C       -37.2047  -30.0601   48.2073  C     
5    N       -36.1685  -31.5439   45.8917  N     
6    N       -34.7713  -27.0759   43.0020  N     
7    N       -36.3498  -30.0993   43.1686  N     
8    C       -37.2263  -30.4251   44.1119  C     
9    C       -37.0689  -31.6923   44.7982  C     
10   O       -35.4469  -32.0964   48.3590  O     
11   O       -37.7711  -32.6568   47.7128  O     
12   C       -37.4488  -28.9737   47.4403  C     
13   C       -42.3424  -31.1326   40.8718  C     
14   C       -36.7602  -29.3640   40.8719  C     
15   C       -38.0755  -27.8444   47.9819  C     
16   C       -40.9095  -30.6968   40.7611  C     
17   O       -34.1429  -28.9324   41.9594  O     
18   C       -37.4707  -30.0302   49.5570  C     
19   O       -38.2071  -29.7279   44.3546  O     
20   C       -38.3773  -27.8377   49.3756  C     
21   C       -38.0265  -28.9484   50.1411  C     
22   C       -40.5753  -29.3401   40.9729  C     
23   C       -39.8464  -31.5989   40.4937  C     
24   N       -43.2073  -30.5298   39.8164  N     
25   C       -38.1781  -29.8208   40.7578  C     
26   N       -42.5443  -32.5912   40.7611  N     
27   C       -39.2372  -28.9081   40.9558  C     
28   C       -38.5033  -31.1702   40.4913  C     
29   C       -35.6907  -26.2911   43.8158  C     
30   C       -33.4444  -26.4576   42.8565  C     
31   C       -38.4829  -26.7565   47.1783  C     
32   C       -43.8728  -29.2421   40.1121  C     
33   C       -39.0642  -26.7367   49.9372  C     
34   C       -35.1117  -26.0409   45.2358  C     
35   C       -32.7721  -26.2231   44.2345  C     
36   C       -39.2138  -25.6953   47.7431  C     
37   C       -39.4950  -25.6798   49.1201  C     
38   C       -33.6984  -25.4095   45.1727  C     
39   H       -37.1537  -28.2510   42.6403  H     
40   H       -35.2286  -31.3816   45.7022  H     
41   H       -35.6413  -30.7433   42.9963  H     
42   H       -36.6574  -32.4364   44.1098  H     
43   H       -38.0369  -32.0703   45.1374  H     
44   H       -37.2312  -28.9865   46.4735  H     
45   H       -42.6959  -30.8662   41.8741  H     
46   H       -36.6273  -28.5177   40.1981  H     
47   H       -36.0801  -30.1525   40.5299  H     
48   H       -37.2476  -30.8128   50.1271  H     
49   H       -38.2042  -28.9641   51.1170  H     
50   H       -41.2982  -28.6537   41.1780  H     
51   H       -40.0290  -32.5886   40.3160  H     
52   H       -42.6509  -30.4340   38.9619  H     
53   H       -43.9654  -31.1898   39.6261  H     
54   H       -42.3149  -32.8860   39.8076  H     
55   H       -43.5168  -32.8322   40.9543  H     
56   H       -41.9349  -33.0854   41.4207  H     
57   H       -39.0383  -27.9174   41.1254  H     
58   H       -37.7675  -31.8545   40.3150  H     
59   H       -35.8603  -25.3249   43.3201  H     
60   H       -36.6656  -26.7403   43.9820  H     
61   H       -32.7447  -27.0303   42.2401  H     
62   H       -33.5522  -25.4849   42.3589  H     
63   H       -38.2847  -26.7432   46.1749  H     
64   H       -44.4161  -29.3027   41.0576  H     
65   H       -44.5936  -29.0456   39.3148  H     
66   H       -43.1630  -28.4179   40.1515  H     
67   H       -39.2891  -26.7214   50.9371  H     
68   H       -35.7757  -25.3754   45.7935  H     
69   H       -35.0594  -26.9957   45.7685  H     
70   H       -32.5537  -27.1831   44.7015  H     
71   H       -31.8292  -25.6809   44.0969  H     
72   H       -39.5513  -24.9414   47.1471  H     
73   H       -40.0321  -24.9068   49.5209  H     
74   H       -33.7718  -24.3758   44.8105  H     
75   H       -33.2736  -25.3869   46.1828  H     
@<TRIPOS>BOND
     1    1    4 1
     2    1    5 1
     3    1   10 2
     4    1   11 2
     5    2    3 1
     6    2    6 am
     7    2   17 2
     8    3    7 1
     9    3   14 1
    10    4   12 2
    11    4   18 1
    12    5    9 1
    13    6   29 1
    14    6   30 1
    15    7    8 am
    16    8    9 1
    17    8   19 2
    18   12   15 1
    19   13   16 1
    20   13   24 1
    21   13   26 1
    22   14   25 1
    23   15   20 1
    24   15   31 2
    25   16   22 1
    26   16   23 2
    27   18   21 2
    28   20   21 1
    29   20   33 2
    30   22   27 2
    31   23   28 1
    32   24   32 1
    33   25   27 1
    34   25   28 2
    35   29   34 1
    36   30   35 1
    37   31   36 1
    38   33   37 1
    39   34   38 1
    40   35   38 1
    41   36   37 2
    42    3   39 1
    43    5   40 1
    44    7   41 1
    45    9   42 1
    46    9   43 1
    47   12   44 1
    48   13   45 1
    49   14   46 1
    50   14   47 1
    51   18   48 1
    52   21   49 1
    53   22   50 1
    54   23   51 1
    55   24   52 1
    56   24   53 1
    57   26   54 1
    58   26   55 1
    59   26   56 1
    60   27   57 1
    61   28   58 1
    62   29   59 1
    63   29   60 1
    64   30   61 1
    65   30   62 1
    66   31   63 1
    67   32   64 1
    68   32   65 1
    69   32   66 1
    70   33   67 1
    71   34   68 1
    72   34   69 1
    73   35   70 1
    74   35   71 1
    75   36   72 1
    76   37   73 1
    77   38   74 1
    78   38   75 1
@<TRIPOS>PROPERTY_DATA
  Total_Score	| 11.2399
  Crash		| -3.1084
  Polar		| 5.2691
  FragIndex	| 1
  FragRMSD	| 0.984

