@<TRIPOS>MOLECULE
BindingDB_50098230
 72 75 0 0 0
SMALL
NO_CHARGES


@<TRIPOS>ATOM
1    S       -37.5773  -31.5512   47.5870  S     
2    C       -35.1061  -28.1976   42.3547  C     
3    C       -36.4134  -28.8817   42.3081  C     
4    C       -37.4695  -29.8852   47.9924  C     
5    N       -37.7919  -31.8692   45.9434  N     
6    N       -34.7945  -27.0251   42.9605  N     
7    N       -36.3375  -30.0167   43.1859  N     
8    C       -37.1377  -30.3222   44.1984  C     
9    C       -36.8331  -31.5281   44.9467  C     
10   O       -36.3333  -32.3918   48.1152  O     
11   O       -38.8095  -32.2291   48.3267  O     
12   C       -38.5775  -29.1780   48.3105  C     
13   C       -42.3317  -31.3539   40.9149  C     
14   C       -36.8158  -29.3726   40.8735  C     
15   C       -38.4882  -27.8263   48.6634  C     
16   C       -40.9180  -30.8769   40.8151  C     
17   O       -34.2038  -28.8294   41.8113  O     
18   C       -36.2366  -29.2743   47.9905  C     
19   O       -38.1242  -29.6441   44.4689  O     
20   C       -37.2021  -27.2076   48.6741  C     
21   C       -36.0915  -27.9781   48.3294  C     
22   C       -40.6408  -29.5045   41.0151  C     
23   C       -39.8252  -31.7354   40.5537  C     
24   C       -38.2206  -29.8833   40.7861  C     
25   N       -43.1780  -30.6961   39.9156  N     
26   N       -42.5254  -32.7997   40.7563  N     
27   C       -39.3219  -29.0152   40.9874  C     
28   C       -38.5012  -31.2454   40.5347  C     
29   C       -35.6989  -26.2584   43.8137  C     
30   C       -33.4733  -26.4039   42.8132  C     
31   C       -39.6253  -27.0640   49.0171  C     
32   C       -37.0814  -25.8472   49.0337  C     
33   C       -32.7765  -26.1937   44.1854  C     
34   C       -35.0945  -26.0778   45.2343  C     
35   C       -39.4937  -25.7066   49.3595  C     
36   C       -38.2242  -25.1019   49.3724  C     
37   C       -33.6885  -25.4310   45.1744  C     
38   H       -37.2031  -28.1952   42.6178  H     
39   H       -38.6752  -32.1407   45.6446  H     
40   H       -35.6114  -30.6386   43.0119  H     
41   H       -35.8402  -31.4275   45.3905  H     
42   H       -36.7996  -32.3707   44.2534  H     
43   H       -39.4696  -29.6189   48.3028  H     
44   H       -42.7187  -31.1006   41.9017  H     
45   H       -36.7186  -28.5388   40.1735  H     
46   H       -36.1117  -30.1485   40.5486  H     
47   H       -35.4244  -29.7889   47.7381  H     
48   H       -35.1818  -27.5746   48.3298  H     
49   H       -41.4064  -28.8451   41.1900  H     
50   H       -39.9754  -32.7345   40.3863  H     
51   H       -43.3386  -29.7255   40.1945  H     
52   H       -44.0723  -31.1904   39.8600  H     
53   H       -42.7217  -30.7182   38.9994  H     
54   H       -42.2639  -33.0828   39.8097  H     
55   H       -43.5132  -33.0418   40.9047  H     
56   H       -41.9530  -33.2963   41.4361  H     
57   H       -39.1674  -28.0117   41.1318  H     
58   H       -37.7391  -31.9056   40.3597  H     
59   H       -35.8578  -25.2693   43.3649  H     
60   H       -36.6843  -26.6990   43.9654  H     
61   H       -32.7845  -26.9625   42.1758  H     
62   H       -33.5957  -25.4287   42.3348  H     
63   H       -40.5543  -27.4898   49.0336  H     
64   H       -36.1660  -25.3909   49.0504  H     
65   H       -32.5232  -27.1664   44.6106  H     
66   H       -31.8476  -25.6352   44.0361  H     
67   H       -35.7503  -25.4531   45.8455  H     
68   H       -35.0203  -27.0574   45.7110  H     
69   H       -40.3231  -25.1593   49.6047  H     
70   H       -38.1271  -24.1189   49.6300  H     
71   H       -33.2365  -25.4452   46.1703  H     
72   H       -33.7729  -24.3848   44.8588  H     
@<TRIPOS>BOND
     1    1    4 1
     2    1    5 1
     3    1   10 2
     4    1   11 2
     5    2    3 1
     6    2    6 am
     7    2   17 2
     8    3    7 1
     9    3   14 1
    10    4   12 2
    11    4   18 1
    12    5    9 1
    13    6   29 1
    14    6   30 1
    15    7    8 am
    16    8    9 1
    17    8   19 2
    18   12   15 1
    19   13   16 1
    20   13   25 1
    21   13   26 1
    22   14   24 1
    23   15   20 1
    24   15   31 2
    25   16   22 1
    26   16   23 2
    27   18   21 2
    28   20   21 1
    29   20   32 2
    30   22   27 2
    31   23   28 1
    32   24   27 1
    33   24   28 2
    34   29   34 1
    35   30   33 1
    36   31   35 1
    37   32   36 1
    38   33   37 1
    39   34   37 1
    40   35   36 2
    41    3   38 1
    42    5   39 1
    43    7   40 1
    44    9   41 1
    45    9   42 1
    46   12   43 1
    47   13   44 1
    48   14   45 1
    49   14   46 1
    50   18   47 1
    51   21   48 1
    52   22   49 1
    53   23   50 1
    54   25   51 1
    55   25   52 1
    56   25   53 1
    57   26   54 1
    58   26   55 1
    59   26   56 1
    60   27   57 1
    61   28   58 1
    62   29   59 1
    63   29   60 1
    64   30   61 1
    65   30   62 1
    66   31   63 1
    67   32   64 1
    68   33   65 1
    69   33   66 1
    70   34   67 1
    71   34   68 1
    72   35   69 1
    73   36   70 1
    74   37   71 1
    75   37   72 1
@<TRIPOS>PROPERTY_DATA
  Total_Score	| 10.9046
  Crash		| -2.0378
  Polar		| 5.6001
  FragIndex	| 1
  FragRMSD	| 0.189

