@<TRIPOS>MOLECULE
BindingDB_50291362
 75 78 0 0 0
SMALL
NO_CHARGES


@<TRIPOS>ATOM
1    S       -37.5504  -31.6217   47.5623  S     
2    C       -35.1824  -28.2165   42.2456  C     
3    C       -36.4503  -28.9712   42.2343  C     
4    C       -37.4340  -29.9637   47.9974  C     
5    N       -37.7793  -31.9194   45.9201  N     
6    N       -34.9655  -26.9718   42.7406  N     
7    N       -36.3372  -30.0854   43.1406  N     
8    C       -42.2718  -31.3335   40.7732  C     
9    C       -37.1238  -30.3851   44.1687  C     
10   C       -36.8155  -31.5854   44.9255  C     
11   O       -36.3182  -32.4890   48.0753  O     
12   O       -38.7867  -32.2833   48.3155  O     
13   C       -38.5476  -29.2438   48.2654  C     
14   N       -42.5867  -32.3529   41.6087  N     
15   C       -40.9311  -30.8594   40.7115  C     
16   C       -36.8095  -29.4793   40.8023  C     
17   C       -38.4561  -27.9008   48.6578  C     
18   O       -34.2361  -28.8438   41.7758  O     
19   C       -36.1959  -29.3718   48.0600  C     
20   O       -38.1099  -29.7090   44.4423  O     
21   C       -37.1640  -27.3022   48.7410  C     
22   C       -36.0464  -28.0834   48.4250  C     
23   C       -40.6254  -29.4938   40.9342  C     
24   C       -39.8565  -31.7495   40.4638  C     
25   N       -43.2287  -30.7838   39.9947  N     
26   C       -38.2237  -29.9387   40.7085  C     
27   N       -43.8431  -32.6458   42.0041  N     
28   C       -39.2918  -29.0426   40.9379  C     
29   C       -38.5260  -31.2960   40.4580  C     
30   C       -36.0009  -26.1946   43.4051  C     
31   C       -33.6258  -26.3931   42.7964  C     
32   C       -39.5976  -27.1338   48.9839  C     
33   C       -37.0457  -25.9479   49.1287  C     
34   C       -33.0247  -26.4109   44.2312  C     
35   C       -36.0929  -26.6219   44.8964  C     
36   C       -39.4672  -25.7867   49.3689  C     
37   C       -38.1946  -25.1935   49.4361  C     
38   C       -35.0710  -25.9130   45.8326  C     
39   C       -33.7145  -25.4470   45.2339  C     
40   H       -37.2806  -28.3464   42.5519  H     
41   H       -38.6805  -32.1097   45.6217  H     
42   H       -35.6018  -30.6960   42.9714  H     
43   H       -35.8224  -31.4816   45.3727  H     
44   H       -36.7801  -32.4289   44.2318  H     
45   H       -39.4431  -29.6697   48.1995  H     
46   H       -41.8686  -32.8719   41.9997  H     
47   H       -36.6528  -28.6742   40.0785  H     
48   H       -36.1309  -30.2898   40.5146  H     
49   H       -35.3804  -29.8935   47.8324  H     
50   H       -35.1316  -27.6938   48.4595  H     
51   H       -41.3684  -28.8193   41.1342  H     
52   H       -40.0304  -32.7424   40.2802  H     
53   H       -43.0067  -30.0665   39.3810  H     
54   H       -43.8187  -33.4429   42.6429  H     
55   H       -44.4241  -32.8754   41.1973  H     
56   H       -44.2410  -31.8406   42.4897  H     
57   H       -39.1036  -28.0567   41.1388  H     
58   H       -37.7749  -31.9715   40.3024  H     
59   H       -35.7963  -25.1211   43.3538  H     
60   H       -36.9669  -26.2858   42.9090  H     
61   H       -32.9177  -26.9074   42.1420  H     
62   H       -33.6479  -25.3643   42.4249  H     
63   H       -40.5295  -27.5512   48.9576  H     
64   H       -36.1280  -25.5017   49.1896  H     
65   H       -33.0494  -27.4288   44.6288  H     
66   H       -31.9739  -26.1170   44.1514  H     
67   H       -37.1041  -26.4261   45.2652  H     
68   H       -35.9461  -27.7028   44.9748  H     
69   H       -40.2987  -25.2373   49.5996  H     
70   H       -38.1049  -24.2136   49.7171  H     
71   H       -35.5568  -25.0347   46.2667  H     
72   H       -34.8538  -26.5815   46.6655  H     
73   H       -33.0373  -25.2948   46.0740  H     
74   H       -33.8419  -24.4717   44.7584  H     
75   H       -44.1091  -31.1924   39.9511  H     
@<TRIPOS>BOND
     1    1    4 1
     2    1    5 1
     3    1   11 2
     4    1   12 2
     5    2    3 1
     6    2    6 am
     7    2   18 2
     8    3    7 1
     9    3   16 1
    10    4   13 2
    11    4   19 1
    12    5   10 1
    13    6   30 1
    14    6   31 1
    15    7    9 am
    16    8   14 1
    17    8   15 1
    18    8   25 2
    19    9   10 1
    20    9   20 2
    21   13   17 1
    22   14   27 1
    23   15   23 1
    24   15   24 2
    25   16   26 1
    26   17   21 1
    27   17   32 2
    28   19   22 2
    29   21   22 1
    30   21   33 2
    31   23   28 2
    32   24   29 1
    33   26   28 1
    34   26   29 2
    35   30   35 1
    36   31   34 1
    37   32   36 1
    38   33   37 1
    39   34   39 1
    40   35   38 1
    41   36   37 2
    42   38   39 1
    43    3   40 1
    44    5   41 1
    45    7   42 1
    46   10   43 1
    47   10   44 1
    48   13   45 1
    49   14   46 1
    50   16   47 1
    51   16   48 1
    52   19   49 1
    53   22   50 1
    54   23   51 1
    55   24   52 1
    56   25   53 1
    57   27   54 1
    58   27   55 1
    59   27   56 1
    60   28   57 1
    61   29   58 1
    62   30   59 1
    63   30   60 1
    64   31   61 1
    65   31   62 1
    66   32   63 1
    67   33   64 1
    68   34   65 1
    69   34   66 1
    70   35   67 1
    71   35   68 1
    72   36   69 1
    73   37   70 1
    74   38   71 1
    75   38   72 1
    76   39   73 1
    77   39   74 1
    78   25   75 1
@<TRIPOS>PROPERTY_DATA
  Total_Score	| 10.4533
  Crash		| -2.4897
  Polar		| 6.0437
  FragIndex	| 1
  FragRMSD	| 0.355

