@<TRIPOS>MOLECULE
BindingDB_50291360
 72 75 0 0 0
SMALL
NO_CHARGES


@<TRIPOS>ATOM
1    S       -37.6093  -31.5107   47.6214  S     
2    C       -35.1631  -28.2475   42.3600  C     
3    C       -36.4771  -28.9116   42.3005  C     
4    C       -37.4771  -29.8473   48.0224  C     
5    N       -37.8599  -31.8383   45.9817  N     
6    N       -34.8422  -27.0951   42.9920  N     
7    N       -36.4095  -30.0304   43.1960  N     
8    C       -42.3900  -31.3079   40.6757  C     
9    C       -37.2134  -30.3212   44.2067  C     
10   C       -36.9198  -31.5214   44.9615  C     
11   O       -36.3795  -32.3850   48.1187  O     
12   O       -38.8517  -32.1616   48.3751  O     
13   C       -38.5780  -29.1155   48.3184  C     
14   N       -43.5688  -30.6505   40.4631  N     
15   C       -41.0408  -30.7872   40.6667  C     
16   C       -36.8736  -29.4193   40.8724  C     
17   C       -38.4712  -27.7639   48.6805  C     
18   O       -34.2648  -28.8857   41.8184  O     
19   C       -36.2335  -29.2525   48.0484  C     
20   O       -38.2089  -29.6520   44.4678  O     
21   C       -37.1760  -27.1719   48.7199  C     
22   C       -36.0698  -27.9644   48.3964  C     
23   C       -40.7153  -29.4277   40.9023  C     
24   C       -39.9442  -31.6635   40.4163  C     
25   N       -42.6051  -32.6183   40.9307  N     
26   C       -38.2899  -29.8795   40.7593  C     
27   N       -43.8424  -29.3477   40.6416  N     
28   C       -39.3730  -28.9843   40.9363  C     
29   C       -38.6077  -31.2192   40.4635  C     
30   C       -35.7439  -26.3535   43.8677  C     
31   C       -33.5231  -26.4685   42.8333  C     
32   C       -39.6009  -26.9852   49.0122  C     
33   C       -37.0372  -25.8150   49.0791  C     
34   C       -32.8250  -26.2124   44.1964  C     
35   C       -35.1183  -26.0955   45.2648  C     
36   C       -39.4561  -25.6338   49.3624  C     
37   C       -38.1763  -25.0506   49.3984  C     
38   C       -33.7385  -25.4025   45.1430  C     
39   H       -37.2693  -28.2222   42.5837  H     
40   H       -38.7365  -32.1474   45.7084  H     
41   H       -35.6762  -30.6513   43.0440  H     
42   H       -35.9142  -31.4395   45.3845  H     
43   H       -36.9279  -32.3686   44.2695  H     
44   H       -39.4763  -29.5426   48.2898  H     
45   H       -44.3075  -31.1943   40.1236  H     
46   H       -36.7261  -28.6195   40.1438  H     
47   H       -36.1993  -30.2322   40.5809  H     
48   H       -35.4251  -29.7835   47.8070  H     
49   H       -35.1530  -27.5764   48.4159  H     
50   H       -41.4415  -28.7375   41.0851  H     
51   H       -40.0973  -32.6503   40.2111  H     
52   H       -41.8793  -33.2049   41.1736  H     
53   H       -43.6032  -29.0626   41.5986  H     
54   H       -44.8597  -29.2125   40.4983  H     
55   H       -43.3214  -28.7926   39.9435  H     
56   H       -39.1895  -27.9934   41.1132  H     
57   H       -37.8590  -31.8995   40.2996  H     
58   H       -35.9764  -25.3906   43.3990  H     
59   H       -36.6952  -26.8436   44.0682  H     
60   H       -32.8300  -27.0396   42.2142  H     
61   H       -33.6503  -25.5066   42.3328  H     
62   H       -40.5378  -27.4008   49.0050  H     
63   H       -36.1156  -25.3747   49.1061  H     
64   H       -32.5782  -27.1687   44.6659  H     
65   H       -31.8908  -25.6677   44.0304  H     
66   H       -35.7807  -25.4712   45.8655  H     
67   H       -34.9888  -27.0506   45.7787  H     
68   H       -40.2768  -25.0761   49.5888  H     
69   H       -38.0704  -24.0719   49.6549  H     
70   H       -33.2752  -25.3329   46.1315  H     
71   H       -33.8670  -24.3884   44.7576  H     
72   H       -43.5161  -32.9777   40.9198  H     
@<TRIPOS>BOND
     1    1    4 1
     2    1    5 1
     3    1   11 2
     4    1   12 2
     5    2    3 1
     6    2    6 am
     7    2   18 2
     8    3    7 1
     9    3   16 1
    10    4   13 2
    11    4   19 1
    12    5   10 1
    13    6   30 1
    14    6   31 1
    15    7    9 am
    16    8   14 1
    17    8   15 1
    18    8   25 2
    19    9   10 1
    20    9   20 2
    21   13   17 1
    22   14   27 1
    23   15   23 1
    24   15   24 2
    25   16   26 1
    26   17   21 1
    27   17   32 2
    28   19   22 2
    29   21   22 1
    30   21   33 2
    31   23   28 2
    32   24   29 1
    33   26   28 1
    34   26   29 2
    35   30   35 1
    36   31   34 1
    37   32   36 1
    38   33   37 1
    39   34   38 1
    40   35   38 1
    41   36   37 2
    42    3   39 1
    43    5   40 1
    44    7   41 1
    45   10   42 1
    46   10   43 1
    47   13   44 1
    48   14   45 1
    49   16   46 1
    50   16   47 1
    51   19   48 1
    52   22   49 1
    53   23   50 1
    54   24   51 1
    55   25   52 1
    56   27   53 1
    57   27   54 1
    58   27   55 1
    59   28   56 1
    60   29   57 1
    61   30   58 1
    62   30   59 1
    63   31   60 1
    64   31   61 1
    65   32   62 1
    66   33   63 1
    67   34   64 1
    68   34   65 1
    69   35   66 1
    70   35   67 1
    71   36   68 1
    72   37   69 1
    73   38   70 1
    74   38   71 1
    75   25   72 1
@<TRIPOS>PROPERTY_DATA
  Total_Score	| 10.7182
  Crash		| -2.2223
  Polar		| 5.7418
  FragIndex	| 1
  FragRMSD	| 0.594

