@<TRIPOS>MOLECULE
BindingDB_50291358
 65 68 0 0 0
SMALL
NO_CHARGES


@<TRIPOS>ATOM
1    S       -37.4155  -31.5714   47.8018  S     
2    C       -36.7334  -31.1257   45.1547  C     
3    N       -37.6153  -31.7092   46.1350  N     
4    C       -37.6022  -30.7065   44.0257  C     
5    C       -37.3469  -29.9279   48.2913  C     
6    N       -37.3754  -30.6138   42.6874  N     
7    C       -34.6382  -36.6524   41.6935  C     
8    O       -36.1383  -32.4145   48.2336  O     
9    O       -38.6845  -32.2747   48.4549  O     
10   C       -38.4882  -29.2482   48.5413  C     
11   C       -35.4553  -32.0488   45.1078  C     
12   C       -34.9186  -35.4598   42.4281  C     
13   N       -35.1192  -37.8653   42.0492  N     
14   C       -38.4552  -27.8750   48.8215  C     
15   O       -38.7208  -30.3354   44.4094  O     
16   C       -36.1292  -29.2826   48.3152  C     
17   C       -37.1929  -27.2093   48.7980  C     
18   C       -36.0391  -27.9575   48.5349  C     
19   C       -33.9566  -34.4263   42.5204  C     
20   C       -36.1254  -35.2882   43.1424  C     
21   N       -33.8132  -36.6863   40.6283  N     
22   C       -35.3676  -33.1386   44.0712  C     
23   C       -36.3406  -34.1596   43.9623  C     
24   C       -34.1652  -33.3029   43.3355  C     
25   C       -38.5408  -30.6910   41.7928  C     
26   C       -36.0540  -30.4690   42.1057  C     
27   C       -39.6313  -27.1385   49.0940  C     
28   C       -37.1409  -25.8171   49.0270  C     
29   C       -35.8535  -29.1605   41.2923  C     
30   C       -38.3795  -30.7426   40.2398  C     
31   C       -39.5611  -25.7536   49.3316  C     
32   C       -38.3180  -25.0986   49.2925  C     
33   C       -37.8364  -29.4247   39.6309  C     
34   C       -36.3126  -29.2425   39.8145  C     
35   H       -36.3710  -30.1657   45.5477  H     
36   H       -38.3850  -32.2210   45.8155  H     
37   H       -39.3674  -29.7157   48.4958  H     
38   H       -34.5692  -31.3992   45.1136  H     
39   H       -35.3875  -32.5911   46.0443  H     
40   H       -34.8070  -38.6541   41.5745  H     
41   H       -35.2904  -29.7842   48.1320  H     
42   H       -35.1416  -27.5228   48.5107  H     
43   H       -33.0713  -34.4988   42.0106  H     
44   H       -36.8719  -35.9843   43.0751  H     
45   H       -33.5862  -37.5480   40.2387  H     
46   H       -33.3970  -35.8726   40.2842  H     
47   H       -37.2244  -34.0890   44.4742  H     
48   H       -33.4192  -32.6065   43.4034  H     
49   H       -39.0951  -31.6029   42.0660  H     
50   H       -39.1983  -29.8361   42.0087  H     
51   H       -35.2718  -30.4824   42.8695  H     
52   H       -35.8565  -31.3387   41.4763  H     
53   H       -40.5413  -27.6034   49.1067  H     
54   H       -36.2543  -25.3129   49.0045  H     
55   H       -36.3595  -28.3227   41.7808  H     
56   H       -34.7857  -28.9312   41.2710  H     
57   H       -37.7546  -31.5984   39.9448  H     
58   H       -39.3779  -30.9133   39.8187  H     
59   H       -40.4115  -25.2147   49.5120  H     
60   H       -38.2650  -24.0927   49.4549  H     
61   H       -38.0459  -29.4344   38.5557  H     
62   H       -38.3755  -28.5694   40.0607  H     
63   H       -36.0094  -28.3254   39.3097  H     
64   H       -35.7881  -30.0684   39.3305  H     
65   H       -35.7200  -37.9692   42.8118  H     
@<TRIPOS>BOND
     1    1    3 1
     2    1    5 1
     3    1    8 2
     4    1    9 2
     5    2    3 1
     6    2    4 1
     7    2   11 1
     8    4    6 am
     9    4   15 2
    10    5   10 2
    11    5   16 1
    12    6   25 1
    13    6   26 1
    14    7   12 1
    15    7   13 2
    16    7   21 1
    17   10   14 1
    18   11   22 1
    19   12   19 2
    20   12   20 1
    21   14   17 1
    22   14   27 2
    23   16   18 2
    24   17   18 1
    25   17   28 2
    26   19   24 1
    27   20   23 2
    28   22   23 1
    29   22   24 2
    30   25   30 1
    31   26   29 1
    32   27   31 1
    33   28   32 1
    34   29   34 1
    35   30   33 1
    36   31   32 2
    37   33   34 1
    38    2   35 1
    39    3   36 1
    40   10   37 1
    41   11   38 1
    42   11   39 1
    43   13   40 1
    44   16   41 1
    45   18   42 1
    46   19   43 1
    47   20   44 1
    48   21   45 1
    49   21   46 1
    50   23   47 1
    51   24   48 1
    52   25   49 1
    53   25   50 1
    54   26   51 1
    55   26   52 1
    56   27   53 1
    57   28   54 1
    58   29   55 1
    59   29   56 1
    60   30   57 1
    61   30   58 1
    62   31   59 1
    63   32   60 1
    64   33   61 1
    65   33   62 1
    66   34   63 1
    67   34   64 1
    68   13   65 1
@<TRIPOS>PROPERTY_DATA
  Total_Score	| 5.2774
  Crash		| -1.9534
  Polar		| 3.1571
  FragIndex	| 1
  FragRMSD	| 0.836

