@<TRIPOS>MOLECULE
BindingDB_50037996
 69 72 0 0 0
SMALL
NO_CHARGES


@<TRIPOS>ATOM
1    S       -37.6425  -31.3597   47.6950  S     
2    C       -35.3124  -27.9231   42.2185  C     
3    C       -36.5848  -28.6563   42.3796  C     
4    C       -37.8712  -29.7139   48.1373  C     
5    N       -37.7643  -31.6779   46.0465  N     
6    N       -34.6601  -27.2241   43.1822  N     
7    N       -36.3376  -29.6844   43.3570  N     
8    C       -42.6159  -31.2929   40.8727  C     
9    C       -37.1374  -30.0751   44.3457  C     
10   C       -36.7781  -31.2609   45.1021  C     
11   O       -36.2671  -31.9590   48.2323  O     
12   O       -38.7549  -32.2682   48.3797  O     
13   C       -36.8130  -28.8715   48.1878  C     
14   C       -41.3239  -30.7090   41.0612  C     
15   N       -43.6682  -30.6176   40.3749  N     
16   C       -37.1765  -29.3280   41.0885  C     
17   C       -36.9734  -27.5469   48.6211  C     
18   O       -34.7805  -28.0182   41.1190  O     
19   C       -39.1330  -29.2637   48.4575  C     
20   O       -38.2222  -29.5248   44.5392  O     
21   C       -38.2787  -27.1027   48.9912  C     
22   C       -39.3441  -28.0018   48.8874  C     
23   C       -40.3289  -31.3864   41.8098  C     
24   C       -40.9498  -29.4911   40.4359  C     
25   N       -42.8657  -32.5975   41.1055  N     
26   C       -38.6125  -29.7440   41.1619  C     
27   C       -39.6230  -29.0154   40.4889  C     
28   C       -39.0043  -30.9241   41.8424  C     
29   C       -33.3602  -26.6167   42.8853  C     
30   C       -35.2064  -26.9890   44.5128  C     
31   C       -35.8792  -26.6558   48.7247  C     
32   C       -38.4631  -25.7798   49.4544  C     
33   C       -34.9761  -25.5223   44.9609  C     
34   C       -32.5806  -26.0409   44.1018  C     
35   C       -36.0748  -25.3418   49.1924  C     
36   C       -37.3619  -24.9078   49.5606  C     
37   C       -33.4690  -25.1595   45.0240  C     
38   H       -37.3414  -27.9328   42.7023  H     
39   H       -38.6457  -31.9045   45.7007  H     
40   H       -35.5309  -30.2092   43.2279  H     
41   H       -35.8133  -31.0898   45.5869  H     
42   H       -36.6552  -32.0945   44.4053  H     
43   H       -35.9041  -29.1930   47.9365  H     
44   H       -44.4887  -31.1002   40.1899  H     
45   H       -37.0577  -28.6423   40.2509  H     
46   H       -36.5821  -30.2052   40.8340  H     
47   H       -39.9166  -29.8715   48.3703  H     
48   H       -40.2664  -27.7162   49.1267  H     
49   H       -40.5421  -32.2542   42.3110  H     
50   H       -41.6284  -28.9556   39.8861  H     
51   H       -43.7447  -32.9616   40.9077  H     
52   H       -42.1651  -33.1964   41.4171  H     
53   H       -39.3891  -28.1491   39.9936  H     
54   H       -38.3228  -31.5049   42.3186  H     
55   H       -32.7068  -27.3454   42.4007  H     
56   H       -33.5208  -25.8045   42.1743  H     
57   H       -36.2747  -27.1667   44.5868  H     
58   H       -34.7182  -27.6653   45.2137  H     
59   H       -34.9330  -26.9581   48.4703  H     
60   H       -39.3922  -25.4438   49.7258  H     
61   H       -35.4633  -24.8658   44.2353  H     
62   H       -35.4413  -25.3486   45.9346  H     
63   H       -32.1912  -26.8788   44.6844  H     
64   H       -31.7244  -25.4628   43.7495  H     
65   H       -35.2782  -24.7004   49.2667  H     
66   H       -37.4974  -23.9550   49.9049  H     
67   H       -33.3457  -24.1064   44.7548  H     
68   H       -33.1187  -25.2730   46.0535  H     
69   H       -43.6034  -29.6785   40.1529  H     
@<TRIPOS>BOND
     1    1    4 1
     2    1    5 1
     3    1   11 2
     4    1   12 2
     5    2    3 1
     6    2    6 am
     7    2   18 2
     8    3    7 1
     9    3   16 1
    10    4   13 2
    11    4   19 1
    12    5   10 1
    13    6   29 1
    14    6   30 1
    15    7    9 am
    16    8   14 1
    17    8   15 2
    18    8   25 1
    19    9   10 1
    20    9   20 2
    21   13   17 1
    22   14   23 2
    23   14   24 1
    24   16   26 1
    25   17   21 1
    26   17   31 2
    27   19   22 2
    28   21   22 1
    29   21   32 2
    30   23   28 1
    31   24   27 2
    32   26   27 1
    33   26   28 2
    34   29   34 1
    35   30   33 1
    36   31   35 1
    37   32   36 1
    38   33   37 1
    39   34   37 1
    40   35   36 2
    41    3   38 1
    42    5   39 1
    43    7   40 1
    44   10   41 1
    45   10   42 1
    46   13   43 1
    47   15   44 1
    48   16   45 1
    49   16   46 1
    50   19   47 1
    51   22   48 1
    52   23   49 1
    53   24   50 1
    54   25   51 1
    55   25   52 1
    56   27   53 1
    57   28   54 1
    58   29   55 1
    59   29   56 1
    60   30   57 1
    61   30   58 1
    62   31   59 1
    63   32   60 1
    64   33   61 1
    65   33   62 1
    66   34   63 1
    67   34   64 1
    68   35   65 1
    69   36   66 1
    70   37   67 1
    71   37   68 1
    72   15   69 1
@<TRIPOS>PROPERTY_DATA
  Total_Score	| 10.6446
  Crash		| -1.9912
  Polar		| 5.1814
  FragIndex	| 1
  FragRMSD	| 0.797

