@<TRIPOS>MOLECULE
BindingDB_50291364
 72 75 0 0 0
SMALL
NO_CHARGES


@<TRIPOS>ATOM
1    S       -37.6110  -31.5763   47.5836  S     
2    C       -35.1469  -28.2644   42.4082  C     
3    C       -36.4566  -28.9487   42.3337  C     
4    C       -37.5012  -29.8995   47.9482  C     
5    N       -37.8480  -31.9530   45.9542  N     
6    N       -34.8363  -27.0861   43.0028  N     
7    N       -36.4090  -30.1025   43.1827  N     
8    C       -42.3391  -31.3062   40.6665  C     
9    C       -37.2172  -30.4232   44.1874  C     
10   C       -36.9061  -31.6311   44.9351  C     
11   O       -36.3659  -32.4148   48.1201  O     
12   O       -38.8334  -32.2179   48.3738  O     
13   C       -38.6048  -29.1971   48.2935  C     
14   C       -40.9979  -30.7932   40.6465  C     
15   N       -43.5161  -30.6715   40.3826  N     
16   C       -36.8574  -29.3721   40.8825  C     
17   C       -38.5175  -27.8411   48.6400  C     
18   O       -34.2408  -28.9100   41.8892  O     
19   C       -36.2743  -29.2762   47.8986  C     
20   O       -38.1941  -29.7380   44.4748  O     
21   C       -37.2394  -27.2126   48.5957  C     
22   C       -36.1326  -27.9736   48.2151  C     
23   C       -40.6769  -29.4344   40.9027  C     
24   C       -39.8952  -31.6637   40.4263  C     
25   N       -42.5453  -32.6071   40.9941  N     
26   C       -38.2675  -29.8592   40.7583  C     
27   C       -39.3491  -28.9661   40.9003  C     
28   C       -38.5633  -31.2138   40.4911  C     
29   C       -33.5277  -26.4482   42.8097  C     
30   C       -35.7269  -26.3165   43.8668  C     
31   C       -43.8205  -29.3077   40.2158  C     
32   C       -39.6447  -27.0910   49.0414  C     
33   C       -37.1174  -25.8498   48.9464  C     
34   C       -35.0926  -26.0696   45.2591  C     
35   C       -32.8026  -26.2021   44.1623  C     
36   C       -39.5147  -25.7350   49.3824  C     
37   C       -38.2524  -25.1144   49.3350  C     
38   C       -33.7020  -25.4066   45.1363  C     
39   H       -37.2338  -28.2692   42.6569  H     
40   H       -38.7398  -32.2132   45.6769  H     
41   H       -35.7053  -30.7364   42.9753  H     
42   H       -35.9013  -31.5383   45.3585  H     
43   H       -36.8979  -32.4768   44.2408  H     
44   H       -39.4927  -29.6493   48.3204  H     
45   H       -44.2653  -31.2773   40.1695  H     
46   H       -36.7293  -28.5227   40.2109  H     
47   H       -36.1659  -30.1484   40.5496  H     
48   H       -35.4654  -29.7876   47.6287  H     
49   H       -35.2311  -27.5597   48.1741  H     
50   H       -41.3980  -28.7508   41.1110  H     
51   H       -40.0510  -32.6543   40.2372  H     
52   H       -43.4356  -32.9856   40.9762  H     
53   H       -39.1989  -27.9719   41.0591  H     
54   H       -37.8075  -31.8805   40.3392  H     
55   H       -32.8423  -27.0071   42.1637  H     
56   H       -33.6727  -25.4737   42.3259  H     
57   H       -35.9470  -25.3567   43.3843  H     
58   H       -36.6886  -26.7772   44.0857  H     
59   H       -43.5714  -28.7002   41.0987  H     
60   H       -44.8955  -29.2013   40.0423  H     
61   H       -43.2817  -28.9212   39.3256  H     
62   H       -40.5665  -27.5280   49.0987  H     
63   H       -36.2062  -25.3839   48.9217  H     
64   H       -35.7475  -25.4248   45.8520  H     
65   H       -34.9912  -27.0284   45.7772  H     
66   H       -32.5368  -27.1586   44.6185  H     
67   H       -31.8783  -25.6381   43.9836  H     
68   H       -40.3347  -25.1965   49.6697  H     
69   H       -38.1574  -24.1272   49.5823  H     
70   H       -33.8187  -24.3760   44.7792  H     
71   H       -33.2481  -25.3769   46.1283  H     
72   H       -41.8067  -33.1776   41.2674  H     
@<TRIPOS>BOND
     1    1    4 1
     2    1    5 1
     3    1   11 2
     4    1   12 2
     5    2    3 1
     6    2    6 am
     7    2   18 2
     8    3    7 1
     9    3   16 1
    10    4   13 2
    11    4   19 1
    12    5   10 1
    13    6   29 1
    14    6   30 1
    15    7    9 am
    16    8   14 1
    17    8   15 1
    18    8   25 2
    19    9   10 1
    20    9   20 2
    21   13   17 1
    22   14   23 1
    23   14   24 2
    24   15   31 1
    25   16   26 1
    26   17   21 1
    27   17   32 2
    28   19   22 2
    29   21   22 1
    30   21   33 2
    31   23   27 2
    32   24   28 1
    33   26   27 1
    34   26   28 2
    35   29   35 1
    36   30   34 1
    37   32   36 1
    38   33   37 1
    39   34   38 1
    40   35   38 1
    41   36   37 2
    42    3   39 1
    43    5   40 1
    44    7   41 1
    45   10   42 1
    46   10   43 1
    47   13   44 1
    48   15   45 1
    49   16   46 1
    50   16   47 1
    51   19   48 1
    52   22   49 1
    53   23   50 1
    54   24   51 1
    55   25   52 1
    56   27   53 1
    57   28   54 1
    58   29   55 1
    59   29   56 1
    60   30   57 1
    61   30   58 1
    62   31   59 1
    63   31   60 1
    64   31   61 1
    65   32   62 1
    66   33   63 1
    67   34   64 1
    68   34   65 1
    69   35   66 1
    70   35   67 1
    71   36   68 1
    72   37   69 1
    73   38   70 1
    74   38   71 1
    75   25   72 1
@<TRIPOS>PROPERTY_DATA
  Total_Score	| 10.4005
  Crash		| -2.3564
  Polar		| 5.0406
  FragIndex	| 1
  FragRMSD	| 0.568

