@<TRIPOS>MOLECULE
BindingDB_50098246
 75 78 0 0 0
SMALL
NO_CHARGES


@<TRIPOS>ATOM
1    S       -37.5640  -31.3325   47.7621  S     
2    C       -35.1093  -28.2412   42.4612  C     
3    C       -36.4247  -28.9027   42.4138  C     
4    C       -37.8347  -29.6926   48.1878  C     
5    N       -37.8836  -31.7284   46.1525  N     
6    N       -34.7850  -27.0626   43.0463  N     
7    N       -36.3867  -30.0028   43.3349  N     
8    C       -37.2289  -30.2874   44.3144  C     
9    C       -36.9681  -31.4878   45.0877  C     
10   O       -36.1217  -31.8680   48.1676  O     
11   O       -38.5216  -32.2741   48.6096  O     
12   C       -36.7970  -28.8262   48.2439  C     
13   C       -42.4194  -31.1048   40.8507  C     
14   C       -36.7991  -29.4396   40.9920  C     
15   C       -36.9925  -27.5007   48.6579  C     
16   C       -40.9726  -30.7054   40.8173  C     
17   O       -34.2113  -28.8937   41.9341  O     
18   C       -39.1076  -29.2706   48.4982  C     
19   O       -38.2257  -29.6023   44.5312  O     
20   C       -38.3099  -27.0807   48.9976  C     
21   C       -39.3535  -28.0059   48.8928  C     
22   N       -43.1723  -30.5560   39.6886  N     
23   C       -39.9143  -31.6394   40.6499  C     
24   C       -40.6231  -29.3423   40.9970  C     
25   C       -38.2257  -29.8727   40.8836  C     
26   N       -42.6495  -32.5628   40.8303  N     
27   N       -43.8479  -29.3489   39.9171  N     
28   C       -38.5700  -31.2323   40.6925  C     
29   C       -39.2779  -28.9348   41.0217  C     
30   C       -33.4916  -26.4133   42.8235  C     
31   C       -35.6745  -26.3016   43.9186  C     
32   C       -35.9225  -26.5834   48.7718  C     
33   C       -38.5337  -25.7577   49.4427  C     
34   C       -35.0152  -26.0373   45.2983  C     
35   C       -32.7445  -26.1156   44.1517  C     
36   C       -36.1594  -25.2687   49.2184  C     
37   C       -37.4590  -24.8574   49.5546  C     
38   C       -33.6464  -25.3377   45.1415  C     
39   H       -37.2147  -28.2031   42.6669  H     
40   H       -38.7917  -31.9744   45.9187  H     
41   H       -35.6595  -30.6342   43.1989  H     
42   H       -35.9412  -31.4446   45.4655  H     
43   H       -37.0379  -32.3495   44.4155  H     
44   H       -35.8783  -29.1284   48.0094  H     
45   H       -42.8543  -30.7508   41.7903  H     
46   H       -36.6227  -28.6591   40.2452  H     
47   H       -36.1404  -30.2768   40.7335  H     
48   H       -39.8724  -29.9021   48.4440  H     
49   H       -40.2828  -27.7370   49.1258  H     
50   H       -42.5252  -30.4228   38.9125  H     
51   H       -43.8800  -31.2358   39.3968  H     
52   H       -40.1029  -32.6378   40.5254  H     
53   H       -41.3474  -28.6300   41.1432  H     
54   H       -42.3809  -32.9344   39.9146  H     
55   H       -43.6443  -32.7732   40.9674  H     
56   H       -42.1029  -33.0154   41.5710  H     
57   H       -44.5586  -29.4874   40.6397  H     
58   H       -44.3129  -29.0558   39.0540  H     
59   H       -43.1980  -28.6190   40.2088  H     
60   H       -37.8422  -31.9459   40.6070  H     
61   H       -39.0651  -27.9437   41.1637  H     
62   H       -32.8097  -26.9898   42.1885  H     
63   H       -33.6607  -25.4623   42.3057  H     
64   H       -35.9103  -25.3475   43.4366  H     
65   H       -36.6225  -26.7810   44.1405  H     
66   H       -34.9681  -26.8657   48.5396  H     
67   H       -39.4749  -25.4439   49.6943  H     
68   H       -35.6725  -25.4054   45.9076  H     
69   H       -34.8809  -26.9947   45.8173  H     
70   H       -32.4296  -27.0563   44.6132  H     
71   H       -31.8509  -25.5219   43.9350  H     
72   H       -35.3801  -24.6135   49.3014  H     
73   H       -37.6269  -23.9052   49.8879  H     
74   H       -33.7928  -24.3129   44.7797  H     
75   H       -33.1607  -25.2916   46.1166  H     
@<TRIPOS>BOND
     1    1    4 1
     2    1    5 1
     3    1   10 2
     4    1   11 2
     5    2    3 1
     6    2    6 am
     7    2   17 2
     8    3    7 1
     9    3   14 1
    10    4   12 2
    11    4   18 1
    12    5    9 1
    13    6   30 1
    14    6   31 1
    15    7    8 am
    16    8    9 1
    17    8   19 2
    18   12   15 1
    19   13   16 1
    20   13   22 1
    21   13   26 1
    22   14   25 1
    23   15   20 1
    24   15   32 2
    25   16   23 2
    26   16   24 1
    27   18   21 2
    28   20   21 1
    29   20   33 2
    30   22   27 1
    31   23   28 1
    32   24   29 2
    33   25   28 2
    34   25   29 1
    35   30   35 1
    36   31   34 1
    37   32   36 1
    38   33   37 1
    39   34   38 1
    40   35   38 1
    41   36   37 2
    42    3   39 1
    43    5   40 1
    44    7   41 1
    45    9   42 1
    46    9   43 1
    47   12   44 1
    48   13   45 1
    49   14   46 1
    50   14   47 1
    51   18   48 1
    52   21   49 1
    53   22   50 1
    54   22   51 1
    55   23   52 1
    56   24   53 1
    57   26   54 1
    58   26   55 1
    59   26   56 1
    60   27   57 1
    61   27   58 1
    62   27   59 1
    63   28   60 1
    64   29   61 1
    65   30   62 1
    66   30   63 1
    67   31   64 1
    68   31   65 1
    69   32   66 1
    70   33   67 1
    71   34   68 1
    72   34   69 1
    73   35   70 1
    74   35   71 1
    75   36   72 1
    76   37   73 1
    77   38   74 1
    78   38   75 1
@<TRIPOS>PROPERTY_DATA
  Total_Score	| 11.1091
  Crash		| -2.3190
  Polar		| 5.4159
  FragIndex	| 1
  FragRMSD	| 0.804

