@<TRIPOS>MOLECULE
BindingDB_50072840
 72 75 0 0 0
SMALL
NO_CHARGES


@<TRIPOS>ATOM
1    S       -37.5710  -31.4135   47.5094  S     
2    C       -35.1543  -27.9229   42.0511  C     
3    C       -36.4340  -28.6540   42.1057  C     
4    C       -37.8444  -29.7874   48.0724  C     
5    N       -37.6232  -31.5589   45.8366  N     
6    N       -34.8006  -26.8125   42.7462  N     
7    N       -36.2564  -29.6699   43.1021  N     
8    C       -37.0593  -29.9960   44.1021  C     
9    C       -36.6039  -31.0550   44.9811  C     
10   O       -36.1971  -32.0204   48.0367  O     
11   O       -38.6851  -32.4015   48.0777  O     
12   C       -36.7702  -28.8788   48.1766  C     
13   C       -42.4143  -31.3139   40.9402  C     
14   C       -36.8807  -29.3543   40.7788  C     
15   C       -36.9887  -27.5563   48.6313  C     
16   C       -40.9915  -30.8526   40.8788  C     
17   O       -34.2927  -28.5119   41.4080  O     
18   C       -39.1456  -29.3707   48.4188  C     
19   O       -38.1454  -29.4520   44.2635  O     
20   C       -38.3098  -27.1467   48.9814  C     
21   C       -39.3753  -28.0612   48.8749  C     
22   C       -39.8977  -31.7417   40.7349  C     
23   C       -40.7013  -29.4729   40.9672  C     
24   C       -38.2817  -29.8803   40.8039  C     
25   N       -43.2107  -30.6981   39.8706  N     
26   N       -42.6080  -32.7697   40.8295  N     
27   C       -38.5712  -31.2616   40.6893  C     
28   C       -39.3794  -28.9941   40.9173  C     
29   C       -33.4492  -26.2497   42.6831  C     
30   C       -35.6785  -26.0783   43.6558  C     
31   C       -35.9476  -26.6274   48.7517  C     
32   C       -38.5066  -25.8349   49.4344  C     
33   C       -35.1052  -26.0796   45.0999  C     
34   C       -32.7747  -26.2524   44.0817  C     
35   C       -36.1989  -25.3770   49.1914  C     
36   C       -37.4630  -24.9858   49.5362  C     
37   C       -33.6560  -25.5345   45.1347  C     
38   H       -37.2455  -27.9767   42.3666  H     
39   H       -38.4396  -31.8722   45.4195  H     
40   H       -35.4483  -30.2030   43.0233  H     
41   H       -35.7477  -30.6818   45.5511  H     
42   H       -36.2595  -31.8979   44.3842  H     
43   H       -35.8231  -29.1789   47.9243  H     
44   H       -42.8388  -31.0010   41.8948  H     
45   H       -36.8116  -28.6370   39.9554  H     
46   H       -36.1831  -30.1632   40.5407  H     
47   H       -39.9338  -30.0150   48.3452  H     
48   H       -40.3255  -27.7842   49.1352  H     
49   H       -40.0530  -32.7472   40.6606  H     
50   H       -41.4616  -28.7951   41.0654  H     
51   H       -43.3539  -29.7035   40.0678  H     
52   H       -44.1186  -31.1686   39.8074  H     
53   H       -42.7180  -30.7999   38.9805  H     
54   H       -42.3286  -33.0742   39.8981  H     
55   H       -43.5944  -33.0179   40.9683  H     
56   H       -42.0385  -33.2571   41.5233  H     
57   H       -37.8072  -31.9320   40.5772  H     
58   H       -39.2206  -27.9874   40.9666  H     
59   H       -32.7808  -26.7671   41.9890  H     
60   H       -33.5076  -25.2170   42.3276  H     
61   H       -35.7526  -25.0420   43.3074  H     
62   H       -36.6988  -26.4480   43.7270  H     
63   H       -35.0179  -26.8815   48.5135  H     
64   H       -39.4167  -25.5187   49.6822  H     
65   H       -35.7312  -25.4638   45.7522  H     
66   H       -35.1191  -27.1040   45.4877  H     
67   H       -32.6164  -27.2855   44.3981  H     
68   H       -31.8012  -25.7633   44.0153  H     
69   H       -35.4521  -24.7246   49.2619  H     
70   H       -37.6180  -24.0582   49.8643  H     
71   H       -33.6611  -24.4606   44.9245  H     
72   H       -33.2290  -25.6853   46.1290  H     
@<TRIPOS>BOND
     1    1    4 1
     2    1    5 1
     3    1   10 2
     4    1   11 2
     5    2    3 1
     6    2    6 am
     7    2   17 2
     8    3    7 1
     9    3   14 1
    10    4   12 1
    11    4   18 2
    12    5    9 1
    13    6   29 1
    14    6   30 1
    15    7    8 am
    16    8    9 1
    17    8   19 2
    18   12   15 2
    19   13   16 1
    20   13   25 1
    21   13   26 1
    22   14   24 1
    23   15   20 1
    24   15   31 1
    25   16   22 1
    26   16   23 2
    27   18   21 1
    28   20   21 2
    29   20   32 1
    30   22   27 2
    31   23   28 1
    32   24   27 1
    33   24   28 2
    34   29   34 1
    35   30   33 1
    36   31   35 2
    37   32   36 2
    38   33   37 1
    39   34   37 1
    40   35   36 1
    41    3   38 1
    42    5   39 1
    43    7   40 1
    44    9   41 1
    45    9   42 1
    46   12   43 1
    47   13   44 1
    48   14   45 1
    49   14   46 1
    50   18   47 1
    51   21   48 1
    52   22   49 1
    53   23   50 1
    54   25   51 1
    55   25   52 1
    56   25   53 1
    57   26   54 1
    58   26   55 1
    59   26   56 1
    60   27   57 1
    61   28   58 1
    62   29   59 1
    63   29   60 1
    64   30   61 1
    65   30   62 1
    66   31   63 1
    67   32   64 1
    68   33   65 1
    69   33   66 1
    70   34   67 1
    71   34   68 1
    72   35   69 1
    73   36   70 1
    74   37   71 1
    75   37   72 1
@<TRIPOS>PROPERTY_DATA
  Total_Score	| 10.5808
  Crash		| -2.0405
  Polar		| 5.7880
  FragIndex	| 1
  FragRMSD	| 0.836

