@<TRIPOS>MOLECULE
BindingDB_50323770
 36 37 0 0 0
SMALL
NO_CHARGES


@<TRIPOS>ATOM
1    C        18.9164   14.9227  109.9274  C     
2    C        17.9571   13.9528  110.5195  C     
3    C        18.4221   16.1142  109.4732  C     
4    C        16.2449   15.4878  109.9108  C     
5    N        17.1273   16.3459  109.5095  N     
6    N        16.6064   14.3292  110.3739  N     
7    C        20.2529   14.5402  109.7947  C     
8    C        18.1615   13.5987  111.9633  C     
9    S        14.5950   15.8191  109.6664  S     
10   C        17.3673   12.5734  112.5375  C     
11   O        20.8544   13.8747  110.8211  O     
12   O        20.9071   14.6838  108.6039  O     
13   C        17.5148   12.1986  113.8903  C     
14   C        19.2530   17.2304  109.0164  C     
15   O        16.7328   11.2438  114.4613  O     
16   C        19.1282   14.2316  112.7833  C     
17   C        19.3062   13.8359  114.1320  C     
18   C        18.4935   12.8300  114.6771  C     
19   C        22.2555   14.3073  108.2828  C     
20   C        22.8628   15.3267  107.2947  C     
21   H        18.0756   13.0363  109.9310  H     
22   H        16.8162   17.1567  109.1569  H     
23   H        15.9432   13.7223  110.6302  H     
24   H        16.6667   12.0901  111.9708  H     
25   H        19.9832   17.4784  109.7858  H     
26   H        18.6679   18.1366  108.8178  H     
27   H        19.7724   16.9723  108.0903  H     
28   H        15.9998   11.0730  113.8361  H     
29   H        19.7290   14.9621  112.4197  H     
30   H        20.0202   14.2888  114.7006  H     
31   H        18.6088   12.5680  115.6610  H     
32   H        22.8808   14.2407  109.1817  H     
33   H        22.2368   13.3191  107.8152  H     
34   H        22.3578   15.2468  106.3265  H     
35   H        23.9293   15.1255  107.1577  H     
36   H        22.7409   16.3425  107.6719  H     
@<TRIPOS>BOND
     1    1    2 1
     2    1    3 2
     3    1    7 1
     4    2    6 1
     5    2    8 1
     6    3    5 1
     7    3   14 1
     8    4    5 1
     9    4    6 1
    10    4    9 2
    11    7   11 2
    12    7   12 1
    13    8   10 1
    14    8   16 2
    15   10   13 2
    16   12   19 1
    17   13   15 1
    18   13   18 1
    19   16   17 1
    20   17   18 2
    21   19   20 1
    22    2   21 1
    23    5   22 1
    24    6   23 1
    25   10   24 1
    26   14   25 1
    27   14   26 1
    28   14   27 1
    29   15   28 1
    30   16   29 1
    31   17   30 1
    32   18   31 1
    33   19   32 1
    34   19   33 1
    35   20   34 1
    36   20   35 1
    37   20   36 1
@<TRIPOS>PROPERTY_DATA
  Total_Score	| 6.2156
  Crash		| -1.3286
  Polar		| 1.1258
  FragIndex	| 1
  FragRMSD	| 0.411

