@<TRIPOS>MOLECULE
BindingDB_50216514
 39 41 0 0 0
SMALL
NO_CHARGES


@<TRIPOS>ATOM
1    C        20.3745   15.6032  107.6618  C     
2    C        21.2814   15.0375  106.5276  C     
3    C        20.3846   17.1708  107.5549  C     
4    C        19.6296   13.7161  114.1869  C     
5    C        19.2866   14.5947  113.1412  C     
6    C        18.1675   14.3430  112.2909  C     
7    C        17.3996   13.1765  112.5601  C     
8    C        17.7029   12.3311  113.6557  C     
9    C        18.8391   12.5937  114.4559  C     
10   C        17.8084   15.3360  111.2154  C     
11   N        16.4328   15.2940  110.8873  N     
12   C        15.9929   15.1407  109.6725  C     
13   N        16.8202   14.9737  108.6849  N     
14   S        14.3095   15.0994  109.3648  S     
15   O        16.8988   11.2792  113.9725  O     
16   C        18.6976   15.2683  110.0214  C     
17   C        18.1236   15.1063  108.7963  C     
18   C        18.8994   15.0585  107.5505  C     
19   C        20.9522   15.1271  109.0381  C     
20   C        20.0491   15.5009  110.1152  C     
21   O        20.4567   16.2801  110.9622  O     
22   H        20.8654   15.2768  105.5457  H     
23   H        21.3653   13.9536  106.6161  H     
24   H        22.2896   15.4546  106.5878  H     
25   H        21.3961   17.5581  107.6891  H     
26   H        19.7429   17.6263  108.3123  H     
27   H        20.0252   17.4926  106.5737  H     
28   H        20.4346   13.9260  114.7763  H     
29   H        19.8521   15.4419  113.0150  H     
30   H        16.5894   12.9445  111.9719  H     
31   H        19.0635   11.9797  115.2469  H     
32   H        17.9166   16.3372  111.6421  H     
33   H        15.8071   15.3648  111.5740  H     
34   H        16.4614   14.8149  107.8335  H     
35   H        16.0618   11.4310  113.4969  H     
36   H        18.3703   15.6196  106.7679  H     
37   H        18.9186   14.0137  107.2289  H     
38   H        21.0503   14.0386  109.0627  H     
39   H        21.9478   15.5477  109.1943  H     
@<TRIPOS>BOND
     1    1    2 1
     2    1    3 1
     3    1   18 1
     4    1   19 1
     5    4    5 2
     6    4    9 1
     7    5    6 1
     8    6    7 2
     9    6   10 1
    10    7    8 1
    11    8    9 2
    12    8   15 1
    13   10   11 1
    14   10   16 1
    15   11   12 1
    16   12   13 1
    17   12   14 2
    18   13   17 1
    19   16   17 2
    20   16   20 1
    21   17   18 1
    22   19   20 1
    23   20   21 2
    24    2   22 1
    25    2   23 1
    26    2   24 1
    27    3   25 1
    28    3   26 1
    29    3   27 1
    30    4   28 1
    31    5   29 1
    32    7   30 1
    33    9   31 1
    34   10   32 1
    35   11   33 1
    36   13   34 1
    37   15   35 1
    38   18   36 1
    39   18   37 1
    40   19   38 1
    41   19   39 1
@<TRIPOS>PROPERTY_DATA
  Total_Score	| 3.6797
  Crash		| -2.7469
  Polar		| 0.8380
  FragIndex	| 1
  FragRMSD	| 1.146

