@<TRIPOS>MOLECULE
BindingDB_50323769
 39 41 0 0 0
SMALL
NO_CHARGES


@<TRIPOS>ATOM
1    C        18.7562   15.2797  109.9903  C     
2    C        18.1370   15.1768  108.7783  C     
3    C        17.8998   15.3578  111.2060  C     
4    C        20.1134   15.4301  110.0448  C     
5    C        16.0396   15.1302  109.7223  C     
6    N        16.8362   15.0416  108.7023  N     
7    N        16.5166   15.3318  110.9142  N     
8    C        18.2382   14.3420  112.2702  C     
9    C        18.8627   15.1938  107.5025  C     
10   C        20.3413   15.7143  107.5946  C     
11   C        20.9633   15.1146  108.8989  C     
12   S        14.3696   14.8961  109.4892  S     
13   O        20.5782   16.1632  110.9068  O     
14   C        17.4385   13.1964  112.5414  C     
15   C        17.7141   12.3471  113.6379  C     
16   O        16.9007   11.3063  113.9596  O     
17   C        19.3372   14.5836  113.1330  C     
18   C        21.1799   15.2294  106.3701  C     
19   C        20.3708   17.2803  107.6160  C     
20   C        19.6455   13.7090  114.1933  C     
21   C        18.8284   12.5970  114.4502  C     
22   H        18.0545   16.3483  111.6288  H     
23   H        16.4512   14.8990  107.8510  H     
24   H        15.9062   15.4318  111.6177  H     
25   H        18.8567   14.1686  107.1295  H     
26   H        18.3213   15.8007  106.7729  H     
27   H        21.9845   15.4816  109.0332  H     
28   H        21.0267   14.0216  108.8329  H     
29   H        16.6145   13.0014  111.9719  H     
30   H        16.0329   11.5070  113.5448  H     
31   H        19.9204   15.4175  113.0174  H     
32   H        21.2709   14.1421  106.3769  H     
33   H        22.1911   15.6474  106.3990  H     
34   H        20.7024   15.5306  105.4328  H     
35   H        19.9682   17.6848  106.6790  H     
36   H        21.3932   17.6448  107.7380  H     
37   H        19.7674   17.6773  108.4364  H     
38   H        20.4517   13.8920  114.7975  H     
39   H        19.0223   11.9891  115.2463  H     
@<TRIPOS>BOND
     1    1    2 2
     2    1    3 1
     3    1    4 1
     4    2    6 1
     5    2    9 1
     6    3    7 1
     7    3    8 1
     8    4   11 1
     9    4   13 2
    10    5    6 1
    11    5    7 1
    12    5   12 2
    13    8   14 2
    14    8   17 1
    15    9   10 1
    16   10   11 1
    17   10   18 1
    18   10   19 1
    19   14   15 1
    20   15   16 1
    21   15   21 2
    22   17   20 2
    23   20   21 1
    24    3   22 1
    25    6   23 1
    26    7   24 1
    27    9   25 1
    28    9   26 1
    29   11   27 1
    30   11   28 1
    31   14   29 1
    32   16   30 1
    33   17   31 1
    34   18   32 1
    35   18   33 1
    36   18   34 1
    37   19   35 1
    38   19   36 1
    39   19   37 1
    40   20   38 1
    41   21   39 1
@<TRIPOS>PROPERTY_DATA
  Total_Score	| 3.5989
  Crash		| -2.7238
  Polar		| 0.7793
  FragIndex	| 1
  FragRMSD	| 1.270

