@<TRIPOS>MOLECULE
BindingDB_50216513
 29 30 0 0 0
SMALL
NO_CHARGES


@<TRIPOS>ATOM
1    C        19.5408   13.7143  114.0714  C     
2    C        19.3506   14.0955  112.7346  C     
3    C        18.3414   13.5058  111.9243  C     
4    C        17.5061   12.5328  112.5346  C     
5    C        17.6470   12.1937  113.8935  C     
6    C        18.6837   12.7697  114.6507  C     
7    C        18.0830   13.8874  110.4871  C     
8    N        16.7011   14.1434  110.3688  N     
9    C        16.2292   15.2746  109.9539  C     
10   N        17.0304   16.2596  109.6901  N     
11   C        18.3350   16.1443  109.5866  C     
12   C        18.9451   14.9605  109.9010  C     
13   S        14.5668   15.4250  109.6103  S     
14   C        20.3034   14.6743  109.6977  C     
15   O        21.2494   15.6044  109.3924  O     
16   O        20.8137   13.4517  109.9638  O     
17   O        16.7815   11.3452  114.5021  O     
18   C        19.0248   17.3395  109.1131  C     
19   H        20.2819   14.1491  114.6237  H     
20   H        19.9701   14.8291  112.3867  H     
21   H        16.7569   12.0884  111.9899  H     
22   H        18.8013   12.5244  115.6380  H     
23   H        18.2545   12.9905  109.8732  H     
24   H        16.0935   13.4798  110.6153  H     
25   H        16.6425   17.0763  109.4564  H     
26   H        16.0350   11.2281  113.8862  H     
27   H        19.5099   17.1337  108.1623  H     
28   H        19.7671   17.6756  109.8415  H     
29   H        18.3411   18.1784  108.9539  H     
@<TRIPOS>BOND
     1    1    2 2
     2    1    6 1
     3    2    3 1
     4    3    4 2
     5    3    7 1
     6    4    5 1
     7    5    6 2
     8    5   17 1
     9    7    8 1
    10    7   12 1
    11    8    9 1
    12    9   10 1
    13    9   13 2
    14   10   11 1
    15   11   12 2
    16   11   18 1
    17   12   14 1
    18   14   15 2
    19   14   16 1
    20    1   19 1
    21    2   20 1
    22    4   21 1
    23    6   22 1
    24    7   23 1
    25    8   24 1
    26   10   25 1
    27   17   26 1
    28   18   27 1
    29   18   28 1
    30   18   29 1
@<TRIPOS>PROPERTY_DATA
  Total_Score	| 3.9932
  Crash		| -1.3820
  Polar		| 1.1583
  FragIndex	| 1
  FragRMSD	| 0.455

