@<TRIPOS>MOLECULE
BindingDB_50216511
 44 45 0 0 0
SMALL
NO_CHARGES


@<TRIPOS>ATOM
1    C        19.4508   13.8156  114.0828  C     
2    C        19.2906   14.1896  112.7362  C     
3    C        18.3139   13.5688  111.9140  C     
4    C        17.4807   12.5864  112.5069  C     
5    C        17.6076   12.2392  113.8665  C     
6    C        18.6085   12.8439  114.6479  C     
7    C        18.0957   13.9254  110.4706  C     
8    N        16.7284   14.2415  110.3310  N     
9    C        16.3102   15.3939  109.9104  C     
10   N        17.1601   16.3311  109.6187  N     
11   C        18.4618   16.1521  109.5423  C     
12   C        19.0071   14.9506  109.8871  C     
13   S        14.6647   15.6168  109.5476  S     
14   C        20.3451   14.5965  109.6724  C     
15   O        20.9273   13.6443  110.4417  O     
16   O        21.0361   15.0715  108.6003  O     
17   O        16.7680   11.3425  114.4439  O     
18   C        19.2308   17.3199  109.1302  C     
19   C        22.3577   14.7190  108.1598  C     
20   C        22.9371   15.7964  107.2161  C     
21   O        22.4956   15.6448  105.8505  O     
22   C        21.1481   16.0596  105.5617  C     
23   C        21.0419   17.5914  105.3993  C     
24   O        22.2820   18.2266  105.6789  O     
25   H        20.1692   14.2644  114.6560  H     
26   H        19.8975   14.9231  112.3653  H     
27   H        16.7563   12.1278  111.9471  H     
28   H        18.7127   12.5919  115.6327  H     
29   H        18.2389   13.0181  109.8724  H     
30   H        16.0926   13.5919  110.5564  H     
31   H        16.8149   17.1631  109.3654  H     
32   H        15.9603   11.3191  113.8898  H     
33   H        18.6207   18.2251  109.0812  H     
34   H        19.6590   17.1604  108.1414  H     
35   H        20.0283   17.5082  109.8474  H     
36   H        23.0361   14.5687  109.0042  H     
37   H        22.2843   13.7759  107.6238  H     
38   H        22.6979   16.7857  107.6122  H     
39   H        24.0239   15.7057  107.1939  H     
40   H        20.8530   15.5891  104.6221  H     
41   H        20.4555   15.7115  106.3320  H     
42   H        20.7537   17.8192  104.3721  H     
43   H        20.2930   18.0082  106.0759  H     
44   H        22.1246   18.7468  106.4949  H     
@<TRIPOS>BOND
     1    1    2 2
     2    1    6 1
     3    2    3 1
     4    3    4 2
     5    3    7 1
     6    4    5 1
     7    5    6 2
     8    5   17 1
     9    7    8 1
    10    7   12 1
    11    8    9 1
    12    9   10 1
    13    9   13 2
    14   10   11 1
    15   11   12 2
    16   11   18 1
    17   12   14 1
    18   14   15 2
    19   14   16 1
    20   16   19 1
    21   19   20 1
    22   20   21 1
    23   21   22 1
    24   22   23 1
    25   23   24 1
    26    1   25 1
    27    2   26 1
    28    4   27 1
    29    6   28 1
    30    7   29 1
    31    8   30 1
    32   10   31 1
    33   17   32 1
    34   18   33 1
    35   18   34 1
    36   18   35 1
    37   19   36 1
    38   19   37 1
    39   20   38 1
    40   20   39 1
    41   22   40 1
    42   22   41 1
    43   23   42 1
    44   23   43 1
    45   24   44 1
@<TRIPOS>PROPERTY_DATA
  Total_Score	| 8.9559
  Crash		| -1.4378
  Polar		| 2.2625
  FragIndex	| 1
  FragRMSD	| 0.351

