@<TRIPOS>MOLECULE
BindingDB_29949
 82 84 0 0 0
SMALL
NO_CHARGES


@<TRIPOS>ATOM
1    C        31.0159   -7.8392  -14.8082  C     
2    C        31.8971   -8.2972  -13.7911  C     
3    C        33.2374   -8.6530  -14.0703  C     
4    C        33.7283   -8.5567  -15.3889  C     
5    C        32.8812   -8.0980  -16.4118  C     
6    C        31.5467   -7.7510  -16.1250  C     
7    C        29.5957   -7.4434  -14.4480  C     
8    C        28.8728   -8.6567  -13.7067  C     
9    C        29.7031   -6.0710  -13.6627  C     
10   C        28.6436   -4.9667  -13.9584  C     
11   C        28.9214   -3.6200  -13.2160  C     
12   C        27.6150   -2.8857  -12.8214  C     
13   O        26.8946   -2.4666  -13.9976  O     
14   C        27.2296  -10.3844  -14.8349  C     
15   C        28.7087   -9.9430  -14.6215  C     
16   C        27.5140   -8.3020  -13.0144  C     
17   N        26.8485   -9.4958  -12.4820  N     
18   C        26.5374  -10.5463  -13.4539  C     
19   C        26.5496   -9.6704  -11.1771  C     
20   O        26.0500  -10.7333  -10.8046  O     
21   N        26.8140   -8.7515  -10.2475  N     
22   C        26.7253   -8.8700   -8.8158  C     
23   C        25.3210   -8.3716   -8.3603  C     
24   N        25.0626   -8.3193   -6.9010  N     
25   C        27.9058   -8.0588   -8.1822  C     
26   C        29.3325   -8.4103   -8.7482  C     
27   C        30.4303   -7.4141   -8.2535  C     
28   C        29.7684   -9.8731   -8.4085  C     
29   C        31.1694  -10.2259   -8.9797  C     
30   C        32.2501   -9.2059   -8.5405  C     
31   C        31.8228   -7.7494   -8.8665  C     
32   O        28.8495   -7.1889  -15.6467  O     
33   C        25.4287   -9.5061   -6.1023  C     
34   C        25.5099   -2.8507  -14.0683  C     
35   Cl       34.2350   -9.2098  -12.8208  Cl    
36   H        31.5756   -8.3371  -12.8245  H     
37   H        34.6920   -8.8300  -15.6078  H     
38   H        33.2448   -8.0004  -17.3686  H     
39   H        30.9654   -7.4125  -16.9006  H     
40   H        29.5243   -8.9578  -12.8748  H     
41   H        29.7070   -6.2854  -12.5891  H     
42   H        30.6746   -5.6126  -13.8942  H     
43   H        28.6359   -4.7572  -15.0337  H     
44   H        27.6548   -5.3311  -13.6657  H     
45   H        29.4942   -3.8141  -12.3013  H     
46   H        29.5188   -2.9634  -13.8639  H     
47   H        27.0235   -3.5435  -12.1661  H     
48   H        27.8655   -1.9881  -12.2461  H     
49   H        26.7094   -9.6206  -15.4272  H     
50   H        27.1943  -11.3321  -15.3878  H     
51   H        29.1631   -9.7988  -15.6084  H     
52   H        29.2408  -10.7844  -14.1526  H     
53   H        27.7304   -7.5666  -12.2445  H     
54   H        26.8422   -7.8154  -13.7389  H     
55   H        25.4494  -10.5936  -13.6062  H     
56   H        26.8661  -11.5134  -13.0555  H     
57   H        27.1290   -7.8935  -10.5685  H     
58   H        26.8286   -9.9184   -8.5204  H     
59   H        25.1737   -7.3551   -8.7367  H     
60   H        24.5530   -8.9940   -8.8226  H     
61   H        25.5156   -7.4847   -6.5198  H     
62   H        24.0578   -8.1847   -6.8069  H     
63   H        27.7190   -6.9905   -8.3653  H     
64   H        27.8919   -8.2264   -7.0950  H     
65   H        29.2960   -8.3159   -9.8433  H     
66   H        30.1670   -6.3935   -8.5441  H     
67   H        30.5093   -7.4488   -7.1614  H     
68   H        29.7853  -10.0091   -7.3240  H     
69   H        29.0526  -10.5887   -8.8250  H     
70   H        31.4548  -11.2278   -8.6400  H     
71   H        31.1148  -10.2468  -10.0753  H     
72   H        32.4233   -9.3000   -7.4646  H     
73   H        33.1889   -9.4351   -9.0512  H     
74   H        31.7914   -7.6181   -9.9540  H     
75   H        32.5747   -7.0581   -8.4727  H     
76   H        27.9697   -6.8683  -15.3642  H     
77   H        24.9403  -10.4008   -6.5069  H     
78   H        25.0714   -9.3500   -5.0793  H     
79   H        26.5218   -9.6286   -6.0961  H     
80   H        25.4034   -3.9372  -14.0164  H     
81   H        25.1048   -2.5108  -15.0256  H     
82   H        24.9363   -2.3810  -13.2649  H     
@<TRIPOS>BOND
     1    1    2 1
     2    1    6 2
     3    1    7 1
     4    2    3 2
     5    3    4 1
     6    3   35 1
     7    4    5 2
     8    5    6 1
     9    7    8 1
    10    7    9 1
    11    7   32 1
    12    8   15 1
    13    8   16 1
    14    9   10 1
    15   10   11 1
    16   11   12 1
    17   12   13 1
    18   13   34 1
    19   14   15 1
    20   14   18 1
    21   16   17 1
    22   17   18 1
    23   17   19 1
    24   19   20 2
    25   19   21 am
    26   21   22 1
    27   22   23 1
    28   22   25 1
    29   23   24 1
    30   24   33 1
    31   25   26 1
    32   26   27 1
    33   26   28 1
    34   27   31 1
    35   28   29 1
    36   29   30 1
    37   30   31 1
    38    2   36 1
    39    4   37 1
    40    5   38 1
    41    6   39 1
    42    8   40 1
    43    9   41 1
    44    9   42 1
    45   10   43 1
    46   10   44 1
    47   11   45 1
    48   11   46 1
    49   12   47 1
    50   12   48 1
    51   14   49 1
    52   14   50 1
    53   15   51 1
    54   15   52 1
    55   16   53 1
    56   16   54 1
    57   18   55 1
    58   18   56 1
    59   21   57 1
    60   22   58 1
    61   23   59 1
    62   23   60 1
    63   24   61 1
    64   24   62 1
    65   25   63 1
    66   25   64 1
    67   26   65 1
    68   27   66 1
    69   27   67 1
    70   28   68 1
    71   28   69 1
    72   29   70 1
    73   29   71 1
    74   30   72 1
    75   30   73 1
    76   31   74 1
    77   31   75 1
    78   32   76 1
    79   33   77 1
    80   33   78 1
    81   33   79 1
    82   34   80 1
    83   34   81 1
    84   34   82 1
@<TRIPOS>PROPERTY_DATA
  Total_Score	| 14.6525
  Crash		| -1.8393
  Polar		| 6.5225
  FragIndex	| 1
  FragRMSD	| 0.548

