@<TRIPOS>MOLECULE
BindingDB_50305446
 81 83 0 0 0
SMALL
NO_CHARGES


@<TRIPOS>ATOM
1    C        29.6192   -4.9972  -14.3866  C     
2    C        30.0078   -3.8113  -13.4514  C     
3    N        29.0036   -2.8574  -13.0578  N     
4    C        29.1753   -6.2994  -13.6219  C     
5    C        29.3414   -7.6331  -14.4160  C     
6    C        31.4080   -7.7077  -15.9578  C     
7    C        32.7803   -7.9436  -16.1733  C     
8    C        33.5984   -8.3603  -15.1070  C     
9    C        33.0562   -8.4869  -13.8170  C     
10   C        31.6908   -8.2268  -13.6074  C     
11   C        30.8222   -7.8569  -14.6697  C     
12   C        28.7258   -8.9043  -13.6747  C     
13   C        27.2257   -8.8029  -13.2366  C     
14   N        26.8370  -10.0191  -12.5182  N     
15   C        26.8616  -11.2215  -13.3329  C     
16   C        28.3117  -11.4744  -13.8277  C     
17   C        28.8924  -10.2109  -14.5240  C     
18   C        26.6596  -10.0832  -11.1787  C     
19   O        26.5044  -11.1678  -10.6232  O     
20   N        26.6693   -9.0021  -10.3942  N     
21   C        26.6994   -8.9465   -8.9582  C     
22   C        25.3011   -8.4755   -8.4576  C     
23   C        27.8640   -8.0019   -8.5139  C     
24   C        29.3029   -8.4077   -8.9855  C     
25   C        30.3599   -7.3601   -8.5067  C     
26   C        31.8132   -7.7555   -8.8825  C     
27   C        32.1704   -9.1640   -8.3469  C     
28   C        31.1651  -10.2194   -8.8669  C     
29   C        29.7038   -9.8431   -8.5143  C     
30   N        25.1075   -8.3638   -6.9934  N     
31   C        25.5145   -9.5113   -6.1547  C     
32   O        28.6348   -7.4872  -15.6521  O     
33   Cl       34.0217   -8.9871  -12.5173  Cl    
34   C        27.7730   -3.0633  -12.6275  C     
35   N        27.1503   -2.0598  -12.0697  N     
36   O        27.1737   -4.1338  -12.7083  O     
37   H        28.8126   -4.6786  -15.0546  H     
38   H        30.4929   -5.2262  -15.0100  H     
39   H        30.4864   -4.1855  -12.5398  H     
40   H        30.7772   -3.2170  -13.9697  H     
41   H        29.3200   -1.9409  -12.9510  H     
42   H        29.7074   -6.3690  -12.6626  H     
43   H        28.1130   -6.1730  -13.4036  H     
44   H        30.8427   -7.4173  -16.7618  H     
45   H        33.1773   -7.8393  -17.1113  H     
46   H        34.5849   -8.5547  -15.2740  H     
47   H        31.3231   -8.3255  -12.6560  H     
48   H        29.2806   -9.0605  -12.7426  H     
49   H        27.0792   -7.9050  -12.6508  H     
50   H        26.5874   -8.6876  -14.1150  H     
51   H        26.5160  -12.1256  -12.8141  H     
52   H        26.1953  -11.0895  -14.1948  H     
53   H        28.9387  -11.7366  -12.9637  H     
54   H        28.3154  -12.3206  -14.5237  H     
55   H        28.3889  -10.0942  -15.4893  H     
56   H        29.9490  -10.4190  -14.7246  H     
57   H        26.6864   -8.1324  -10.8239  H     
58   H        26.8771   -9.9329   -8.5267  H     
59   H        25.0885   -7.4900   -8.8826  H     
60   H        24.5428   -9.1614   -8.8472  H     
61   H        27.6474   -6.9995   -8.9008  H     
62   H        27.8668   -7.9339   -7.4217  H     
63   H        29.3199   -8.3993  -10.0803  H     
64   H        30.1417   -6.3871   -8.9589  H     
65   H        30.3008   -7.2409   -7.4207  H     
66   H        31.9288   -7.7381   -9.9709  H     
67   H        32.5113   -7.0239   -8.4633  H     
68   H        33.1781   -9.4323   -8.6705  H     
69   H        32.1590   -9.1534   -7.2517  H     
70   H        31.2654  -10.3126   -9.9514  H     
71   H        31.4008  -11.1911   -8.4230  H     
72   H        29.5694   -9.9210   -7.4313  H     
73   H        29.0514  -10.5821   -8.9863  H     
74   H        25.5663   -7.5164   -6.6506  H     
75   H        24.1050   -8.2358   -6.8575  H     
76   H        25.0736  -10.4368   -6.5289  H     
77   H        25.1583   -9.3412   -5.1392  H     
78   H        26.6000   -9.6079   -6.1278  H     
79   H        27.7682   -7.0857  -15.4357  H     
80   H        26.2680   -2.2032  -11.6974  H     
81   H        27.6132   -1.2087  -11.9487  H     
@<TRIPOS>BOND
     1    1    2 1
     2    1    4 1
     3    2    3 1
     4    3   34 am
     5    4    5 1
     6    5   11 1
     7    5   12 1
     8    5   32 1
     9    6    7 2
    10    6   11 1
    11    7    8 1
    12    8    9 2
    13    9   10 1
    14    9   33 1
    15   10   11 2
    16   12   13 1
    17   12   17 1
    18   13   14 1
    19   14   15 1
    20   14   18 1
    21   15   16 1
    22   16   17 1
    23   18   19 2
    24   18   20 am
    25   20   21 1
    26   21   22 1
    27   21   23 1
    28   22   30 1
    29   23   24 1
    30   24   25 1
    31   24   29 1
    32   25   26 1
    33   26   27 1
    34   27   28 1
    35   28   29 1
    36   30   31 1
    37   34   35 am
    38   34   36 2
    39    1   37 1
    40    1   38 1
    41    2   39 1
    42    2   40 1
    43    3   41 1
    44    4   42 1
    45    4   43 1
    46    6   44 1
    47    7   45 1
    48    8   46 1
    49   10   47 1
    50   12   48 1
    51   13   49 1
    52   13   50 1
    53   15   51 1
    54   15   52 1
    55   16   53 1
    56   16   54 1
    57   17   55 1
    58   17   56 1
    59   20   57 1
    60   21   58 1
    61   22   59 1
    62   22   60 1
    63   23   61 1
    64   23   62 1
    65   24   63 1
    66   25   64 1
    67   25   65 1
    68   26   66 1
    69   26   67 1
    70   27   68 1
    71   27   69 1
    72   28   70 1
    73   28   71 1
    74   29   72 1
    75   29   73 1
    76   30   74 1
    77   30   75 1
    78   31   76 1
    79   31   77 1
    80   31   78 1
    81   32   79 1
    82   35   80 1
    83   35   81 1
@<TRIPOS>PROPERTY_DATA
  Total_Score	| 15.3043
  Crash		| -1.9474
  Polar		| 8.2589
  FragIndex	| 1
  FragRMSD	| 0.100

