@<TRIPOS>MOLECULE
BindingDB_50305447
 84 86 0 0 0
SMALL
NO_CHARGES


@<TRIPOS>ATOM
1    C        29.5358   -5.3435  -14.5816  C     
2    C        29.3594   -4.0046  -13.8284  C     
3    N        27.9883   -3.5919  -13.7774  N     
4    C        29.0162   -6.6088  -13.8314  C     
5    C        29.2777   -7.9697  -14.5718  C     
6    C        31.3720   -7.9775  -16.0644  C     
7    C        32.7550   -8.1666  -16.2498  C     
8    C        33.5741   -8.4951  -15.1588  C     
9    C        33.0035   -8.6611  -13.8845  C     
10   C        31.6197   -8.4516  -13.6953  C     
11   C        30.7697   -8.1405  -14.7925  C     
12   C        28.6777   -9.2198  -13.8002  C     
13   C        27.1930   -9.0852  -13.3191  C     
14   N        26.8442  -10.2478  -12.5100  N     
15   C        26.8671  -11.5134  -13.2381  C     
16   C        28.2894  -11.7704  -13.7990  C     
17   C        28.8138  -10.5591  -14.6041  C     
18   C        26.6593  -10.1869  -11.1733  C     
19   O        26.4446  -11.2154  -10.5416  O     
20   N        26.7280   -9.0547  -10.4701  N     
21   C        26.7680   -8.8862   -9.0390  C     
22   C        25.3757   -8.3898   -8.5632  C     
23   C        27.9341   -7.9106   -8.6797  C     
24   C        29.3751   -8.3614   -9.1051  C     
25   C        30.4441   -7.3516   -8.5720  C     
26   C        31.8931   -7.7773   -8.9162  C     
27   C        32.1970   -9.2117   -8.4076  C     
28   C        31.1691  -10.2327   -8.9564  C     
29   C        29.7123   -9.8131   -8.6317  C     
30   N        25.1694   -8.3295   -7.0984  N     
31   C        25.6152   -9.4838   -6.2977  C     
32   O        28.5885   -7.8799  -15.8343  O     
33   Cl       33.9733   -9.0888  -12.5670  Cl    
34   C        27.2325   -3.5462  -12.6844  C     
35   N        25.9983   -3.0769  -12.6888  N     
36   O        27.6528   -3.9632  -11.6147  O     
37   C        25.3474   -2.4494  -13.7826  C     
38   H        29.0658   -5.2878  -15.5715  H     
39   H        30.6228   -5.4678  -14.7248  H     
40   H        29.8057   -4.0940  -12.8250  H     
41   H        29.9194   -3.2173  -14.3615  H     
42   H        27.5846   -3.3007  -14.6092  H     
43   H        29.4422   -6.6509  -12.8120  H     
44   H        27.9309   -6.4600  -13.7207  H     
45   H        30.8108   -7.7253  -16.8777  H     
46   H        33.1640   -8.0271  -17.1715  H     
47   H        34.5720   -8.6345  -15.3039  H     
48   H        31.2265   -8.5278  -12.7562  H     
49   H        29.2649   -9.3492  -12.8853  H     
50   H        27.0889   -8.1405  -12.7830  H     
51   H        26.5215   -9.0234  -14.1832  H     
52   H        26.5814  -12.3735  -12.6361  H     
53   H        26.1507  -11.4641  -14.0625  H     
54   H        28.9652  -11.9706  -12.9691  H     
55   H        28.2714  -12.6580  -14.4396  H     
56   H        28.2637  -10.4912  -15.5443  H     
57   H        29.8615  -10.7496  -14.8489  H     
58   H        26.7965   -8.2284  -10.9726  H     
59   H        26.9617   -9.8387   -8.5386  H     
60   H        25.2033   -7.3848   -8.9520  H     
61   H        24.6072   -9.0355   -8.9928  H     
62   H        27.7314   -6.9458   -9.1519  H     
63   H        27.9328   -7.7510   -7.5975  H     
64   H        29.4285   -8.3443  -10.1989  H     
65   H        30.2644   -6.3648   -9.0032  H     
66   H        30.3567   -7.2629   -7.4860  H     
67   H        32.0423   -7.7389   -9.9996  H     
68   H        32.5989   -7.0805   -8.4569  H     
69   H        33.2013   -9.5098   -8.7224  H     
70   H        32.1675   -9.2247   -7.3104  H     
71   H        31.2872  -10.3172  -10.0416  H     
72   H        31.3606  -11.2177   -8.5179  H     
73   H        29.5479   -9.8907   -7.5513  H     
74   H        29.0496  -10.5299   -9.1243  H     
75   H        25.5903   -7.4805   -6.7246  H     
76   H        24.1626   -8.2351   -6.9632  H     
77   H        25.2364  -10.4241   -6.7098  H     
78   H        25.2305   -9.3712   -5.2846  H     
79   H        26.7028   -9.5188   -6.2525  H     
80   H        27.8686   -7.2249  -15.7381  H     
81   H        25.5216   -3.1140  -11.8533  H     
82   H        25.8887   -1.5511  -14.0651  H     
83   H        24.3523   -2.1591  -13.4583  H     
84   H        25.2624   -3.1174  -14.6369  H     
@<TRIPOS>BOND
     1    1    2 1
     2    1    4 1
     3    2    3 1
     4    3   34 am
     5    4    5 1
     6    5   11 1
     7    5   12 1
     8    5   32 1
     9    6    7 2
    10    6   11 1
    11    7    8 1
    12    8    9 2
    13    9   10 1
    14    9   33 1
    15   10   11 2
    16   12   13 1
    17   12   17 1
    18   13   14 1
    19   14   15 1
    20   14   18 1
    21   15   16 1
    22   16   17 1
    23   18   19 2
    24   18   20 am
    25   20   21 1
    26   21   22 1
    27   21   23 1
    28   22   30 1
    29   23   24 1
    30   24   25 1
    31   24   29 1
    32   25   26 1
    33   26   27 1
    34   27   28 1
    35   28   29 1
    36   30   31 1
    37   34   35 am
    38   34   36 2
    39   35   37 1
    40    1   38 1
    41    1   39 1
    42    2   40 1
    43    2   41 1
    44    3   42 1
    45    4   43 1
    46    4   44 1
    47    6   45 1
    48    7   46 1
    49    8   47 1
    50   10   48 1
    51   12   49 1
    52   13   50 1
    53   13   51 1
    54   15   52 1
    55   15   53 1
    56   16   54 1
    57   16   55 1
    58   17   56 1
    59   17   57 1
    60   20   58 1
    61   21   59 1
    62   22   60 1
    63   22   61 1
    64   23   62 1
    65   23   63 1
    66   24   64 1
    67   25   65 1
    68   25   66 1
    69   26   67 1
    70   26   68 1
    71   27   69 1
    72   27   70 1
    73   28   71 1
    74   28   72 1
    75   29   73 1
    76   29   74 1
    77   30   75 1
    78   30   76 1
    79   31   77 1
    80   31   78 1
    81   31   79 1
    82   32   80 1
    83   35   81 1
    84   37   82 1
    85   37   83 1
    86   37   84 1
@<TRIPOS>PROPERTY_DATA
  Total_Score	| 12.9711
  Crash		| -2.8540
  Polar		| 6.5489
  FragIndex	| 1
  FragRMSD	| 0.278

