@<TRIPOS>MOLECULE
BindingDB_50305443
 88 90 0 0 0
SMALL
NO_CHARGES


@<TRIPOS>ATOM
1    C        29.7076   -5.0510  -14.3563  C     
2    C        30.0994   -3.8244  -13.4836  C     
3    N        29.0624   -2.9690  -12.9891  N     
4    C        29.2898   -6.3356  -13.5838  C     
5    C        29.4045   -7.6793  -14.4016  C     
6    C        31.4432   -7.7619  -15.9805  C     
7    C        32.8140   -7.9868  -16.2165  C     
8    C        33.6532   -8.3852  -15.1643  C     
9    C        33.1256   -8.5406  -13.8692  C     
10   C        31.7566   -8.2968  -13.6390  C     
11   C        30.8770   -7.9157  -14.6868  C     
12   C        28.7576   -8.9313  -13.6712  C     
13   C        27.2477   -8.7929  -13.2579  C     
14   N        26.8188   -9.9859  -12.5412  N     
15   C        26.8445  -11.1965  -13.3492  C     
16   C        28.3029  -11.4796  -13.7912  C     
17   C        28.9128  -10.2545  -14.5067  C     
18   C        26.6016  -10.0276  -11.2089  C     
19   O        26.3928  -11.1016  -10.6572  O     
20   N        26.6513   -8.9447  -10.4283  N     
21   C        26.6822   -8.8880   -8.9895  C     
22   C        25.2991   -8.3903   -8.4736  C     
23   C        27.8527   -7.9627   -8.5376  C     
24   C        29.2833   -8.3941   -9.0034  C     
25   C        30.3490   -7.3608   -8.5219  C     
26   C        31.7943   -7.7673   -8.9123  C     
27   C        32.1383   -9.1984   -8.4262  C     
28   C        31.1078  -10.2373   -8.9308  C     
29   C        29.6596   -9.8416   -8.5437  C     
30   N        25.1313   -8.3366   -7.0013  N     
31   C        25.5883   -9.4983   -6.2177  C     
32   O        28.6724   -7.5155  -15.6289  O     
33   Cl       34.1128   -9.0595  -12.5937  Cl    
34   C        27.7819   -3.2294  -12.7939  C     
35   C        26.8554   -2.1492  -12.5054  C     
36   O        27.3140   -4.3495  -12.9587  O     
37   C        25.6274   -1.9926  -13.4665  C     
38   C        25.6375   -2.8298  -14.7720  C     
39   H        28.8874   -4.7579  -15.0239  H     
40   H        30.5794   -5.3088  -14.9673  H     
41   H        30.7140   -4.1449  -12.6462  H     
42   H        30.7332   -3.1837  -14.1006  H     
43   H        29.3378   -2.0523  -12.8094  H     
44   H        29.8578   -6.4078  -12.6528  H     
45   H        28.2602   -6.1902  -13.2942  H     
46   H        30.8666   -7.4854  -16.7753  H     
47   H        33.2009   -7.8769  -17.1581  H     
48   H        34.6408   -8.5879  -15.3453  H     
49   H        31.3953   -8.4126  -12.6925  H     
50   H        29.3088   -9.0826  -12.7357  H     
51   H        27.0874   -7.8979  -12.6670  H     
52   H        26.6246   -8.6575  -14.1466  H     
53   H        26.4686  -12.0883  -12.8429  H     
54   H        26.2140  -11.0590  -14.2333  H     
55   H        28.9063  -11.7019  -12.9061  H     
56   H        28.3375  -12.3570  -14.4433  H     
57   H        28.4347  -10.1368  -15.4831  H     
58   H        29.9648  -10.4783  -14.6745  H     
59   H        26.7337   -8.0903  -10.8701  H     
60   H        26.8473   -9.8776   -8.5614  H     
61   H        25.1224   -7.3803   -8.8483  H     
62   H        24.5136   -9.0297   -8.8873  H     
63   H        27.6567   -6.9556   -8.9162  H     
64   H        27.8516   -7.9055   -7.4460  H     
65   H        29.3001   -8.3817  -10.0979  H     
66   H        30.1331   -6.3849   -8.9660  H     
67   H        30.2944   -7.2513   -7.4345  H     
68   H        31.9034   -7.7147   -9.9986  H     
69   H        32.4982   -7.0573   -8.4696  H     
70   H        33.1332   -9.4689   -8.7865  H     
71   H        32.1621   -9.2128   -7.3317  H     
72   H        31.1801  -10.3231  -10.0187  H     
73   H        31.3411  -11.2151   -8.5018  H     
74   H        29.5479   -9.9217   -7.4575  H     
75   H        28.9826  -10.5692   -9.0021  H     
76   H        25.5690   -7.4918   -6.6314  H     
77   H        24.1286   -8.2379   -6.8424  H     
78   H        25.1189  -10.4147   -6.5789  H     
79   H        25.3001   -9.3528   -5.1760  H     
80   H        26.6743   -9.6010   -6.2630  H     
81   H        27.8520   -7.0206  -15.4182  H     
82   H        26.4892   -2.3017  -11.4840  H     
83   H        27.3920   -1.1927  -12.4903  H     
84   H        24.7090   -2.2337  -12.9143  H     
85   H        25.5490   -0.9367  -13.7514  H     
86   H        26.5898   -2.7250  -15.2948  H     
87   H        24.8290   -2.4978  -15.4318  H     
88   H        25.4826   -3.8812  -14.5343  H     
@<TRIPOS>BOND
     1    1    2 1
     2    1    4 1
     3    2    3 1
     4    3   34 am
     5    4    5 1
     6    5   11 1
     7    5   12 1
     8    5   32 1
     9    6    7 2
    10    6   11 1
    11    7    8 1
    12    8    9 2
    13    9   10 1
    14    9   33 1
    15   10   11 2
    16   12   13 1
    17   12   17 1
    18   13   14 1
    19   14   15 1
    20   14   18 1
    21   15   16 1
    22   16   17 1
    23   18   19 2
    24   18   20 am
    25   20   21 1
    26   21   22 1
    27   21   23 1
    28   22   30 1
    29   23   24 1
    30   24   25 1
    31   24   29 1
    32   25   26 1
    33   26   27 1
    34   27   28 1
    35   28   29 1
    36   30   31 1
    37   34   35 1
    38   34   36 2
    39   35   37 1
    40   37   38 1
    41    1   39 1
    42    1   40 1
    43    2   41 1
    44    2   42 1
    45    3   43 1
    46    4   44 1
    47    4   45 1
    48    6   46 1
    49    7   47 1
    50    8   48 1
    51   10   49 1
    52   12   50 1
    53   13   51 1
    54   13   52 1
    55   15   53 1
    56   15   54 1
    57   16   55 1
    58   16   56 1
    59   17   57 1
    60   17   58 1
    61   20   59 1
    62   21   60 1
    63   22   61 1
    64   22   62 1
    65   23   63 1
    66   23   64 1
    67   24   65 1
    68   25   66 1
    69   25   67 1
    70   26   68 1
    71   26   69 1
    72   27   70 1
    73   27   71 1
    74   28   72 1
    75   28   73 1
    76   29   74 1
    77   29   75 1
    78   30   76 1
    79   30   77 1
    80   31   78 1
    81   31   79 1
    82   31   80 1
    83   32   81 1
    84   35   82 1
    85   35   83 1
    86   37   84 1
    87   37   85 1
    88   38   86 1
    89   38   87 1
    90   38   88 1
@<TRIPOS>PROPERTY_DATA
  Total_Score	| 14.3883
  Crash		| -3.9176
  Polar		| 6.2782
  FragIndex	| 1
  FragRMSD	| 0.127

