@<TRIPOS>MOLECULE
BindingDB_50305444
 86 89 0 0 0
SMALL
NO_CHARGES


@<TRIPOS>ATOM
1    C        29.6654   -5.8842  -13.8622  C     
2    C        29.7762   -5.0085  -12.5786  C     
3    N        28.5343   -4.3826  -12.2947  N     
4    C        28.9885   -7.2966  -13.7060  C     
5    C        29.2085   -8.2413  -14.9535  C     
6    C        31.2906   -8.2576  -16.4644  C     
7    C        32.6817   -8.3188  -16.6535  C     
8    C        33.5264   -8.6114  -15.5717  C     
9    C        32.9702   -8.8674  -14.3098  C     
10   C        31.5779   -8.8086  -14.1279  C     
11   C        30.6976   -8.4766  -15.1902  C     
12   C        28.4022   -9.6182  -14.9855  C     
13   C        28.3190  -10.4493  -13.6591  C     
14   N        27.2511  -10.0151  -12.7590  N     
15   C        25.9193   -9.9892  -13.3302  C     
16   C        25.8680   -9.1475  -14.6224  C     
17   C        26.9636   -9.6129  -15.6135  C     
18   C        27.4663   -9.8198  -11.4449  C     
19   O        28.5422  -10.1698  -10.9643  O     
20   N        26.6236   -9.1965  -10.6308  N     
21   C        26.7054   -8.9909   -9.1997  C     
22   C        25.2567   -8.6168   -8.7454  C     
23   C        27.7398   -7.8716   -8.7785  C     
24   C        29.2589   -8.1875   -8.4725  C     
25   C        29.6862   -9.6920   -8.3768  C     
26   C        31.1681   -9.8891   -8.0207  C     
27   C        32.0878   -9.1399   -9.0131  C     
28   C        31.7177   -7.6323   -9.0933  C     
29   C        30.2183   -7.4205   -9.4331  C     
30   N        25.0417   -8.3178   -7.3030  N     
31   C        25.7433   -9.1887   -6.3220  C     
32   O        28.7063   -7.4502  -16.0465  O     
33   Cl       33.9801   -9.2092  -12.9963  Cl    
34   C        28.0983   -3.2724  -12.8823  C     
35   C        26.7746   -2.7581  -12.6521  C     
36   O        28.7916   -2.6252  -13.6573  O     
37   C        25.9898   -2.2767  -13.8837  C     
38   C        25.5065   -3.5016  -13.0989  C     
39   H        29.1372   -5.3326  -14.6509  H     
40   H        30.6852   -5.9957  -14.2415  H     
41   H        30.0599   -5.6000  -11.7118  H     
42   H        30.5698   -4.2702  -12.7145  H     
43   H        27.9358   -4.8722  -11.7097  H     
44   H        29.3377   -7.8002  -12.8044  H     
45   H        27.9262   -7.1165  -13.5372  H     
46   H        30.7163   -8.0285  -17.2791  H     
47   H        33.0847   -8.1285  -17.5730  H     
48   H        34.5375   -8.6315  -15.7042  H     
49   H        31.2134   -8.9776  -13.1930  H     
50   H        28.9726  -10.2558  -15.6755  H     
51   H        28.1193  -11.5029  -13.9147  H     
52   H        29.3069  -10.4543  -13.1988  H     
53   H        25.6310  -11.0121  -13.5760  H     
54   H        25.1411   -9.6139  -12.6617  H     
55   H        24.8828   -9.2496  -15.0916  H     
56   H        26.0045   -8.0951  -14.3877  H     
57   H        26.9196   -9.0049  -16.5188  H     
58   H        26.7104  -10.6347  -15.9244  H     
59   H        25.7971   -8.9170  -11.0376  H     
60   H        26.9272   -9.9575   -8.7465  H     
61   H        24.9273   -7.7348   -9.3115  H     
62   H        24.5733   -9.4318   -9.0109  H     
63   H        27.6677   -7.0910   -9.5366  H     
64   H        27.3640   -7.3883   -7.8794  H     
65   H        29.4632   -7.7762   -7.4708  H     
66   H        29.0955  -10.2364   -7.6378  H     
67   H        29.5375  -10.1593   -9.3607  H     
68   H        31.3463   -9.5401   -6.9917  H     
69   H        31.3975  -10.9582   -8.0538  H     
70   H        33.1239   -9.2373   -8.6955  H     
71   H        31.9870   -9.5817  -10.0104  H     
72   H        31.9482   -7.1535   -8.1312  H     
73   H        32.3331   -7.1552   -9.8630  H     
74   H        30.0436   -7.7674  -10.4585  H     
75   H        30.0106   -6.3446   -9.4035  H     
76   H        25.2739   -7.3378   -7.1008  H     
77   H        24.0319   -8.4306   -7.1469  H     
78   H        25.6997  -10.2430   -6.6255  H     
79   H        25.2521   -9.0702   -5.3505  H     
80   H        26.7925   -8.8702   -6.2282  H     
81   H        27.8553   -7.0488  -15.7615  H     
82   H        26.6312   -2.1302  -11.7708  H     
83   H        25.3433   -1.4090  -13.7676  H     
84   H        26.3909   -2.5127  -14.8734  H     
85   H        25.6334   -4.4602  -13.6087  H     
86   H        24.6770   -3.3648  -12.3961  H     
@<TRIPOS>BOND
     1    1    2 1
     2    1    4 1
     3    2    3 1
     4    3   34 am
     5    4    5 1
     6    5   11 1
     7    5   12 1
     8    5   32 1
     9    6    7 2
    10    6   11 1
    11    7    8 1
    12    8    9 2
    13    9   10 1
    14    9   33 1
    15   10   11 2
    16   12   13 1
    17   12   17 1
    18   13   14 1
    19   14   15 1
    20   14   18 1
    21   15   16 1
    22   16   17 1
    23   18   19 2
    24   18   20 am
    25   20   21 1
    26   21   22 1
    27   21   23 1
    28   22   30 1
    29   23   24 1
    30   24   25 1
    31   24   29 1
    32   25   26 1
    33   26   27 1
    34   27   28 1
    35   28   29 1
    36   30   31 1
    37   34   35 1
    38   34   36 2
    39   35   37 1
    40   35   38 1
    41   37   38 1
    42    1   39 1
    43    1   40 1
    44    2   41 1
    45    2   42 1
    46    3   43 1
    47    4   44 1
    48    4   45 1
    49    6   46 1
    50    7   47 1
    51    8   48 1
    52   10   49 1
    53   12   50 1
    54   13   51 1
    55   13   52 1
    56   15   53 1
    57   15   54 1
    58   16   55 1
    59   16   56 1
    60   17   57 1
    61   17   58 1
    62   20   59 1
    63   21   60 1
    64   22   61 1
    65   22   62 1
    66   23   63 1
    67   23   64 1
    68   24   65 1
    69   25   66 1
    70   25   67 1
    71   26   68 1
    72   26   69 1
    73   27   70 1
    74   27   71 1
    75   28   72 1
    76   28   73 1
    77   29   74 1
    78   29   75 1
    79   30   76 1
    80   30   77 1
    81   31   78 1
    82   31   79 1
    83   31   80 1
    84   32   81 1
    85   35   82 1
    86   37   83 1
    87   37   84 1
    88   38   85 1
    89   38   86 1
@<TRIPOS>PROPERTY_DATA
  Total_Score	| 14.4807
  Crash		| -2.9071
  Polar		| 6.5808
  FragIndex	| 1
  FragRMSD	| 1.024

