@<TRIPOS>MOLECULE
BindingDB_29955
 85 87 0 0 0
SMALL
NO_CHARGES


@<TRIPOS>ATOM
1    C        31.0377   -7.7876  -14.8136  C     
2    C        31.8761   -8.2446  -13.7608  C     
3    C        33.2207   -8.5942  -13.9763  C     
4    C        33.7633   -8.5015  -15.2680  C     
5    C        32.9677   -8.0328  -16.3310  C     
6    C        31.6225   -7.6805  -16.1043  C     
7    C        29.5959   -7.4329  -14.5201  C     
8    C        28.8660   -8.6854  -13.8712  C     
9    C        29.6178   -6.1293  -13.6243  C     
10   C        28.5984   -5.0039  -13.9261  C     
11   C        28.9309   -3.6905  -13.1497  C     
12   C        27.6948   -2.8523  -12.7734  C     
13   O        26.9565   -2.4590  -13.9533  O     
14   C        28.2229  -11.1767  -14.1513  C     
15   C        28.8969   -9.9442  -14.8054  C     
16   C        27.4062   -8.4559  -13.3618  C     
17   N        26.9046   -9.6727  -12.7337  N     
18   C        26.8090  -10.8110  -13.6357  C     
19   C        26.6826   -9.8001  -11.4139  C     
20   O        26.4410  -10.9051  -10.9388  O     
21   N        26.7284   -8.7807  -10.5618  N     
22   C        26.6939   -8.8263   -9.1276  C     
23   C        25.3000   -8.3468   -8.6365  C     
24   N        25.1017   -8.2202   -7.1790  N     
25   C        27.8706   -8.0034   -8.5242  C     
26   C        29.3126   -8.3985   -9.0026  C     
27   C        30.3783   -7.3976   -8.4566  C     
28   C        29.6799   -9.8689   -8.6158  C     
29   C        31.1305  -10.2403   -9.0128  C     
30   C        32.1627   -9.2327   -8.4531  C     
31   C        31.8226   -7.7828   -8.8769  C     
32   O        28.9040   -7.1186  -15.7364  O     
33   C        24.9796   -9.4622   -6.3574  C     
34   C        25.5693   -2.8434  -13.9691  C     
35   Cl       34.1659   -9.1160  -12.6732  Cl    
36   C        26.3163  -10.1165   -5.9321  C     
37   F        26.1114  -11.1564   -5.0509  F     
38   F        26.9938  -10.6368   -7.0138  F     
39   F        27.1405   -9.1974   -5.3197  F     
40   H        31.5092   -8.3046  -12.8091  H     
41   H        34.7379   -8.7574  -15.4406  H     
42   H        33.3675   -7.9511  -17.2683  H     
43   H        31.0798   -7.3369  -16.8983  H     
44   H        29.4221   -8.9550  -12.9680  H     
45   H        29.5004   -6.4247  -12.5789  H     
46   H        30.6019   -5.6478  -13.6970  H     
47   H        28.6108   -4.7754  -14.9991  H     
48   H        27.5837   -5.3263  -13.6709  H     
49   H        29.4527   -3.9431  -12.2223  H     
50   H        29.6079   -3.0825  -13.7600  H     
51   H        27.0898   -3.4238  -12.0572  H     
52   H        28.0249   -1.9399  -12.2692  H     
53   H        28.1587  -11.9875  -14.8844  H     
54   H        28.8441  -11.5235  -13.3177  H     
55   H        28.3837   -9.7186  -15.7454  H     
56   H        29.9300  -10.2117  -15.0469  H     
57   H        27.4123   -7.6100  -12.6811  H     
58   H        26.7458   -8.1790  -14.1897  H     
59   H        26.1698  -10.5535  -14.4860  H     
60   H        26.3757  -11.7110  -13.1926  H     
61   H        26.8132   -7.8963  -10.9328  H     
62   H        26.8214   -9.8499   -8.7920  H     
63   H        25.1193   -7.3573   -9.0560  H     
64   H        24.5244   -8.9955   -9.0435  H     
65   H        25.8129   -7.6059   -6.7672  H     
66   H        24.1986   -7.7509   -7.0807  H     
67   H        27.6997   -6.9471   -8.7821  H     
68   H        27.8293   -8.0902   -7.4297  H     
69   H        29.3348   -8.3255  -10.0934  H     
70   H        30.1643   -6.3936   -8.8356  H     
71   H        30.3252   -7.3591   -7.3651  H     
72   H        29.5555  -10.0079   -7.5369  H     
73   H        29.0093  -10.5666   -9.1223  H     
74   H        31.3619  -11.2417   -8.6345  H     
75   H        31.2106  -10.2700  -10.1043  H     
76   H        32.1866   -9.2980   -7.3627  H     
77   H        33.1555   -9.4902   -8.8263  H     
78   H        31.9237   -7.6838   -9.9595  H     
79   H        32.5303   -7.0956   -8.4132  H     
80   H        27.9849   -6.8830  -15.4940  H     
81   H        24.4520   -9.1954   -5.4335  H     
82   H        24.3652  -10.2062   -6.8615  H     
83   H        25.4726   -3.9344  -13.9176  H     
84   H        25.1195   -2.5049  -14.9055  H     
85   H        25.0286   -2.3821  -13.1336  H     
@<TRIPOS>BOND
     1    1    2 1
     2    1    6 2
     3    1    7 1
     4    2    3 2
     5    3    4 1
     6    3   35 1
     7    4    5 2
     8    5    6 1
     9    7    8 1
    10    7    9 1
    11    7   32 1
    12    8   15 1
    13    8   16 1
    14    9   10 1
    15   10   11 1
    16   11   12 1
    17   12   13 1
    18   13   34 1
    19   14   15 1
    20   14   18 1
    21   16   17 1
    22   17   18 1
    23   17   19 1
    24   19   20 2
    25   19   21 am
    26   21   22 1
    27   22   23 1
    28   22   25 1
    29   23   24 1
    30   24   33 1
    31   25   26 1
    32   26   27 1
    33   26   28 1
    34   27   31 1
    35   28   29 1
    36   29   30 1
    37   30   31 1
    38   33   36 1
    39   36   37 1
    40   36   38 1
    41   36   39 1
    42    2   40 1
    43    4   41 1
    44    5   42 1
    45    6   43 1
    46    8   44 1
    47    9   45 1
    48    9   46 1
    49   10   47 1
    50   10   48 1
    51   11   49 1
    52   11   50 1
    53   12   51 1
    54   12   52 1
    55   14   53 1
    56   14   54 1
    57   15   55 1
    58   15   56 1
    59   16   57 1
    60   16   58 1
    61   18   59 1
    62   18   60 1
    63   21   61 1
    64   22   62 1
    65   23   63 1
    66   23   64 1
    67   24   65 1
    68   24   66 1
    69   25   67 1
    70   25   68 1
    71   26   69 1
    72   27   70 1
    73   27   71 1
    74   28   72 1
    75   28   73 1
    76   29   74 1
    77   29   75 1
    78   30   76 1
    79   30   77 1
    80   31   78 1
    81   31   79 1
    82   32   80 1
    83   33   81 1
    84   33   82 1
    85   34   83 1
    86   34   84 1
    87   34   85 1
@<TRIPOS>PROPERTY_DATA
  Total_Score	| 14.5632
  Crash		| -2.0736
  Polar		| 6.1963
  FragIndex	| 1
  FragRMSD	| 0.398

