@<TRIPOS>MOLECULE
BindingDB_50382335
 79 81 0 0 0
SMALL
NO_CHARGES


@<TRIPOS>ATOM
1    C        27.9723   -3.3920  -12.9073  C     
2    C        29.3639   -3.7864  -13.4664  C     
3    O        26.9328   -3.6783  -13.8669  O     
4    C        25.6544   -3.1049  -13.5460  C     
5    C        29.4183   -5.0796  -14.3203  C     
6    C        29.0160   -6.3712  -13.5575  C     
7    C        29.2888   -7.7269  -14.3125  C     
8    C        30.7846   -7.8833  -14.5738  C     
9    C        31.3326   -7.6758  -15.8712  C     
10   C        32.7011   -7.8584  -16.1392  C     
11   C        33.5648   -8.2713  -15.1129  C     
12   C        33.0606   -8.4948  -13.8219  C     
13   C        31.6918   -8.2745  -13.5468  C     
14   Cl       34.1161   -9.0386  -12.6113  Cl    
15   F        31.2928   -8.4216  -12.3287  F     
16   O        28.5692   -7.6505  -15.5536  O     
17   C        27.1349   -9.0365  -13.3319  C     
18   N        26.7922  -10.1681  -12.4780  N     
19   C        27.2781  -11.4857  -12.8877  C     
20   C        28.1166  -11.5087  -14.1884  C     
21   C        29.1476  -10.3521  -14.2323  C     
22   C        26.0999  -10.0430  -11.3216  C     
23   O        25.7237  -11.0595  -10.7430  O     
24   N        25.8363   -8.8713  -10.7446  N     
25   C        25.1700   -8.6388   -9.4964  C     
26   C        26.1666   -8.2316   -8.3637  C     
27   C        27.3760   -9.2262   -8.2098  C     
28   N        25.3818   -8.1460   -7.1079  N     
29   C        28.8244   -8.6635   -7.9162  C     
30   C        29.8782   -9.7414   -8.3525  C     
31   C        31.3401   -9.3377   -8.0211  C     
32   C        31.6961   -7.9646   -8.6380  C     
33   C        30.6639   -6.8806   -8.2169  C     
34   C        29.2002   -7.2948   -8.5583  C     
35   C        28.6855   -8.9965  -13.5693  C     
36   H        27.7803   -3.9397  -11.9814  H     
37   H        27.9969   -2.3225  -12.6700  H     
38   H        29.7324   -2.9614  -14.0830  H     
39   H        30.0514   -3.8940  -12.6232  H     
40   H        25.2848   -3.4764  -12.5876  H     
41   H        24.9466   -3.3885  -14.3245  H     
42   H        25.7189   -2.0187  -13.5212  H     
43   H        28.7615   -4.9587  -15.1877  H     
44   H        30.4362   -5.1816  -14.6949  H     
45   H        29.5124   -6.3875  -12.5889  H     
46   H        27.9529   -6.2757  -13.3568  H     
47   H        30.7444   -7.3699  -16.6480  H     
48   H        33.0679   -7.6961  -17.0791  H     
49   H        34.5525   -8.4157  -15.3174  H     
50   H        27.7781   -7.0886  -15.4057  H     
51   H        26.6134   -9.1482  -14.2911  H     
52   H        26.7898   -8.0864  -12.9226  H     
53   H        27.9128  -11.8788  -12.0860  H     
54   H        26.4359  -12.1636  -13.0192  H     
55   H        28.6306  -12.4710  -14.2866  H     
56   H        27.4371  -11.4094  -15.0393  H     
57   H        30.0634  -10.6877  -13.7307  H     
58   H        29.3980  -10.1962  -15.2870  H     
59   H        26.1859   -8.0789  -11.1734  H     
60   H        24.4673   -7.8236   -9.6576  H     
61   H        24.5812   -9.5052   -9.1762  H     
62   H        26.5263   -7.2249   -8.5737  H     
63   H        27.1482   -9.9195   -7.3827  H     
64   H        27.4410   -9.8803   -9.0946  H     
65   H        24.5981   -7.4892   -7.2414  H     
66   H        26.0020   -7.8146   -6.3524  H     
67   H        25.0131   -9.0798   -6.8700  H     
68   H        28.9029   -8.5494   -6.8221  H     
69   H        29.6613  -10.6804   -7.8429  H     
70   H        29.7979   -9.9186   -9.4317  H     
71   H        31.4864   -9.3026   -6.9314  H     
72   H        32.0249  -10.0957   -8.4278  H     
73   H        32.6966   -7.6564   -8.3047  H     
74   H        31.7098   -8.0599   -9.7309  H     
75   H        30.7535   -6.7055   -7.1333  H     
76   H        30.9000   -5.9414   -8.7209  H     
77   H        29.0685   -7.3461   -9.6423  H     
78   H        28.5468   -6.5095   -8.1631  H     
79   H        29.0915   -8.9903  -12.5561  H     
@<TRIPOS>BOND
     1    1    2 1
     2    1    3 1
     3    2    5 1
     4    3    4 1
     5    5    6 1
     6    7    6 1
     7    7    8 1
     8    7   16 1
     9    7   35 1
    10    8    9 2
    11    8   13 1
    12    9   10 1
    13   10   11 2
    14   11   12 1
    15   12   13 2
    16   12   14 1
    17   13   15 1
    18   17   18 1
    19   17   35 1
    20   18   19 1
    21   18   22 1
    22   19   20 1
    23   20   21 1
    24   21   35 1
    25   22   23 2
    26   22   24 am
    27   24   25 1
    28   25   26 1
    29   26   27 1
    30   26   28 1
    31   27   29 1
    32   29   30 1
    33   29   34 1
    34   30   31 1
    35   31   32 1
    36   32   33 1
    37   33   34 1
    38    1   36 1
    39    1   37 1
    40    2   38 1
    41    2   39 1
    42    4   40 1
    43    4   41 1
    44    4   42 1
    45    5   43 1
    46    5   44 1
    47    6   45 1
    48    6   46 1
    49    9   47 1
    50   10   48 1
    51   11   49 1
    52   16   50 1
    53   17   51 1
    54   17   52 1
    55   19   53 1
    56   19   54 1
    57   20   55 1
    58   20   56 1
    59   21   57 1
    60   21   58 1
    61   24   59 1
    62   25   60 1
    63   25   61 1
    64   26   62 1
    65   27   63 1
    66   27   64 1
    67   28   65 1
    68   28   66 1
    69   28   67 1
    70   29   68 1
    71   30   69 1
    72   30   70 1
    73   31   71 1
    74   31   72 1
    75   32   73 1
    76   32   74 1
    77   33   75 1
    78   33   76 1
    79   34   77 1
    80   34   78 1
    81   35   79 1
@<TRIPOS>PROPERTY_DATA
  Total_Score	| 13.7730
  Crash		| -1.6625
  Polar		| 5.4134
  FragIndex	| 1
  FragRMSD	| 0.784

