@<TRIPOS>MOLECULE
BindingDB_50305441
 82 84 0 0 0
SMALL
NO_CHARGES


@<TRIPOS>ATOM
1    C        29.6242   -5.0748  -14.4167  C     
2    C        29.7891   -3.7909  -13.5584  C     
3    N        28.6693   -2.9994  -13.1446  N     
4    C        29.1545   -6.3493  -13.6653  C     
5    C        29.3064   -7.6914  -14.4834  C     
6    C        31.3138   -7.7859  -16.1090  C     
7    C        32.6747   -8.0271  -16.3715  C     
8    C        33.5366   -8.4089  -15.3285  C     
9    C        33.0343   -8.5381  -14.0217  C     
10   C        31.6788   -8.2751  -13.7664  C     
11   C        30.7757   -7.9100  -14.7978  C     
12   C        28.6962   -8.9619  -13.7628  C     
13   C        27.1923   -8.8763  -13.3287  C     
14   N        26.8378  -10.0720  -12.5691  N     
15   C        26.8872  -11.3045  -13.3448  C     
16   C        28.3359  -11.5272  -13.8395  C     
17   C        28.8639  -10.2836  -14.5989  C     
18   C        26.6744  -10.0830  -11.2278  C     
19   O        26.5037  -11.1496  -10.6413  O     
20   N        26.7218   -8.9783  -10.4820  N     
21   C        26.7530   -8.8784   -9.0461  C     
22   C        25.3664   -8.3648   -8.5584  C     
23   C        27.9271   -7.9414   -8.6185  C     
24   C        29.3683   -8.4024   -9.0324  C     
25   C        30.4368   -7.3727   -8.5418  C     
26   C        31.8882   -7.8020   -8.8862  C     
27   C        32.2043   -9.2162   -8.3447  C     
28   C        31.1778  -10.2513   -8.8600  C     
29   C        29.7218   -9.8346   -8.5192  C     
30   N        25.1506   -8.3179   -7.0966  N     
31   C        25.5970   -9.4813   -6.2958  C     
32   O        28.5578   -7.5239  -15.6998  O     
33   Cl       34.0447   -9.0373  -12.7562  Cl    
34   C        27.3695   -3.2010  -13.3239  C     
35   C        26.4286   -2.2640  -12.7596  C     
36   O        26.9379   -4.1532  -13.9599  O     
37   H        28.9000   -4.8792  -15.2077  H     
38   H        30.5922   -5.2860  -14.8906  H     
39   H        30.3334   -4.0481  -12.6445  H     
40   H        30.4252   -3.1000  -14.1204  H     
41   H        28.8995   -2.1866  -12.6762  H     
42   H        29.6967   -6.4377  -12.7140  H     
43   H        28.1072   -6.1709  -13.4143  H     
44   H        30.7195   -7.5152  -16.8938  H     
45   H        33.0413   -7.9332  -17.3216  H     
46   H        34.5247   -8.5863  -15.5226  H     
47   H        31.3460   -8.3695  -12.8030  H     
48   H        29.2550   -9.1069  -12.8319  H     
49   H        27.0135   -7.9700  -12.7669  H     
50   H        26.5536   -8.8024  -14.2132  H     
51   H        26.5768  -12.1961  -12.7915  H     
52   H        26.2100  -11.2267  -14.2017  H     
53   H        28.9783  -11.7199  -12.9739  H     
54   H        28.3762  -12.4086  -14.4884  H     
55   H        28.3281  -10.1902  -15.5494  H     
56   H        29.9150  -10.4691  -14.8307  H     
57   H        26.7601   -8.1325  -10.9507  H     
58   H        26.9205   -9.8582   -8.5896  H     
59   H        25.2163   -7.3488   -8.9349  H     
60   H        24.5854   -8.9897   -9.0001  H     
61   H        27.7435   -6.9538   -9.0542  H     
62   H        27.9017   -7.8229   -7.5320  H     
63   H        29.4115   -8.4170  -10.1257  H     
64   H        30.2465   -6.4009   -9.0048  H     
65   H        30.3534   -7.2486   -7.4587  H     
66   H        32.0283   -7.7857   -9.9704  H     
67   H        32.5875   -7.0866   -8.4485  H     
68   H        33.2069   -9.5115   -8.6632  H     
69   H        32.1908   -9.1992   -7.2492  H     
70   H        31.2813  -10.3582   -9.9444  H     
71   H        31.3906  -11.2233   -8.4076  H     
72   H        29.5870   -9.8763   -7.4349  H     
73   H        29.0488  -10.5698   -8.9682  H     
74   H        25.5813   -7.4765   -6.7087  H     
75   H        24.1421   -8.2244   -6.9690  H     
76   H        25.2045  -10.4147   -6.7094  H     
77   H        25.2264   -9.3665   -5.2746  H     
78   H        26.6879   -9.5273   -6.2602  H     
79   H        27.7522   -7.0122  -15.4798  H     
80   H        26.6232   -2.1382  -11.6890  H     
81   H        25.3929   -2.6030  -12.8801  H     
82   H        26.5270   -1.2957  -13.2565  H     
@<TRIPOS>BOND
     1    1    2 1
     2    1    4 1
     3    2    3 1
     4    3   34 am
     5    4    5 1
     6    5   11 1
     7    5   12 1
     8    5   32 1
     9    6    7 2
    10    6   11 1
    11    7    8 1
    12    8    9 2
    13    9   10 1
    14    9   33 1
    15   10   11 2
    16   12   13 1
    17   12   17 1
    18   13   14 1
    19   14   15 1
    20   14   18 1
    21   15   16 1
    22   16   17 1
    23   18   19 2
    24   18   20 am
    25   20   21 1
    26   21   22 1
    27   21   23 1
    28   22   30 1
    29   23   24 1
    30   24   25 1
    31   24   29 1
    32   25   26 1
    33   26   27 1
    34   27   28 1
    35   28   29 1
    36   30   31 1
    37   34   35 1
    38   34   36 2
    39    1   37 1
    40    1   38 1
    41    2   39 1
    42    2   40 1
    43    3   41 1
    44    4   42 1
    45    4   43 1
    46    6   44 1
    47    7   45 1
    48    8   46 1
    49   10   47 1
    50   12   48 1
    51   13   49 1
    52   13   50 1
    53   15   51 1
    54   15   52 1
    55   16   53 1
    56   16   54 1
    57   17   55 1
    58   17   56 1
    59   20   57 1
    60   21   58 1
    61   22   59 1
    62   22   60 1
    63   23   61 1
    64   23   62 1
    65   24   63 1
    66   25   64 1
    67   25   65 1
    68   26   66 1
    69   26   67 1
    70   27   68 1
    71   27   69 1
    72   28   70 1
    73   28   71 1
    74   29   72 1
    75   29   73 1
    76   30   74 1
    77   30   75 1
    78   31   76 1
    79   31   77 1
    80   31   78 1
    81   32   79 1
    82   35   80 1
    83   35   81 1
    84   35   82 1
@<TRIPOS>PROPERTY_DATA
  Total_Score	| 14.5718
  Crash		| -2.1437
  Polar		| 7.1368
  FragIndex	| 1
  FragRMSD	| 0.189

