@<TRIPOS>MOLECULE
BindingDB_50305450
 83 85 0 0 0
SMALL
NO_CHARGES


@<TRIPOS>ATOM
1    C        29.5605   -5.5606  -13.2384  C     
2    C        29.5772   -4.0085  -13.4542  C     
3    N        28.6792   -3.2749  -12.6162  N     
4    C        28.7720   -6.3294  -14.3510  C     
5    C        29.1334   -7.8277  -14.6715  C     
6    C        31.2696   -7.6743  -16.1025  C     
7    C        32.6638   -7.8140  -16.2819  C     
8    C        33.4750   -8.2203  -15.2085  C     
9    C        32.8989   -8.4527  -13.9454  C     
10   C        31.5035   -8.3038  -13.7768  C     
11   C        30.6424   -7.9444  -14.8502  C     
12   C        28.5280   -8.9586  -13.7325  C     
13   C        27.0141   -8.8019  -13.3567  C     
14   N        26.5954   -9.9502  -12.5535  N     
15   C        26.6292  -11.2130  -13.2752  C     
16   C        28.1121  -11.5438  -13.5694  C     
17   C        28.7779  -10.3892  -14.3539  C     
18   C        26.4523   -9.9222  -11.2159  C     
19   O        26.1719  -10.9535  -10.6076  O     
20   N        26.6409   -8.8224  -10.4866  N     
21   C        26.7329   -8.7168   -9.0522  C     
22   C        25.3293   -8.3069   -8.5109  C     
23   C        27.9033   -7.7293   -8.6895  C     
24   C        29.0587   -8.2814   -7.7845  C     
25   C        29.7658   -9.5866   -8.2930  C     
26   C        30.7004   -9.3481   -9.5074  C     
27   C        31.7531   -8.2486   -9.2111  C     
28   C        31.0904   -6.9335   -8.7253  C     
29   C        30.1392   -7.1783   -7.5158  C     
30   N        25.1374   -8.3280   -7.0396  N     
31   C        25.5776   -9.5308   -6.2994  C     
32   O        28.5116   -8.0458  -15.9524  O     
33   Cl       33.8654   -8.9102  -12.6272  Cl    
34   C        27.4510   -2.8236  -12.9524  C     
35   O        26.8136   -3.2052  -14.0944  O     
36   O        26.8843   -1.9199  -12.1169  O     
37   C        25.5143   -2.7504  -14.4825  C     
38   H        30.6052   -5.8884  -13.2221  H     
39   H        29.1312   -5.7996  -12.2554  H     
40   H        30.5816   -3.6377  -13.2059  H     
41   H        29.4107   -3.7310  -14.5044  H     
42   H        29.0618   -2.8986  -11.8110  H     
43   H        27.7172   -6.2717  -14.0718  H     
44   H        28.8939   -5.7655  -15.2908  H     
45   H        30.7207   -7.3521  -16.9039  H     
46   H        33.0857   -7.6330  -17.1994  H     
47   H        34.4838   -8.3422  -15.3480  H     
48   H        31.1201   -8.4697  -12.8446  H     
49   H        29.0537   -8.9135  -12.7756  H     
50   H        26.8601   -7.8474  -12.8515  H     
51   H        26.4019   -8.7495  -14.2633  H     
52   H        26.1978  -12.0570  -12.7315  H     
53   H        26.0694  -11.1375  -14.2149  H     
54   H        28.6447  -11.6939  -12.6256  H     
55   H        28.1830  -12.4664  -14.1527  H     
56   H        28.3871  -10.4186  -15.3783  H     
57   H        29.8522  -10.5926  -14.4044  H     
58   H        26.7935   -7.9978  -10.9734  H     
59   H        26.9507   -9.6969   -8.6269  H     
60   H        25.1075   -7.2895   -8.8409  H     
61   H        24.5732   -8.9642   -8.9516  H     
62   H        28.3592   -7.3395   -9.6036  H     
63   H        27.4779   -6.8562   -8.1845  H     
64   H        28.6062   -8.5220   -6.8138  H     
65   H        30.3720   -9.9914   -7.4731  H     
66   H        29.0346  -10.3508   -8.5616  H     
67   H        31.2179  -10.2794   -9.7526  H     
68   H        30.1048   -9.0580  -10.3764  H     
69   H        32.4490   -8.6069   -8.4452  H     
70   H        32.3298   -8.0445  -10.1202  H     
71   H        31.8695   -6.2250   -8.4312  H     
72   H        30.5336   -6.4803   -9.5512  H     
73   H        29.6582   -6.2310   -7.2492  H     
74   H        30.7429   -7.4765   -6.6506  H     
75   H        25.5754   -7.5051   -6.6216  H     
76   H        24.1311   -8.2382   -6.8923  H     
77   H        25.1431  -10.4366   -6.7352  H     
78   H        25.2437   -9.4430   -5.2608  H     
79   H        26.6686   -9.6061   -6.3045  H     
80   H        27.7038   -7.4934  -15.9616  H     
81   H        24.7704   -3.1077  -13.7680  H     
82   H        25.2785   -3.1389  -15.4729  H     
83   H        25.4825   -1.6604  -14.5169  H     
@<TRIPOS>BOND
     1    1    2 1
     2    1    4 1
     3    2    3 1
     4    3   34 am
     5    4    5 1
     6    5   11 1
     7    5   12 1
     8    5   32 1
     9    6    7 2
    10    6   11 1
    11    7    8 1
    12    8    9 2
    13    9   10 1
    14    9   33 1
    15   10   11 2
    16   12   13 1
    17   12   17 1
    18   13   14 1
    19   14   15 1
    20   14   18 1
    21   15   16 1
    22   16   17 1
    23   18   19 2
    24   18   20 am
    25   20   21 1
    26   21   22 1
    27   21   23 1
    28   22   30 1
    29   23   24 1
    30   24   25 1
    31   24   29 1
    32   25   26 1
    33   26   27 1
    34   27   28 1
    35   28   29 1
    36   30   31 1
    37   34   35 1
    38   34   36 2
    39   35   37 1
    40    1   38 1
    41    1   39 1
    42    2   40 1
    43    2   41 1
    44    3   42 1
    45    4   43 1
    46    4   44 1
    47    6   45 1
    48    7   46 1
    49    8   47 1
    50   10   48 1
    51   12   49 1
    52   13   50 1
    53   13   51 1
    54   15   52 1
    55   15   53 1
    56   16   54 1
    57   16   55 1
    58   17   56 1
    59   17   57 1
    60   20   58 1
    61   21   59 1
    62   22   60 1
    63   22   61 1
    64   23   62 1
    65   23   63 1
    66   24   64 1
    67   25   65 1
    68   25   66 1
    69   26   67 1
    70   26   68 1
    71   27   69 1
    72   27   70 1
    73   28   71 1
    74   28   72 1
    75   29   73 1
    76   29   74 1
    77   30   75 1
    78   30   76 1
    79   31   77 1
    80   31   78 1
    81   31   79 1
    82   32   80 1
    83   37   81 1
    84   37   82 1
    85   37   83 1
@<TRIPOS>PROPERTY_DATA
  Total_Score	| 12.3919
  Crash		| -2.9042
  Polar		| 6.8448
  FragIndex	| 1
  FragRMSD	| 0.553

