@<TRIPOS>MOLECULE
BindingDB_29957
 82 84 0 0 0
SMALL
NO_CHARGES


@<TRIPOS>ATOM
1    C        30.9644   -7.9354  -14.6395  C     
2    C        31.8364   -8.3816  -13.6102  C     
3    C        33.1969   -8.6879  -13.8634  C     
4    C        33.7164   -8.5085  -15.1542  C     
5    C        32.8984   -8.0044  -16.1778  C     
6    C        31.5497   -7.7187  -15.9274  C     
7    C        29.5185   -7.5777  -14.3666  C     
8    C        28.7176   -8.8115  -13.7805  C     
9    C        29.5394   -6.2538  -13.4585  C     
10   C        28.6377   -5.0744  -13.8660  C     
11   C        28.9732   -3.7253  -13.1396  C     
12   C        27.7371   -2.9072  -12.7489  C     
13   O        26.9594   -2.5406  -13.9226  O     
14   C        27.9736  -11.2859  -14.1361  C     
15   C        28.6903  -10.0528  -14.7493  C     
16   C        27.2390   -8.5632  -13.3266  C     
17   N        26.7271   -9.7524  -12.6563  N     
18   C        26.5945  -10.9132  -13.5338  C     
19   C        26.5498   -9.8450  -11.3258  C     
20   O        26.2642  -10.9206  -10.8150  O     
21   N        26.6833   -8.7984  -10.4948  N     
22   C        26.6850   -8.8123   -9.0535  C     
23   C        25.3043   -8.2937   -8.5463  C     
24   N        25.1002   -8.2657   -7.0803  N     
25   C        27.8858   -7.9448   -8.5386  C     
26   C        29.3052   -8.4071   -8.9930  C     
27   C        30.3950   -7.3910   -8.5172  C     
28   C        29.6735   -9.8467   -8.4892  C     
29   C        31.1081  -10.2653   -8.8902  C     
30   C        32.1671   -9.2432   -8.4114  C     
31   C        31.8322   -7.8147   -8.9038  C     
32   O        28.8397   -7.2817  -15.6038  O     
33   C        25.5237   -9.4483   -6.2966  C     
34   C        25.5860   -2.9073  -13.9161  C     
35   Cl       34.2228   -9.2369  -12.6307  Cl    
36   F        31.4384   -8.4790  -12.3696  F     
37   H        34.6978   -8.7241  -15.3505  H     
38   H        33.2907   -7.8366  -17.1065  H     
39   H        31.0045   -7.3223  -16.6930  H     
40   H        29.2293   -9.1388  -12.8777  H     
41   H        29.3105   -6.5514  -12.4260  H     
42   H        30.5605   -5.8509  -13.4106  H     
43   H        28.7286   -4.8625  -14.9334  H     
44   H        27.5881   -5.3485  -13.6831  H     
45   H        29.5544   -3.9193  -12.2356  H     
46   H        29.6101   -3.1234  -13.8063  H     
47   H        27.1498   -3.4780  -12.0016  H     
48   H        28.0477   -1.9799  -12.2775  H     
49   H        27.8355  -12.0463  -14.9141  H     
50   H        28.5988  -11.7221  -13.3502  H     
51   H        28.1782   -9.7742  -15.6731  H     
52   H        29.7083  -10.3502  -15.0168  H     
53   H        27.2059   -7.6829  -12.6887  H     
54   H        26.6133   -8.3194  -14.1933  H     
55   H        25.9020  -10.6824  -14.3443  H     
56   H        26.2001  -11.8024  -13.0390  H     
57   H        26.7959   -7.9355  -10.8998  H     
58   H        26.8029   -9.8175   -8.6740  H     
59   H        25.1511   -7.2754   -8.9045  H     
60   H        24.5160   -8.9107   -8.9864  H     
61   H        25.5440   -7.4407   -6.6851  H     
62   H        24.0984   -8.1552   -6.9417  H     
63   H        27.7292   -6.9177   -8.8755  H     
64   H        27.8589   -7.9338   -7.4468  H     
65   H        29.3264   -8.4219  -10.0834  H     
66   H        30.1924   -6.4122   -8.9639  H     
67   H        30.3432   -7.2772   -7.4316  H     
68   H        29.5742   -9.8888   -7.4039  H     
69   H        28.9883  -10.5773   -8.9192  H     
70   H        31.3307  -11.2475   -8.4548  H     
71   H        31.1670  -10.3668   -9.9775  H     
72   H        32.2139   -9.2506   -7.3176  H     
73   H        33.1478   -9.5347   -8.7926  H     
74   H        31.9465   -7.7713   -9.9878  H     
75   H        32.5498   -7.1112   -8.4735  H     
76   H        27.9430   -6.9667  -15.3913  H     
77   H        25.1347  -10.3637   -6.7392  H     
78   H        25.1295   -9.3521   -5.2844  H     
79   H        26.6076   -9.4982   -6.2374  H     
80   H        25.4650   -3.9928  -13.9092  H     
81   H        25.1087   -2.5211  -14.8276  H     
82   H        25.0651   -2.4784  -13.0574  H     
@<TRIPOS>BOND
     1    1    2 1
     2    1    6 2
     3    1    7 1
     4    2    3 2
     5    2   36 1
     6    3    4 1
     7    3   35 1
     8    4    5 2
     9    5    6 1
    10    7    8 1
    11    7    9 1
    12    7   32 1
    13    8   15 1
    14    8   16 1
    15    9   10 1
    16   10   11 1
    17   11   12 1
    18   12   13 1
    19   13   34 1
    20   14   15 1
    21   14   18 1
    22   16   17 1
    23   17   18 1
    24   17   19 1
    25   19   20 2
    26   19   21 am
    27   21   22 1
    28   22   23 1
    29   22   25 1
    30   23   24 1
    31   24   33 1
    32   25   26 1
    33   26   27 1
    34   26   28 1
    35   27   31 1
    36   28   29 1
    37   29   30 1
    38   30   31 1
    39    4   37 1
    40    5   38 1
    41    6   39 1
    42    8   40 1
    43    9   41 1
    44    9   42 1
    45   10   43 1
    46   10   44 1
    47   11   45 1
    48   11   46 1
    49   12   47 1
    50   12   48 1
    51   14   49 1
    52   14   50 1
    53   15   51 1
    54   15   52 1
    55   16   53 1
    56   16   54 1
    57   18   55 1
    58   18   56 1
    59   21   57 1
    60   22   58 1
    61   23   59 1
    62   23   60 1
    63   24   61 1
    64   24   62 1
    65   25   63 1
    66   25   64 1
    67   26   65 1
    68   27   66 1
    69   27   67 1
    70   28   68 1
    71   28   69 1
    72   29   70 1
    73   29   71 1
    74   30   72 1
    75   30   73 1
    76   31   74 1
    77   31   75 1
    78   32   76 1
    79   33   77 1
    80   33   78 1
    81   33   79 1
    82   34   80 1
    83   34   81 1
    84   34   82 1
@<TRIPOS>PROPERTY_DATA
  Total_Score	| 14.8885
  Crash		| -1.4798
  Polar		| 6.5364
  FragIndex	| 1
  FragRMSD	| 0.338

