@<TRIPOS>MOLECULE
BindingDB_29959
 82 84 0 0 0
SMALL
NO_CHARGES


@<TRIPOS>ATOM
1    C        30.9856   -7.8511  -14.6722  C     
2    C        31.5292   -7.7727  -15.9808  C     
3    C        32.8684   -8.1196  -16.2377  C     
4    C        33.7003   -8.5495  -15.1896  C     
5    C        33.1956   -8.6140  -13.8792  C     
6    C        31.8582   -8.2568  -13.6290  C     
7    C        29.5508   -7.4743  -14.3563  C     
8    C        28.8091   -8.7127  -13.6851  C     
9    C        29.5912   -6.1510  -13.5003  C     
10   C        28.5785   -5.0230  -13.8365  C     
11   C        28.8765   -3.6970  -13.0820  C     
12   C        27.6049   -2.8784  -12.7487  C     
13   O        26.9277   -2.4978  -13.9609  O     
14   C        28.0746  -11.1865  -13.9958  C     
15   C        28.8062   -9.9729  -14.6180  C     
16   C        27.3573   -8.4565  -13.1596  C     
17   N        26.8084   -9.6664  -12.5498  N     
18   C        26.6718  -10.7797  -13.4825  C     
19   C        26.5811   -9.8165  -11.2317  C     
20   O        26.2447  -10.9094  -10.7837  O     
21   N        26.7286   -8.8255  -10.3465  N     
22   C        26.6981   -8.9087   -8.9090  C     
23   C        25.2932   -8.4569   -8.4108  C     
24   N        25.1046   -8.3599   -6.9439  N     
25   C        27.8742   -8.0667   -8.3234  C     
26   C        29.3078   -8.4305   -8.8453  C     
27   C        30.3798   -7.4386   -8.2918  C     
28   C        29.7224   -9.9013   -8.5204  C     
29   C        31.1633  -10.2419   -8.9871  C     
30   C        32.2061   -9.2325   -8.4466  C     
31   C        31.8094   -7.7760   -8.7959  C     
32   O        28.8427   -7.1751  -15.5786  O     
33   C        25.5462   -9.5105   -6.1309  C     
34   C        25.5458   -2.8650  -14.0294  C     
35   Cl       34.1862   -9.1108  -12.6026  Cl    
36   F        33.3397   -8.0398  -17.4531  F     
37   H        30.9580   -7.4567  -16.7690  H     
38   H        34.6721   -8.8110  -15.3807  H     
39   H        31.5253   -8.2916  -12.6668  H     
40   H        29.3689   -8.9910  -12.7898  H     
41   H        29.4748   -6.4140  -12.4413  H     
42   H        30.5786   -5.6843  -13.5950  H     
43   H        28.6102   -4.8072  -14.9030  H     
44   H        27.5684   -5.3512  -13.5913  H     
45   H        29.3949   -3.9156  -12.1370  H     
46   H        29.5556   -3.0828  -13.6887  H     
47   H        26.9807   -3.4747  -12.0797  H     
48   H        27.8970   -1.9698  -12.2170  H     
49   H        27.9765  -11.9799  -14.7398  H     
50   H        28.6597  -11.5767  -13.1570  H     
51   H        28.3237   -9.7283  -15.5674  H     
52   H        29.8285  -10.2819  -14.8362  H     
53   H        27.3916   -7.6285  -12.4614  H     
54   H        26.7093   -8.1398  -13.9825  H     
55   H        26.0405  -10.4784  -14.3242  H     
56   H        26.1958  -11.6685  -13.0508  H     
57   H        26.9031   -7.9458  -10.7051  H     
58   H        26.8394   -9.9402   -8.5787  H     
59   H        25.0649   -7.4731   -8.8247  H     
60   H        24.5470   -9.1541   -8.8011  H     
61   H        25.5567   -7.5101   -6.5992  H     
62   H        24.1005   -8.2520   -6.7935  H     
63   H        27.6825   -7.0146   -8.5480  H     
64   H        27.8663   -8.1691   -7.2358  H     
65   H        29.3067   -8.3194   -9.9353  H     
66   H        30.1391   -6.4203   -8.6080  H     
67   H        30.3759   -7.4594   -7.1985  H     
68   H        29.6472  -10.0720   -7.4427  H     
69   H        29.0431  -10.5983   -9.0184  H     
70   H        31.4237  -11.2467   -8.6416  H     
71   H        31.1976  -10.2427  -10.0806  H     
72   H        32.2907   -9.3379   -7.3601  H     
73   H        33.1832   -9.4558   -8.8848  H     
74   H        31.8584   -7.6365   -9.8812  H     
75   H        32.5298   -7.0900   -8.3406  H     
76   H        27.9399   -6.8944  -15.3277  H     
77   H        25.1374  -10.4437   -6.5240  H     
78   H        25.1802   -9.3784   -5.1118  H     
79   H        26.6370   -9.5657   -6.1076  H     
80   H        25.4213   -3.9459  -13.9395  H     
81   H        25.1452   -2.5576  -14.9975  H     
82   H        24.9715   -2.3668  -13.2456  H     
@<TRIPOS>BOND
     1    1    2 1
     2    1    6 2
     3    1    7 1
     4    2    3 2
     5    3    4 1
     6    3   36 1
     7    4    5 2
     8    5    6 1
     9    5   35 1
    10    7    8 1
    11    7    9 1
    12    7   32 1
    13    8   15 1
    14    8   16 1
    15    9   10 1
    16   10   11 1
    17   11   12 1
    18   12   13 1
    19   13   34 1
    20   14   15 1
    21   14   18 1
    22   16   17 1
    23   17   18 1
    24   17   19 1
    25   19   20 2
    26   19   21 am
    27   21   22 1
    28   22   23 1
    29   22   25 1
    30   23   24 1
    31   24   33 1
    32   25   26 1
    33   26   27 1
    34   26   28 1
    35   27   31 1
    36   28   29 1
    37   29   30 1
    38   30   31 1
    39    2   37 1
    40    4   38 1
    41    6   39 1
    42    8   40 1
    43    9   41 1
    44    9   42 1
    45   10   43 1
    46   10   44 1
    47   11   45 1
    48   11   46 1
    49   12   47 1
    50   12   48 1
    51   14   49 1
    52   14   50 1
    53   15   51 1
    54   15   52 1
    55   16   53 1
    56   16   54 1
    57   18   55 1
    58   18   56 1
    59   21   57 1
    60   22   58 1
    61   23   59 1
    62   23   60 1
    63   24   61 1
    64   24   62 1
    65   25   63 1
    66   25   64 1
    67   26   65 1
    68   27   66 1
    69   27   67 1
    70   28   68 1
    71   28   69 1
    72   29   70 1
    73   29   71 1
    74   30   72 1
    75   30   73 1
    76   31   74 1
    77   31   75 1
    78   32   76 1
    79   33   77 1
    80   33   78 1
    81   33   79 1
    82   34   80 1
    83   34   81 1
    84   34   82 1
@<TRIPOS>PROPERTY_DATA
  Total_Score	| 14.9039
  Crash		| -1.6369
  Polar		| 6.5137
  FragIndex	| 1
  FragRMSD	| 0.403

