@<TRIPOS>MOLECULE
BindingDB_50305442
 85 87 0 0 0
SMALL
NO_CHARGES


@<TRIPOS>ATOM
1    C        29.9392   -5.5179  -13.5585  C     
2    C        29.5278   -4.4860  -12.4695  C     
3    N        28.1261   -4.2162  -12.3916  N     
4    C        28.8460   -6.6208  -13.7792  C     
5    C        29.1748   -7.9287  -14.5980  C     
6    C        31.2984   -7.8297  -16.0444  C     
7    C        32.6901   -7.9609  -16.2205  C     
8    C        33.4955   -8.3684  -15.1470  C     
9    C        32.9089   -8.6131  -13.8890  C     
10   C        31.5136   -8.4581  -13.7163  C     
11   C        30.6701   -8.0847  -14.7895  C     
12   C        28.5344   -9.1913  -13.8763  C     
13   C        26.9946   -9.0767  -13.5420  C     
14   N        26.6257  -10.2061  -12.6868  N     
15   C        26.7400  -11.5044  -13.3451  C     
16   C        28.2160  -11.7402  -13.7635  C     
17   C        28.7725  -10.5572  -14.6056  C     
18   C        26.4359  -10.0863  -11.3545  C     
19   O        26.1920  -11.0946  -10.6963  O     
20   N        26.5530   -8.9400  -10.6736  N     
21   C        26.7245   -8.7940   -9.2382  C     
22   C        25.4048   -8.2142   -8.6428  C     
23   C        27.9982   -7.9428   -8.9247  C     
24   C        29.2714   -8.2436   -9.7891  C     
25   C        30.4270   -7.2180   -9.5670  C     
26   C        31.2802   -7.5035   -8.3022  C     
27   C        31.8007   -8.9638   -8.2561  C     
28   C        30.6473   -9.9820   -8.4275  C     
29   C        29.8383   -9.6999   -9.7186  C     
30   N        25.2010   -8.3111   -7.1758  N     
31   C        25.6750   -9.5354   -6.4980  C     
32   O        28.5390   -7.8223  -15.8824  O     
33   Cl       33.8842   -9.0599  -12.5705  Cl    
34   C        27.4264   -3.4098  -13.1709  C     
35   C        25.9842   -3.4634  -13.0342  C     
36   O        27.9605   -2.6688  -13.9829  O     
37   C        25.1506   -2.4575  -13.8671  C     
38   H        30.1288   -4.9968  -14.5110  H     
39   H        30.8644   -6.0104  -13.2326  H     
40   H        29.8073   -4.9042  -11.4967  H     
41   H        30.0933   -3.5613  -12.6111  H     
42   H        27.6173   -4.7696  -11.7788  H     
43   H        28.4694   -6.9113  -12.7861  H     
44   H        28.0058   -6.1141  -14.2856  H     
45   H        30.7613   -7.5057  -16.8593  H     
46   H        33.1219   -7.7740  -17.1325  H     
47   H        34.5064   -8.4752  -15.2744  H     
48   H        31.1035   -8.6425  -12.8007  H     
49   H        29.0504   -9.2744  -12.9090  H     
50   H        26.7738   -8.0965  -13.0937  H     
51   H        26.4198   -9.1190  -14.4836  H     
52   H        26.4311  -12.3367  -12.7119  H     
53   H        26.0946  -11.5267  -14.2267  H     
54   H        28.8215  -11.8480  -12.8567  H     
55   H        28.2887  -12.6667  -14.3363  H     
56   H        28.2813  -10.5454  -15.5853  H     
57   H        29.8445  -10.7257  -14.7635  H     
58   H        26.6361   -8.1203  -11.1914  H     
59   H        26.8777   -9.7701   -8.7632  H     
60   H        25.3312   -7.1580   -8.9021  H     
61   H        24.5590   -8.7166   -9.1268  H     
62   H        27.7398   -6.8919   -9.0780  H     
63   H        28.2472   -8.0616   -7.8698  H     
64   H        28.9583   -8.1059  -10.8192  H     
65   H        31.0958   -7.2393  -10.4351  H     
66   H        30.0256   -6.2028   -9.5004  H     
67   H        32.1368   -6.8261   -8.2970  H     
68   H        30.6878   -7.3029   -7.4047  H     
69   H        32.5384   -9.1119   -9.0500  H     
70   H        32.2979   -9.1403   -7.2999  H     
71   H        31.0609  -10.9946   -8.4786  H     
72   H        29.9771   -9.9352   -7.5658  H     
73   H        29.0362  -10.4339   -9.8124  H     
74   H        30.5042   -9.8557  -10.5755  H     
75   H        25.6100   -7.5039   -6.7055  H     
76   H        24.1937   -8.2652   -7.0300  H     
77   H        25.3928  -10.4351   -7.0555  H     
78   H        25.2194   -9.5844   -5.5084  H     
79   H        26.7631   -9.5077   -6.3806  H     
80   H        27.6820   -7.3771  -15.7377  H     
81   H        25.6557   -4.4672  -13.3134  H     
82   H        25.7290   -3.3031  -11.9852  H     
83   H        25.4209   -1.4263  -13.6141  H     
84   H        24.0890   -2.5993  -13.6484  H     
85   H        25.3106   -2.6174  -14.9391  H     
@<TRIPOS>BOND
     1    1    2 1
     2    1    4 1
     3    2    3 1
     4    3   34 am
     5    4    5 1
     6    5   11 1
     7    5   12 1
     8    5   32 1
     9    6    7 2
    10    6   11 1
    11    7    8 1
    12    8    9 2
    13    9   10 1
    14    9   33 1
    15   10   11 2
    16   12   13 1
    17   12   17 1
    18   13   14 1
    19   14   15 1
    20   14   18 1
    21   15   16 1
    22   16   17 1
    23   18   19 2
    24   18   20 am
    25   20   21 1
    26   21   22 1
    27   21   23 1
    28   22   30 1
    29   23   24 1
    30   24   25 1
    31   24   29 1
    32   25   26 1
    33   26   27 1
    34   27   28 1
    35   28   29 1
    36   30   31 1
    37   34   35 1
    38   34   36 2
    39   35   37 1
    40    1   38 1
    41    1   39 1
    42    2   40 1
    43    2   41 1
    44    3   42 1
    45    4   43 1
    46    4   44 1
    47    6   45 1
    48    7   46 1
    49    8   47 1
    50   10   48 1
    51   12   49 1
    52   13   50 1
    53   13   51 1
    54   15   52 1
    55   15   53 1
    56   16   54 1
    57   16   55 1
    58   17   56 1
    59   17   57 1
    60   20   58 1
    61   21   59 1
    62   22   60 1
    63   22   61 1
    64   23   62 1
    65   23   63 1
    66   24   64 1
    67   25   65 1
    68   25   66 1
    69   26   67 1
    70   26   68 1
    71   27   69 1
    72   27   70 1
    73   28   71 1
    74   28   72 1
    75   29   73 1
    76   29   74 1
    77   30   75 1
    78   30   76 1
    79   31   77 1
    80   31   78 1
    81   31   79 1
    82   32   80 1
    83   35   81 1
    84   35   82 1
    85   37   83 1
    86   37   84 1
    87   37   85 1
@<TRIPOS>PROPERTY_DATA
  Total_Score	| 14.0880
  Crash		| -3.1164
  Polar		| 7.2038
  FragIndex	| 1
  FragRMSD	| 0.559

