@<TRIPOS>MOLECULE
BindingDB_29954
 85 87 0 0 0
SMALL
NO_CHARGES


@<TRIPOS>ATOM
1    C        30.8016   -7.8890  -14.6826  C     
2    C        31.6780   -8.2553  -13.6229  C     
3    C        33.0477   -8.4758  -13.8358  C     
4    C        33.5881   -8.3245  -15.1285  C     
5    C        32.7527   -7.9414  -16.1901  C     
6    C        31.3772   -7.7396  -15.9767  C     
7    C        29.3201   -7.6875  -14.4224  C     
8    C        28.7173   -8.9596  -13.6819  C     
9    C        29.1122   -6.3370  -13.6389  C     
10   C        29.4983   -5.0370  -14.4086  C     
11   C        29.5384   -3.7488  -13.5383  C     
12   C        28.1980   -3.3255  -12.8916  C     
13   O        27.3083   -2.7910  -13.8871  O     
14   C        28.3239  -11.5189  -13.8027  C     
15   C        28.8345  -10.2600  -14.5523  C     
16   C        27.2366   -8.8649  -13.1743  C     
17   N        26.8904  -10.0665  -12.4111  N     
18   C        26.9130  -11.2893  -13.2005  C     
19   C        26.7024  -10.0822  -11.0703  C     
20   O        26.4877  -11.1381  -10.4820  O     
21   N        26.7314   -8.9798  -10.3228  N     
22   C        26.7583   -8.8567   -8.8797  C     
23   C        25.3132   -8.5157   -8.3946  C     
24   N        25.0967   -8.3675   -6.9318  N     
25   C        27.8464   -7.7791   -8.5060  C     
26   C        29.0402   -8.2466   -7.6013  C     
27   C        29.8365   -9.4943   -8.1090  C     
28   C        30.0522   -7.0821   -7.3309  C     
29   C        30.9647   -6.7502   -8.5513  C     
30   C        31.6922   -8.0079   -9.0901  C     
31   C        30.7177   -9.1854   -9.3553  C     
32   O        28.6016   -7.5457  -15.6571  O     
33   C        25.4304   -9.4953   -6.0225  C     
34   C        25.9123   -3.0643  -13.6723  C     
35   Cl       34.0399   -8.9718  -12.5551  Cl    
36   C        24.1658  -10.2648   -5.5684  C     
37   H        31.3129   -8.3547  -12.6698  H     
38   H        34.5822   -8.4819  -15.2987  H     
39   H        33.1447   -7.8260  -17.1299  H     
40   H        30.7998   -7.4658  -16.7770  H     
41   H        29.3165   -9.1245  -12.7800  H     
42   H        28.0593   -6.2397  -13.3917  H     
43   H        29.6684   -6.3767  -12.6991  H     
44   H        30.4884   -5.1582  -14.8488  H     
45   H        28.7891   -4.8913  -15.2285  H     
46   H        30.2744   -3.8946  -12.7499  H     
47   H        29.8920   -2.9212  -14.1625  H     
48   H        27.7696   -4.1827  -12.3635  H     
49   H        28.3914   -2.5405  -12.1583  H     
50   H        28.2950  -12.3700  -14.4906  H     
51   H        29.0254  -11.7658  -12.9981  H     
52   H        28.2584  -10.1466  -15.4756  H     
53   H        29.8744  -10.4397  -14.8300  H     
54   H        27.1180   -7.9628  -12.5864  H     
55   H        26.5497   -8.7542  -14.0208  H     
56   H        26.1784  -11.2072  -14.0080  H     
57   H        26.6521  -12.1874  -12.6344  H     
58   H        26.8068   -8.1372  -10.7916  H     
59   H        27.0325   -9.8105   -8.4202  H     
60   H        25.0131   -7.5650   -8.8511  H     
61   H        24.6240   -9.2801   -8.7663  H     
62   H        25.5975   -7.5349   -6.6094  H     
63   H        24.0968   -8.1724   -6.8268  H     
64   H        28.2676   -7.3388   -9.4135  H     
65   H        27.3549   -6.9491   -7.9884  H     
66   H        28.6038   -8.5248   -6.6350  H     
67   H        30.5027   -9.8328   -7.3059  H     
68   H        29.1587  -10.3158   -8.3516  H     
69   H        29.5172   -6.1754   -7.0279  H     
70   H        30.6924   -7.3631   -6.4884  H     
71   H        30.3611   -6.3101   -9.3508  H     
72   H        31.7078   -6.0056   -8.2526  H     
73   H        32.2104   -7.7510  -10.0239  H     
74   H        32.4550   -8.3216   -8.3665  H     
75   H        31.2961  -10.0763   -9.6151  H     
76   H        30.0778   -8.9472  -10.2105  H     
77   H        27.7541   -7.0963  -15.4599  H     
78   H        26.1414  -10.1897   -6.4843  H     
79   H        25.8975   -9.0622   -5.1308  H     
80   H        25.7111   -4.1331  -13.7465  H     
81   H        25.3337   -2.5502  -14.4482  H     
82   H        25.5861   -2.6946  -12.6958  H     
83   H        23.4791   -9.5886   -5.0414  H     
84   H        24.4577  -11.0721   -4.8848  H     
85   H        23.6514  -10.6992   -6.4355  H     
@<TRIPOS>BOND
     1    1    2 1
     2    1    6 2
     3    1    7 1
     4    2    3 2
     5    3    4 1
     6    3   35 1
     7    4    5 2
     8    5    6 1
     9    7    8 1
    10    7    9 1
    11    7   32 1
    12    8   15 1
    13    8   16 1
    14    9   10 1
    15   10   11 1
    16   11   12 1
    17   12   13 1
    18   13   34 1
    19   14   15 1
    20   14   18 1
    21   16   17 1
    22   17   18 1
    23   17   19 1
    24   19   20 2
    25   19   21 am
    26   21   22 1
    27   22   23 1
    28   22   25 1
    29   23   24 1
    30   24   33 1
    31   25   26 1
    32   26   27 1
    33   26   28 1
    34   27   31 1
    35   28   29 1
    36   29   30 1
    37   30   31 1
    38   33   36 1
    39    2   37 1
    40    4   38 1
    41    5   39 1
    42    6   40 1
    43    8   41 1
    44    9   42 1
    45    9   43 1
    46   10   44 1
    47   10   45 1
    48   11   46 1
    49   11   47 1
    50   12   48 1
    51   12   49 1
    52   14   50 1
    53   14   51 1
    54   15   52 1
    55   15   53 1
    56   16   54 1
    57   16   55 1
    58   18   56 1
    59   18   57 1
    60   21   58 1
    61   22   59 1
    62   23   60 1
    63   23   61 1
    64   24   62 1
    65   24   63 1
    66   25   64 1
    67   25   65 1
    68   26   66 1
    69   27   67 1
    70   27   68 1
    71   28   69 1
    72   28   70 1
    73   29   71 1
    74   29   72 1
    75   30   73 1
    76   30   74 1
    77   31   75 1
    78   31   76 1
    79   32   77 1
    80   33   78 1
    81   33   79 1
    82   34   80 1
    83   34   81 1
    84   34   82 1
    85   36   83 1
    86   36   84 1
    87   36   85 1
@<TRIPOS>PROPERTY_DATA
  Total_Score	| 14.8900
  Crash		| -1.9285
  Polar		| 6.6366
  FragIndex	| 1
  FragRMSD	| 0.541

