@<TRIPOS>MOLECULE
BindingDB_29940
 79 81 0 0 0
SMALL
NO_CHARGES


@<TRIPOS>ATOM
1    C        30.7360   -7.9376  -14.8621  C     
2    C        31.6039   -8.2231  -13.7721  C     
3    C        32.9841   -8.4413  -13.9525  C     
4    C        33.5469   -8.3098  -15.2340  C     
5    C        32.7327   -7.9529  -16.3196  C     
6    C        31.3480   -7.7744  -16.1374  C     
7    C        29.2335   -7.8066  -14.6719  C     
8    C        28.6369   -8.9611  -13.7592  C     
9    C        28.8787   -6.3242  -14.2924  C     
10   C        29.6111   -5.6012  -13.1243  C     
11   C        29.3899   -4.0590  -13.1420  C     
12   C        27.9451   -3.5766  -12.8385  C     
13   O        27.7555   -2.2324  -13.2866  O     
14   C        28.1388  -11.5303  -13.6684  C     
15   C        28.7935  -10.3646  -14.4519  C     
16   C        27.1475   -8.7788  -13.3179  C     
17   N        26.6916   -9.9304  -12.5396  N     
18   C        26.6823  -11.1821  -13.2831  C     
19   C        26.4639   -9.9097  -11.2109  C     
20   O        26.0850  -10.9252  -10.6367  O     
21   N        26.6857   -8.8345  -10.4495  N     
22   C        26.7175   -8.7857   -9.0073  C     
23   C        25.3421   -8.2734   -8.4938  C     
24   N        25.1294   -8.3111   -7.0248  N     
25   C        27.9154   -7.8994   -8.5390  C     
26   C        29.3369   -8.3755   -8.9945  C     
27   C        30.4446   -7.4172   -8.4486  C     
28   C        29.6492   -9.8442   -8.5748  C     
29   C        31.0859  -10.2921   -8.9564  C     
30   C        32.1575   -9.3249   -8.3933  C     
31   C        31.8754   -7.8708   -8.8445  C     
32   O        28.5847   -7.9615  -15.9501  O     
33   Cl       33.9527   -8.8924  -12.6348  Cl    
34   C        25.5543   -9.5256   -6.2968  C     
35   H        31.2388   -8.3036  -12.8242  H     
36   H        34.5483   -8.4723  -15.3788  H     
37   H        33.1480   -7.8378  -17.2519  H     
38   H        30.7912   -7.5291  -16.9578  H     
39   H        29.1984   -8.9946  -12.8218  H     
40   H        29.0182   -5.7154  -15.1961  H     
41   H        27.8129   -6.2866  -14.0605  H     
42   H        29.2773   -6.0137  -12.1676  H     
43   H        30.6880   -5.7617  -13.2091  H     
44   H        30.0427   -3.6106  -12.3935  H     
45   H        29.6971   -3.6676  -14.1161  H     
46   H        27.2048   -4.1841  -13.3667  H     
47   H        27.7420   -3.6386  -11.7617  H     
48   H        28.1733   -1.6443  -12.6241  H     
49   H        28.1462  -12.4386  -14.2782  H     
50   H        28.7134  -11.7257  -12.7601  H     
51   H        28.3274  -10.3459  -15.4416  H     
52   H        29.8522  -10.6078  -14.5927  H     
53   H        27.0441   -7.8462  -12.7674  H     
54   H        26.5152   -8.6770  -14.2048  H     
55   H        26.0662  -11.0735  -14.1837  H     
56   H        26.2737  -12.0309  -12.7300  H     
57   H        26.9188   -8.0070  -10.8992  H     
58   H        26.8642   -9.7852   -8.5915  H     
59   H        25.2108   -7.2370   -8.8081  H     
60   H        24.5463   -8.8567   -8.9678  H     
61   H        25.5613   -7.4928   -6.5909  H     
62   H        24.1224   -8.2142   -6.8956  H     
63   H        27.7527   -6.8854   -8.9167  H     
64   H        27.9053   -7.8438   -7.4456  H     
65   H        29.3778   -8.3211  -10.0865  H     
66   H        30.2841   -6.4089   -8.8408  H     
67   H        30.3837   -7.3638   -7.3565  H     
68   H        29.5200   -9.9553   -7.4935  H     
69   H        28.9542  -10.5295   -9.0665  H     
70   H        31.2663  -11.2984   -8.5666  H     
71   H        31.1753  -10.3325  -10.0463  H     
72   H        32.1621   -9.3790   -7.2993  H     
73   H        33.1440   -9.6316   -8.7504  H     
74   H        31.9955   -7.7969   -9.9307  H     
75   H        32.6110   -7.2036   -8.3818  H     
76   H        27.7300   -7.4827  -15.8967  H     
77   H        25.1230  -10.4188   -6.7537  H     
78   H        25.2038   -9.4501   -5.2664  H     
79   H        26.6426   -9.6079   -6.2816  H     
@<TRIPOS>BOND
     1    1    2 1
     2    1    6 2
     3    1    7 1
     4    2    3 2
     5    3    4 1
     6    3   33 1
     7    4    5 2
     8    5    6 1
     9    7    8 1
    10    7    9 1
    11    7   32 1
    12    8   15 1
    13    8   16 1
    14    9   10 1
    15   10   11 1
    16   11   12 1
    17   12   13 1
    18   14   15 1
    19   14   18 1
    20   16   17 1
    21   17   18 1
    22   17   19 1
    23   19   20 2
    24   19   21 am
    25   21   22 1
    26   22   23 1
    27   22   25 1
    28   23   24 1
    29   24   34 1
    30   25   26 1
    31   26   27 1
    32   26   28 1
    33   27   31 1
    34   28   29 1
    35   29   30 1
    36   30   31 1
    37    2   35 1
    38    4   36 1
    39    5   37 1
    40    6   38 1
    41    8   39 1
    42    9   40 1
    43    9   41 1
    44   10   42 1
    45   10   43 1
    46   11   44 1
    47   11   45 1
    48   12   46 1
    49   12   47 1
    50   13   48 1
    51   14   49 1
    52   14   50 1
    53   15   51 1
    54   15   52 1
    55   16   53 1
    56   16   54 1
    57   18   55 1
    58   18   56 1
    59   21   57 1
    60   22   58 1
    61   23   59 1
    62   23   60 1
    63   24   61 1
    64   24   62 1
    65   25   63 1
    66   25   64 1
    67   26   65 1
    68   27   66 1
    69   27   67 1
    70   28   68 1
    71   28   69 1
    72   29   70 1
    73   29   71 1
    74   30   72 1
    75   30   73 1
    76   31   74 1
    77   31   75 1
    78   32   76 1
    79   34   77 1
    80   34   78 1
    81   34   79 1
@<TRIPOS>PROPERTY_DATA
  Total_Score	| 14.1974
  Crash		| -1.6708
  Polar		| 7.3834
  FragIndex	| 1
  FragRMSD	| 0.236

