@<TRIPOS>MOLECULE
BindingDB_12236
 66 71 0 0 0
SMALL
NO_CHARGES


@<TRIPOS>ATOM
1    C        16.3071   23.2793   56.5009  C     
2    C        13.9926   24.5995   55.5020  C     
3    N        17.4160   22.6976   57.0462  N     
4    C        18.5792   23.3242   57.3757  C     
5    C        19.6994   25.4328   57.5667  C     
6    N        18.6157   24.6834   57.2794  N     
7    N        20.8291   24.8199   57.9854  N     
8    C        20.8963   23.4598   58.1273  C     
9    C        19.7610   22.6401   57.8482  C     
10   C        19.8720   21.2342   58.0495  C     
11   C        21.1154   20.6854   58.4312  C     
12   C        22.2169   21.5056   58.7325  C     
13   C        22.1044   22.8992   58.5842  C     
14   O        18.8089   20.3964   57.8246  O     
15   O        23.3240   20.9602   59.3105  O     
16   C        24.5505   21.0388   58.5549  C     
17   C        25.6009   20.1809   59.3002  C     
18   C        18.6986   19.1461   58.5481  C     
19   C        16.1464   18.8935   58.4154  C     
20   C        17.0861   19.8314   60.4314  C     
21   C        18.5068   19.3246   60.0790  C     
22   C        17.5158   18.3253   57.9578  C     
23   O        16.0721   18.9822   59.8539  O     
24   C        13.8833   23.6774   56.5647  C     
25   C        15.0306   23.0105   57.0482  C     
26   C        27.7972   18.3562   56.8278  C     
27   C        28.7129   18.4521   58.0661  C     
28   C        27.8443   19.0938   59.1636  C     
29   C        26.4457   18.9505   57.2716  C     
30   N        26.7615   19.8031   58.4440  N     
31   C        15.2505   24.8136   54.9169  C     
32   C        16.3775   24.1570   55.3937  C     
33   C        16.9280   25.3433   53.6586  C     
34   O        15.5318   25.6197   53.8773  O     
35   O        17.4693   24.4737   54.6691  O     
36   H        13.1695   25.0916   55.1495  H     
37   H        17.3307   21.7710   57.3046  H     
38   H        19.6595   26.4493   57.4873  H     
39   H        21.2167   19.6730   58.5194  H     
40   H        22.8934   23.5160   58.8107  H     
41   H        24.4268   20.6482   57.5355  H     
42   H        24.8983   22.0775   58.5179  H     
43   H        25.9580   20.7570   60.1639  H     
44   H        25.1165   19.2751   59.6829  H     
45   H        19.6183   18.5751   58.4050  H     
46   H        15.9726   19.8784   57.9752  H     
47   H        15.3414   18.2325   58.0744  H     
48   H        16.9638   19.8176   61.5179  H     
49   H        16.9480   20.8631   60.0967  H     
50   H        18.6621   18.3630   60.5760  H     
51   H        19.2509   20.0236   60.4683  H     
52   H        17.5527   18.3260   56.8634  H     
53   H        17.5783   17.2846   58.2901  H     
54   H        12.9693   23.4930   56.9802  H     
55   H        14.9319   22.3548   57.8281  H     
56   H        28.2170   18.9434   56.0058  H     
57   H        27.6803   17.3204   56.4961  H     
58   H        29.0674   17.4668   58.3814  H     
59   H        29.5791   19.0845   57.8453  H     
60   H        27.4413   18.3155   59.8215  H     
61   H        28.4288   19.7946   59.7621  H     
62   H        25.9970   19.5500   56.4763  H     
63   H        25.7570   18.1399   57.5359  H     
64   H        27.1636   20.6675   58.0753  H     
65   H        17.0503   24.8740   52.6800  H     
66   H        17.4882   26.2803   53.6588  H     
@<TRIPOS>BOND
     1    1    3 1
     2    1   25 2
     3    1   32 1
     4    2   24 2
     5    2   31 1
     6    3    4 1
     7    4    6 2
     8    4    9 1
     9    5    6 1
    10    5    7 2
    11    7    8 1
    12    8    9 1
    13    8   13 2
    14    9   10 2
    15   10   11 1
    16   10   14 1
    17   11   12 2
    18   12   13 1
    19   12   15 1
    20   14   18 1
    21   15   16 1
    22   16   17 1
    23   17   30 1
    24   18   21 1
    25   18   22 1
    26   19   22 1
    27   19   23 1
    28   20   21 1
    29   20   23 1
    30   24   25 1
    31   26   27 1
    32   26   29 1
    33   27   28 1
    34   28   30 1
    35   29   30 1
    36   31   32 2
    37   31   34 1
    38   32   35 1
    39   33   34 1
    40   33   35 1
    41    2   36 1
    42    3   37 1
    43    5   38 1
    44   11   39 1
    45   13   40 1
    46   16   41 1
    47   16   42 1
    48   17   43 1
    49   17   44 1
    50   18   45 1
    51   19   46 1
    52   19   47 1
    53   20   48 1
    54   20   49 1
    55   21   50 1
    56   21   51 1
    57   22   52 1
    58   22   53 1
    59   24   54 1
    60   25   55 1
    61   26   56 1
    62   26   57 1
    63   27   58 1
    64   27   59 1
    65   28   60 1
    66   28   61 1
    67   29   62 1
    68   29   63 1
    69   30   64 1
    70   33   65 1
    71   33   66 1
@<TRIPOS>PROPERTY_DATA
  Total_Score	| 10.8034
  Crash		| -1.6618
  Polar		| 2.5288
  FragIndex	| 1
  FragRMSD	| 0.232

