@<TRIPOS>MOLECULE
BindingDB_12252
 64 68 0 0 0
SMALL
NO_CHARGES


@<TRIPOS>ATOM
1    C        16.1005   23.3628   56.7198  C     
2    C        13.8012   24.6233   55.6108  C     
3    N        17.2163   22.7557   57.2348  N     
4    C        18.4131   23.3530   57.4857  C     
5    C        19.6078   25.4210   57.5704  C     
6    N        18.4908   24.7049   57.3238  N     
7    N        20.7164   24.7913   58.0112  N     
8    C        20.7392   23.4364   58.1870  C     
9    C        19.5832   22.6370   57.9366  C     
10   C        19.7017   21.2229   58.0675  C     
11   C        20.9745   20.6561   58.3347  C     
12   C        22.0968   21.4548   58.5935  C     
13   C        21.9528   22.8558   58.5620  C     
14   C        13.7004   23.8964   56.8120  C     
15   C        14.8407   23.2629   57.3652  C     
16   O        18.6359   20.3964   57.7936  O     
17   C        18.4587   19.1588   58.5216  C     
18   C        17.2732   19.2704   59.5076  C     
19   C        18.1831   18.0474   57.4847  C     
20   O        23.2718   20.8447   58.9621  O     
21   C        24.4826   21.2947   58.3127  C     
22   C        25.6777   21.0727   59.2667  C     
23   C        26.2679   19.6377   59.2984  C     
24   C        26.5108   18.7360   56.9265  C     
25   C        27.6642   18.1274   56.0976  C     
26   C        28.9132   18.2347   56.9922  C     
27   C        28.3573   18.5646   58.3837  C     
28   N        27.1447   19.3692   58.1099  N     
29   C        16.1699   24.0994   55.5110  C     
30   C        15.0520   24.7191   54.9762  C     
31   C        16.7546   25.2207   53.7481  C     
32   Cl       14.6666   22.4514   58.8427  Cl    
33   O        17.2488   24.2834   54.7235  O     
34   O        15.3222   25.3567   53.8235  O     
35   H        12.9800   25.0720   55.2002  H     
36   H        17.1114   21.8346   57.5174  H     
37   H        19.6033   26.4324   57.4315  H     
38   H        21.0813   19.6370   58.3421  H     
39   H        22.7547   23.4501   58.7734  H     
40   H        12.7931   23.8357   57.2837  H     
41   H        19.3354   18.8690   59.1071  H     
42   H        17.4747   20.0412   60.2528  H     
43   H        17.1261   18.3170   60.0284  H     
44   H        16.3504   19.5238   58.9778  H     
45   H        17.2633   18.2566   56.9302  H     
46   H        18.0828   17.0763   57.9774  H     
47   H        19.0071   17.9877   56.7696  H     
48   H        24.6139   20.7731   57.3692  H     
49   H        24.4564   22.3633   58.0885  H     
50   H        26.4756   21.7734   59.0202  H     
51   H        25.3428   21.3300   60.2799  H     
52   H        26.8655   19.5698   60.2176  H     
53   H        25.4683   18.8989   59.3925  H     
54   H        25.9906   19.4886   56.3353  H     
55   H        25.8038   17.9513   57.2109  H     
56   H        27.4515   17.0804   55.8540  H     
57   H        27.8136   18.6804   55.1663  H     
58   H        29.4927   17.3076   57.0029  H     
59   H        29.5513   19.0527   56.6489  H     
60   H        28.1134   17.6449   58.9279  H     
61   H        29.0830   19.1441   58.9637  H     
62   H        27.4766   20.2801   57.7758  H     
63   H        17.2193   26.1953   53.9189  H     
64   H        17.0339   24.8818   52.7491  H     
@<TRIPOS>BOND
     1    1    3 1
     2    1   15 2
     3    1   29 1
     4    2   14 2
     5    2   30 1
     6    3    4 1
     7    4    6 2
     8    4    9 1
     9    5    6 1
    10    5    7 2
    11    7    8 1
    12    8    9 1
    13    8   13 2
    14    9   10 2
    15   10   11 1
    16   10   16 1
    17   11   12 2
    18   12   13 1
    19   12   20 1
    20   14   15 1
    21   15   32 1
    22   16   17 1
    23   17   18 1
    24   17   19 1
    25   20   21 1
    26   21   22 1
    27   22   23 1
    28   23   28 1
    29   24   25 1
    30   24   28 1
    31   25   26 1
    32   26   27 1
    33   27   28 1
    34   29   30 2
    35   29   33 1
    36   30   34 1
    37   31   33 1
    38   31   34 1
    39    2   35 1
    40    3   36 1
    41    5   37 1
    42   11   38 1
    43   13   39 1
    44   14   40 1
    45   17   41 1
    46   18   42 1
    47   18   43 1
    48   18   44 1
    49   19   45 1
    50   19   46 1
    51   19   47 1
    52   21   48 1
    53   21   49 1
    54   22   50 1
    55   22   51 1
    56   23   52 1
    57   23   53 1
    58   24   54 1
    59   24   55 1
    60   25   56 1
    61   25   57 1
    62   26   58 1
    63   26   59 1
    64   27   60 1
    65   27   61 1
    66   28   62 1
    67   31   63 1
    68   31   64 1
@<TRIPOS>PROPERTY_DATA
  Total_Score	| 12.3084
  Crash		| -1.6239
  Polar		| 3.3209
  FragIndex	| 1
  FragRMSD	| 0.324

