@<TRIPOS>MOLECULE
BindingDB_12253
 62 66 0 0 0
SMALL
NO_CHARGES


@<TRIPOS>ATOM
1    C        16.2535   23.2806   56.6251  C     
2    C        13.9541   24.6196   55.5885  C     
3    N        17.3775   22.6720   57.1422  N     
4    C        18.5603   23.2810   57.4438  C     
5    C        19.7040   25.3817   57.6004  C     
6    N        18.6137   24.6381   57.3189  N     
7    N        20.8181   24.7691   58.0508  N     
8    C        20.8676   23.4183   58.2190  C     
9    C        19.7385   22.5909   57.9288  C     
10   C        19.8766   21.1827   58.1074  C     
11   C        21.1302   20.6536   58.5024  C     
12   C        22.2255   21.4836   58.7920  C     
13   C        22.0827   22.8727   58.6712  C     
14   C        13.8374   23.7727   56.7059  C     
15   C        14.9740   23.1032   57.2208  C     
16   O        18.8543   20.3143   57.7804  O     
17   C        18.7194   19.0680   58.5159  C     
18   C        17.7537   19.2269   59.7138  C     
19   C        18.2109   17.9947   57.5261  C     
20   O        23.3465   20.9084   59.3233  O     
21   C        24.5388   20.9417   58.4969  C     
22   C        25.5683   19.9809   59.1567  C     
23   C        27.5050   17.4395   59.2992  C     
24   C        26.1851   17.5056   57.2509  C     
25   C        26.5751   18.9965   57.0458  C     
26   C        27.8582   18.9426   59.1331  C     
27   N        26.8081   19.6821   58.3547  N     
28   O        27.1999   16.8262   58.0289  O     
29   C        16.3278   24.1188   55.4840  C     
30   C        15.2122   24.7815   54.9903  C     
31   C        16.8953   25.2611   53.7201  C     
32   Cl       14.7603   22.1665   58.6153  Cl    
33   O        17.4223   24.4038   54.7486  O     
34   O        15.5035   25.5598   53.9311  O     
35   H        13.1391   25.1126   55.2198  H     
36   H        17.2846   21.7423   57.3961  H     
37   H        19.6780   26.3935   57.4837  H     
38   H        21.2619   19.6470   58.5824  H     
39   H        22.8734   23.4833   58.8898  H     
40   H        12.9193   23.6615   57.1495  H     
41   H        19.6751   18.7092   58.9109  H     
42   H        18.0565   20.0681   60.3373  H     
43   H        17.7567   18.3246   60.3291  H     
44   H        16.7391   19.3987   59.3553  H     
45   H        17.2360   18.2817   57.1266  H     
46   H        18.1235   17.0232   58.0185  H     
47   H        18.9142   17.8951   56.6972  H     
48   H        24.3203   20.6025   57.4710  H     
49   H        24.9625   21.9666   58.4791  H     
50   H        25.8715   20.4430   60.1044  H     
51   H        25.0459   19.0509   59.4034  H     
52   H        28.3601   16.9157   59.7291  H     
53   H        26.6642   17.3195   59.9848  H     
54   H        25.2096   17.4306   57.7413  H     
55   H        26.1081   17.0211   56.2760  H     
56   H        27.5070   19.0371   56.4603  H     
57   H        25.8215   19.5444   56.4727  H     
58   H        28.0131   19.4034   60.1123  H     
59   H        28.8067   19.0199   58.5946  H     
60   H        27.2027   20.5954   58.1070  H     
61   H        17.4694   26.1898   53.6953  H     
62   H        17.0091   24.7652   52.7547  H     
@<TRIPOS>BOND
     1    1    3 1
     2    1   15 2
     3    1   29 1
     4    2   14 2
     5    2   30 1
     6    3    4 1
     7    4    6 2
     8    4    9 1
     9    5    6 1
    10    5    7 2
    11    7    8 1
    12    8    9 1
    13    8   13 2
    14    9   10 2
    15   10   11 1
    16   10   16 1
    17   11   12 2
    18   12   13 1
    19   12   20 1
    20   14   15 1
    21   15   32 1
    22   16   17 1
    23   17   18 1
    24   17   19 1
    25   20   21 1
    26   21   22 1
    27   22   27 1
    28   23   26 1
    29   23   28 1
    30   24   25 1
    31   24   28 1
    32   25   27 1
    33   26   27 1
    34   29   30 2
    35   29   33 1
    36   30   34 1
    37   31   33 1
    38   31   34 1
    39    2   35 1
    40    3   36 1
    41    5   37 1
    42   11   38 1
    43   13   39 1
    44   14   40 1
    45   17   41 1
    46   18   42 1
    47   18   43 1
    48   18   44 1
    49   19   45 1
    50   19   46 1
    51   19   47 1
    52   21   48 1
    53   21   49 1
    54   22   50 1
    55   22   51 1
    56   23   52 1
    57   23   53 1
    58   24   54 1
    59   24   55 1
    60   25   56 1
    61   25   57 1
    62   26   58 1
    63   26   59 1
    64   27   60 1
    65   31   61 1
    66   31   62 1
@<TRIPOS>PROPERTY_DATA
  Total_Score	| 10.8225
  Crash		| -1.6557
  Polar		| 2.8583
  FragIndex	| 1
  FragRMSD	| 0.409

