@<TRIPOS>MOLECULE
BindingDB_12246
 52 56 0 0 0
SMALL
NO_CHARGES


@<TRIPOS>ATOM
1    C        16.2094   23.3929   56.8705  C     
2    C        13.8992   24.5955   55.7065  C     
3    N        17.3228   22.7948   57.4124  N     
4    C        18.5353   23.3739   57.6291  C     
5    C        19.7619   25.4287   57.6387  C     
6    N        18.6293   24.7217   57.4526  N     
7    N        20.8807   24.7880   58.0351  N     
8    C        20.8916   23.4421   58.2393  C     
9    C        19.7144   22.6528   58.0515  C     
10   C        19.8175   21.2377   58.2193  C     
11   C        21.0897   20.6709   58.4910  C     
12   C        22.2310   21.4623   58.7068  C     
13   C        22.1137   22.8563   58.6051  C     
14   C        13.7761   23.7727   56.8421  C     
15   C        14.9166   23.1614   57.4140  C     
16   O        18.7311   20.4123   57.9768  O     
17   C        18.5125   19.1948   58.7389  C     
18   C        17.4317   16.8761   58.6186  C     
19   C        17.4960   18.0735   60.8010  C     
20   C        17.7794   19.4248   60.0922  C     
21   C        17.7159   18.1941   57.8533  C     
22   N        16.7592   17.1414   59.9137  N     
23   O        23.4091   20.8691   59.0832  O     
24   C        24.5423   21.1332   58.2373  C     
25   C        15.1727   24.8053   55.1573  C     
26   C        16.2969   24.2170   55.7205  C     
27   C        16.8588   25.2123   53.8725  C     
28   Cl       14.6995   22.1816   58.7823  Cl    
29   O        17.4037   24.5262   55.0123  O     
30   O        15.4723   25.5422   54.0712  O     
31   H        13.0753   25.0224   55.2774  H     
32   H        17.2070   21.8876   57.7270  H     
33   H        19.7683   26.4386   57.4889  H     
34   H        21.2141   19.6613   58.5165  H     
35   H        22.9358   23.4418   58.7683  H     
36   H        12.8444   23.6206   57.2440  H     
37   H        19.4660   18.7142   58.9569  H     
38   H        16.7822   16.2320   58.0222  H     
39   H        18.3682   16.3391   58.7954  H     
40   H        18.4358   17.6111   61.1132  H     
41   H        16.8931   18.2437   61.6952  H     
42   H        18.3942   20.0456   60.7488  H     
43   H        16.8340   19.9428   59.9119  H     
44   H        16.7677   18.6482   57.5498  H     
45   H        18.2897   17.9599   56.9507  H     
46   H        15.8340   17.5360   59.7240  H     
47   H        16.6310   16.2492   60.4045  H     
48   H        24.3512   20.8222   57.2068  H     
49   H        25.3936   20.5626   58.6156  H     
50   H        24.8161   22.1902   58.2558  H     
51   H        17.4304   26.1239   53.6878  H     
52   H        16.9525   24.5671   52.9960  H     
@<TRIPOS>BOND
     1    1    3 1
     2    1   15 2
     3    1   26 1
     4    2   14 2
     5    2   25 1
     6    3    4 1
     7    4    6 2
     8    4    9 1
     9    5    6 1
    10    5    7 2
    11    7    8 1
    12    8    9 1
    13    8   13 2
    14    9   10 2
    15   10   11 1
    16   10   16 1
    17   11   12 2
    18   12   13 1
    19   12   23 1
    20   14   15 1
    21   15   28 1
    22   16   17 1
    23   17   20 1
    24   17   21 1
    25   18   21 1
    26   18   22 1
    27   19   20 1
    28   19   22 1
    29   23   24 1
    30   25   26 2
    31   25   30 1
    32   26   29 1
    33   27   29 1
    34   27   30 1
    35    2   31 1
    36    3   32 1
    37    5   33 1
    38   11   34 1
    39   13   35 1
    40   14   36 1
    41   17   37 1
    42   18   38 1
    43   18   39 1
    44   19   40 1
    45   19   41 1
    46   20   42 1
    47   20   43 1
    48   21   44 1
    49   21   45 1
    50   22   46 1
    51   22   47 1
    52   24   48 1
    53   24   49 1
    54   24   50 1
    55   27   51 1
    56   27   52 1
@<TRIPOS>PROPERTY_DATA
  Total_Score	| 9.5035
  Crash		| -0.9693
  Polar		| 1.7930
  FragIndex	| 1
  FragRMSD	| 0.252

