@<TRIPOS>MOLECULE
BindingDB_12247
 75 80 0 0 0
SMALL
NO_CHARGES


@<TRIPOS>ATOM
1    C        16.1459   23.3154   56.6566  C     
2    C        13.8482   24.6488   55.6277  C     
3    N        17.2750   22.7116   57.1430  N     
4    C        18.4374   23.3434   57.4629  C     
5    C        19.5596   25.4526   57.6244  C     
6    N        18.4683   24.7035   57.3661  N     
7    N        20.7038   24.8451   57.9955  N     
8    C        20.7706   23.4925   58.1261  C     
9    C        19.6323   22.6622   57.8938  C     
10   C        19.7880   21.2582   58.0821  C     
11   C        21.0614   20.7217   58.3790  C     
12   C        22.1752   21.5479   58.5894  C     
13   C        22.0078   22.9420   58.4982  C     
14   O        18.7744   20.3459   57.9341  O     
15   O        23.3494   20.9819   59.0119  O     
16   C        17.9564   20.0701   59.1005  C     
17   C        19.2321   18.1205   60.2077  C     
18   C        17.5400   17.6011   58.5590  C     
19   C        16.9050   19.0126   58.6667  C     
20   C        18.7090   19.5709   60.3756  C     
21   O        18.1849   17.2187   59.7909  O     
22   C        13.7551   23.8824   56.8067  C     
23   C        14.8941   23.2119   57.3175  C     
24   C        24.5353   21.3629   58.2756  C     
25   C        25.7788   21.1224   59.1708  C     
26   C        26.4148   19.7202   58.9608  C     
27   C        28.3974   18.4125   59.6953  C     
28   C        29.2702   17.9318   60.8812  C     
29   C        27.3656   18.2462   62.4245  C     
30   C        26.4638   18.6510   61.2297  C     
31   N        27.2615   19.2903   60.1319  N     
32   N        28.4396   17.3157   61.9590  N     
33   C        29.2694   16.7828   63.0744  C     
34   C        16.1993   24.0678   55.4585  C     
35   C        15.0833   24.7275   54.9648  C     
36   C        16.7801   25.2295   53.7236  C     
37   Cl       14.7257   22.3475   58.7663  Cl    
38   O        15.3526   25.3953   53.8265  O     
39   O        17.2673   24.2462   54.6544  O     
40   H        13.0300   25.1373   55.2574  H     
41   H        17.2151   21.7642   57.3201  H     
42   H        19.5151   26.4680   57.5399  H     
43   H        21.1720   19.7084   58.4784  H     
44   H        22.7939   23.5570   58.7036  H     
45   H        17.4232   20.9841   59.3722  H     
46   H        20.0621   18.0964   59.4941  H     
47   H        19.6176   17.7695   61.1697  H     
48   H        16.7579   16.8707   58.3515  H     
49   H        18.2621   17.5622   57.7375  H     
50   H        16.0915   18.9842   59.3989  H     
51   H        16.4724   19.2835   57.6982  H     
52   H        19.5387   20.2369   60.6237  H     
53   H        18.0141   19.5857   61.2229  H     
54   H        12.8534   23.8280   57.2910  H     
55   H        24.6116   20.7835   57.3410  H     
56   H        24.5338   22.4282   58.0146  H     
57   H        26.5414   21.8890   58.9557  H     
58   H        25.4923   21.2452   60.2241  H     
59   H        25.6293   18.9693   58.7657  H     
60   H        27.0331   19.7907   58.0461  H     
61   H        29.0556   18.9648   59.0131  H     
62   H        28.0100   17.5351   59.1637  H     
63   H        29.9784   17.1922   60.4960  H     
64   H        29.8416   18.7792   61.2765  H     
65   H        27.7905   19.1496   62.8780  H     
66   H        26.7229   17.7594   63.1647  H     
67   H        25.9503   17.7597   60.8449  H     
68   H        25.7011   19.3562   61.5811  H     
69   H        27.6696   20.1459   60.5362  H     
70   H        27.9560   16.5163   61.5395  H     
71   H        29.9716   16.0432   62.6879  H     
72   H        28.6373   16.2874   63.8128  H     
73   H        29.8297   17.5827   63.5630  H     
74   H        17.0381   24.9254   52.7079  H     
75   H        17.2718   26.1845   53.9263  H     
@<TRIPOS>BOND
     1    1    3 1
     2    1   23 2
     3    1   34 1
     4    2   22 2
     5    2   35 1
     6    3    4 1
     7    4    6 2
     8    4    9 1
     9    5    6 1
    10    5    7 2
    11    7    8 1
    12    8    9 1
    13    8   13 2
    14    9   10 2
    15   10   11 1
    16   10   14 1
    17   11   12 2
    18   12   13 1
    19   12   15 1
    20   14   16 1
    21   15   24 1
    22   16   19 1
    23   16   20 1
    24   17   20 1
    25   17   21 1
    26   18   19 1
    27   18   21 1
    28   22   23 1
    29   23   37 1
    30   24   25 1
    31   25   26 1
    32   26   31 1
    33   27   28 1
    34   27   31 1
    35   28   32 1
    36   29   30 1
    37   29   32 1
    38   30   31 1
    39   32   33 1
    40   34   35 2
    41   34   39 1
    42   35   38 1
    43   36   38 1
    44   36   39 1
    45    2   40 1
    46    3   41 1
    47    5   42 1
    48   11   43 1
    49   13   44 1
    50   16   45 1
    51   17   46 1
    52   17   47 1
    53   18   48 1
    54   18   49 1
    55   19   50 1
    56   19   51 1
    57   20   52 1
    58   20   53 1
    59   22   54 1
    60   24   55 1
    61   24   56 1
    62   25   57 1
    63   25   58 1
    64   26   59 1
    65   26   60 1
    66   27   61 1
    67   27   62 1
    68   28   63 1
    69   28   64 1
    70   29   65 1
    71   29   66 1
    72   30   67 1
    73   30   68 1
    74   31   69 1
    75   32   70 1
    76   33   71 1
    77   33   72 1
    78   33   73 1
    79   36   74 1
    80   36   75 1
@<TRIPOS>PROPERTY_DATA
  Total_Score	| 12.3539
  Crash		| -1.3487
  Polar		| 3.3362
  FragIndex	| 1
  FragRMSD	| 0.210

