@<TRIPOS>MOLECULE
BindingDB_12255
 72 77 0 0 0
SMALL
NO_CHARGES


@<TRIPOS>ATOM
1    C        16.2077   23.2648   56.7633  C     
2    C        13.8849   24.5396   55.7283  C     
3    N        17.3428   22.6738   57.2545  N     
4    C        18.5415   23.2860   57.4613  C     
5    C        19.6977   25.3834   57.4994  C     
6    N        18.5954   24.6340   57.2856  N     
7    N        20.8210   24.7854   57.9478  N     
8    C        20.8696   23.4352   58.1534  C     
9    C        19.7354   22.6031   57.9100  C     
10   C        19.8858   21.1974   58.0681  C     
11   C        21.1492   20.6693   58.4330  C     
12   C        22.2530   21.4939   58.7056  C     
13   C        22.0992   22.8836   58.5608  C     
14   O        18.8633   20.3396   57.7346  O     
15   O        23.3955   20.8823   59.1828  O     
16   C        18.6208   19.1694   58.5468  C     
17   C        17.3184   16.9850   58.5339  C     
18   C        17.5103   18.1861   60.6162  C     
19   C        17.9521   19.4930   59.9099  C     
20   C        17.7515   18.2112   57.6934  C     
21   O        16.6693   17.3805   59.7614  O     
22   C        13.8092   23.7731   56.9086  C     
23   C        14.9571   23.1207   57.4165  C     
24   C        24.6385   20.9861   58.4553  C     
25   C        25.6583   19.9790   59.0598  C     
26   C        27.6209   17.3393   59.2437  C     
27   C        26.4133   17.4212   57.0840  C     
28   C        26.7367   18.9274   56.9583  C     
29   C        27.9161   18.8663   59.1255  C     
30   N        26.8931   19.6001   58.2840  N     
31   N        27.4640   16.7225   57.8934  N     
32   C        27.2316   15.2484   57.9450  C     
33   C        16.2479   24.0272   55.5753  C     
34   C        15.1198   24.6588   55.0762  C     
35   C        16.8100   25.1381   53.7938  C     
36   Cl       14.7990   22.2224   58.8441  Cl    
37   O        15.3856   25.3136   53.9287  O     
38   O        17.3169   24.2260   54.7800  O     
39   H        13.0538   24.9889   55.3438  H     
40   H        17.2539   21.7602   57.5525  H     
41   H        19.6641   26.3910   57.3625  H     
42   H        21.2759   19.6566   58.5002  H     
43   H        22.8847   23.5090   58.7532  H     
44   H        19.5614   18.6482   58.7559  H     
45   H        16.6062   16.3971   57.9534  H     
46   H        18.1915   16.3517   58.7528  H     
47   H        18.3892   17.6057   60.9232  H     
48   H        16.9461   18.4431   61.5113  H     
49   H        18.6578   20.0230   60.5636  H     
50   H        17.0784   20.1335   59.7427  H     
51   H        16.8615   18.7422   57.3303  H     
52   H        18.3297   17.8624   56.8277  H     
53   H        12.9103   23.6902   57.3898  H     
54   H        24.4891   20.8081   57.3879  H     
55   H        25.0550   21.9903   58.5670  H     
56   H        26.0347   20.4277   59.9898  H     
57   H        25.1070   19.0822   59.3775  H     
58   H        28.4505   16.8626   59.7836  H     
59   H        26.7145   17.1784   59.8350  H     
60   H        25.4308   17.2746   57.5358  H     
61   H        26.3718   17.0073   56.0759  H     
62   H        27.6737   19.0261   56.4023  H     
63   H        25.9698   19.4059   56.3575  H     
64   H        27.9853   19.3005   60.1278  H     
65   H        28.8970   18.9911   58.6604  H     
66   H        27.3401   20.4961   58.0565  H     
67   H        28.3519   16.8594   57.4046  H     
68   H        28.0249   14.7515   58.5086  H     
69   H        27.2340   14.8321   56.9342  H     
70   H        26.2728   15.0171   58.4176  H     
71   H        17.0415   24.7429   52.8033  H     
72   H        17.3008   26.1080   53.9072  H     
@<TRIPOS>BOND
     1    1    3 1
     2    1   23 2
     3    1   33 1
     4    2   22 2
     5    2   34 1
     6    3    4 1
     7    4    6 2
     8    4    9 1
     9    5    6 1
    10    5    7 2
    11    7    8 1
    12    8    9 1
    13    8   13 2
    14    9   10 2
    15   10   11 1
    16   10   14 1
    17   11   12 2
    18   12   13 1
    19   12   15 1
    20   14   16 1
    21   15   24 1
    22   16   19 1
    23   16   20 1
    24   17   20 1
    25   17   21 1
    26   18   19 1
    27   18   21 1
    28   22   23 1
    29   23   36 1
    30   24   25 1
    31   25   30 1
    32   26   29 1
    33   26   31 1
    34   27   28 1
    35   27   31 1
    36   28   30 1
    37   29   30 1
    38   31   32 1
    39   33   34 2
    40   33   38 1
    41   34   37 1
    42   35   37 1
    43   35   38 1
    44    2   39 1
    45    3   40 1
    46    5   41 1
    47   11   42 1
    48   13   43 1
    49   16   44 1
    50   17   45 1
    51   17   46 1
    52   18   47 1
    53   18   48 1
    54   19   49 1
    55   19   50 1
    56   20   51 1
    57   20   52 1
    58   22   53 1
    59   24   54 1
    60   24   55 1
    61   25   56 1
    62   25   57 1
    63   26   58 1
    64   26   59 1
    65   27   60 1
    66   27   61 1
    67   28   62 1
    68   28   63 1
    69   29   64 1
    70   29   65 1
    71   30   66 1
    72   31   67 1
    73   32   68 1
    74   32   69 1
    75   32   70 1
    76   35   71 1
    77   35   72 1
@<TRIPOS>PROPERTY_DATA
  Total_Score	| 11.0699
  Crash		| -1.2907
  Polar		| 2.8401
  FragIndex	| 1
  FragRMSD	| 0.368

