@<TRIPOS>MOLECULE
BindingDB_12264
 75 80 0 0 0
SMALL
NO_CHARGES


@<TRIPOS>ATOM
1    C        16.2420   23.1228   57.1109  C     
2    C        13.7075   24.1686   56.3817  C     
3    N        17.4504   22.5823   57.4808  N     
4    C        18.6312   23.2427   57.6724  C     
5    C        19.7432   25.3628   57.6384  C     
6    N        18.6371   24.5981   57.5239  N     
7    N        20.9301   24.7836   57.9207  N     
8    C        21.0215   23.4379   58.1334  C     
9    C        19.8625   22.5974   58.0594  C     
10   C        19.9976   21.2210   58.4120  C     
11   C        21.2579   20.7484   58.8478  C     
12   C        22.4042   21.5655   58.8530  C     
13   C        22.2743   22.9195   58.4950  C     
14   O        18.8725   20.4444   58.5486  O     
15   O        23.5908   21.0439   59.3127  O     
16   C        18.6972   19.0715   58.1074  C     
17   C        16.7873   18.7983   59.7856  C     
18   C        19.0636   18.1892   60.4196  C     
19   C        19.4442   17.9808   58.9370  C     
20   C        17.1712   18.7864   58.2805  C     
21   O        17.6435   17.9459   60.5848  O     
22   C        24.6581   20.9299   58.3397  C     
23   C        25.2926   19.5124   58.3648  C     
24   C        27.1346   18.8590   61.7007  C     
25   C        28.8290   19.2754   59.9359  C     
26   C        27.7170   19.8167   58.9946  C     
27   C        26.0302   19.4334   60.7693  C     
28   N        26.3909   19.2124   59.3432  N     
29   N        28.4665   19.4602   61.3743  N     
30   C        29.5361   19.0035   62.3015  C     
31   C        13.8408   23.3968   57.5455  C     
32   C        15.1007   22.8787   57.9145  C     
33   C        16.0868   23.8859   55.9196  C     
34   C        14.8215   24.4209   55.5661  C     
35   C        15.7726   25.4329   53.5888  C     
36   C        17.1322   25.2897   54.3071  C     
37   O        17.1425   24.0535   55.0494  O     
38   O        14.6570   25.2830   54.5007  O     
39   Cl       15.1954   22.0046   59.3682  Cl    
40   H        12.7918   24.5493   56.1261  H     
41   H        17.4312   21.6504   57.7256  H     
42   H        19.6859   26.3731   57.4875  H     
43   H        21.3542   19.8137   59.2494  H     
44   H        23.0926   23.5366   58.5302  H     
45   H        18.9724   18.9910   57.0572  H     
46   H        16.8221   19.8247   60.1629  H     
47   H        15.7578   18.4313   59.9028  H     
48   H        19.5924   17.4768   61.0540  H     
49   H        19.3253   19.2001   60.7454  H     
50   H        19.1166   16.9838   58.6268  H     
51   H        20.5209   18.0013   58.7802  H     
52   H        16.5772   19.5227   57.7292  H     
53   H        16.9287   17.8033   57.8590  H     
54   H        24.3127   21.1088   57.3119  H     
55   H        25.4044   21.6870   58.5741  H     
56   H        24.4968   18.7856   58.5314  H     
57   H        25.6706   19.3015   57.3612  H     
58   H        26.8724   19.0871   62.7380  H     
59   H        27.1702   17.7687   61.5931  H     
60   H        28.9972   18.2176   59.7195  H     
61   H        29.7559   19.8189   59.7201  H     
62   H        27.6794   20.9086   59.0611  H     
63   H        27.9886   19.5456   57.9746  H     
64   H        25.0949   18.9122   61.0023  H     
65   H        25.8893   20.4973   60.9799  H     
66   H        26.5410   18.2060   59.2645  H     
67   H        28.3706   20.4623   61.5135  H     
68   H        29.7193   17.9336   62.2027  H     
69   H        29.2621   19.2129   63.3359  H     
70   H        30.4700   19.5356   62.0981  H     
71   H        13.0163   23.2214   58.1273  H     
72   H        15.7080   26.4120   53.1122  H     
73   H        15.6973   24.6779   52.8059  H     
74   H        17.9369   25.2775   53.5746  H     
75   H        17.2831   26.1299   54.9822  H     
@<TRIPOS>BOND
     1    1    3 1
     2    1   32 2
     3    1   33 1
     4    2   31 2
     5    2   34 1
     6    3    4 1
     7    4    6 2
     8    4    9 1
     9    5    6 1
    10    5    7 2
    11    7    8 1
    12    8    9 1
    13    8   13 2
    14    9   10 2
    15   10   11 1
    16   10   14 1
    17   11   12 2
    18   12   13 1
    19   12   15 1
    20   14   16 1
    21   15   22 1
    22   16   19 1
    23   16   20 1
    24   17   20 1
    25   17   21 1
    26   18   19 1
    27   18   21 1
    28   22   23 1
    29   23   28 1
    30   24   27 1
    31   24   29 1
    32   25   26 1
    33   25   29 1
    34   26   28 1
    35   27   28 1
    36   29   30 1
    37   31   32 1
    38   32   39 1
    39   33   34 2
    40   33   37 1
    41   34   38 1
    42   35   36 1
    43   35   38 1
    44   36   37 1
    45    2   40 1
    46    3   41 1
    47    5   42 1
    48   11   43 1
    49   13   44 1
    50   16   45 1
    51   17   46 1
    52   17   47 1
    53   18   48 1
    54   18   49 1
    55   19   50 1
    56   19   51 1
    57   20   52 1
    58   20   53 1
    59   22   54 1
    60   22   55 1
    61   23   56 1
    62   23   57 1
    63   24   58 1
    64   24   59 1
    65   25   60 1
    66   25   61 1
    67   26   62 1
    68   26   63 1
    69   27   64 1
    70   27   65 1
    71   28   66 1
    72   29   67 1
    73   30   68 1
    74   30   69 1
    75   30   70 1
    76   31   71 1
    77   35   72 1
    78   35   73 1
    79   36   74 1
    80   36   75 1
@<TRIPOS>PROPERTY_DATA
  Total_Score	| 11.2297
  Crash		| -2.7209
  Polar		| 2.7418
  FragIndex	| 1
  FragRMSD	| 0.565

