@<TRIPOS>MOLECULE
BindingDB_12245
 48 52 0 0 0
SMALL
NO_CHARGES


@<TRIPOS>ATOM
1    C        16.1462   23.2957   56.6909  C     
2    C        13.8769   24.6562   55.6223  C     
3    N        17.2728   22.6895   57.1994  N     
4    C        18.4662   23.2966   57.4538  C     
5    C        19.6382   25.3821   57.5700  C     
6    N        18.5321   24.6542   57.3027  N     
7    N        20.7420   24.7540   58.0308  N     
8    C        20.7693   23.4109   58.2283  C     
9    C        19.6363   22.5967   57.9266  C     
10   C        19.7726   21.1835   58.0366  C     
11   C        21.0057   20.6436   58.4696  C     
12   C        22.0934   21.4628   58.8008  C     
13   C        21.9812   22.8493   58.6738  C     
14   C        13.7572   23.9126   56.8174  C     
15   C        14.8900   23.2458   57.3524  C     
16   O        18.8232   20.3382   57.5118  O     
17   C        18.1824   19.2613   58.2367  C     
18   C        17.2928   18.3271   60.4519  C     
19   C        17.8856   16.7437   58.5968  C     
20   C        18.7517   17.8460   57.9263  C     
21   C        18.0850   19.4825   59.7746  C     
22   N        17.8050   16.9852   60.0575  N     
23   C        15.1180   24.6914   54.9607  C     
24   C        16.2162   24.0167   55.4750  C     
25   C        16.8358   25.1377   53.7322  C     
26   Cl       14.7040   22.4416   58.8322  Cl    
27   O        17.2863   24.1417   54.6641  O     
28   O        15.4112   25.3386   53.8157  O     
29   H        13.0655   25.1598   55.2361  H     
30   H        17.1802   21.7657   57.4562  H     
31   H        19.6392   26.3961   57.4272  H     
32   H        21.1545   19.6398   58.4642  H     
33   H        22.9816   21.0537   59.0849  H     
34   H        22.7851   23.4471   58.8650  H     
35   H        12.8451   23.8784   57.2950  H     
36   H        17.1573   19.2735   57.8403  H     
37   H        17.3754   18.4185   61.5380  H     
38   H        16.2286   18.3938   60.1930  H     
39   H        16.8865   16.7192   58.1511  H     
40   H        18.3530   15.7641   58.4294  H     
41   H        18.8236   17.6882   56.8471  H     
42   H        19.7521   17.7448   58.3535  H     
43   H        19.0858   19.5552   60.2052  H     
44   H        17.5802   20.4285   59.9684  H     
45   H        18.7495   16.8738   60.4477  H     
46   H        17.1978   16.2724   60.4778  H     
47   H        17.3527   26.0795   53.9392  H     
48   H        17.1082   24.8335   52.7203  H     
@<TRIPOS>BOND
     1    1    3 1
     2    1   15 2
     3    1   24 1
     4    2   14 2
     5    2   23 1
     6    3    4 1
     7    4    6 2
     8    4    9 1
     9    5    6 1
    10    5    7 2
    11    7    8 1
    12    8    9 1
    13    8   13 2
    14    9   10 2
    15   10   11 1
    16   10   16 1
    17   11   12 2
    18   12   13 1
    19   14   15 1
    20   15   26 1
    21   16   17 1
    22   17   20 1
    23   17   21 1
    24   18   21 1
    25   18   22 1
    26   19   20 1
    27   19   22 1
    28   23   24 2
    29   23   28 1
    30   24   27 1
    31   25   27 1
    32   25   28 1
    33    2   29 1
    34    3   30 1
    35    5   31 1
    36   11   32 1
    37   12   33 1
    38   13   34 1
    39   14   35 1
    40   17   36 1
    41   18   37 1
    42   18   38 1
    43   19   39 1
    44   19   40 1
    45   20   41 1
    46   20   42 1
    47   21   43 1
    48   21   44 1
    49   22   45 1
    50   22   46 1
    51   25   47 1
    52   25   48 1
@<TRIPOS>PROPERTY_DATA
  Total_Score	| 8.3958
  Crash		| -1.0445
  Polar		| 1.7680
  FragIndex	| 1
  FragRMSD	| 0.360

