@<TRIPOS>MOLECULE
BindingDB_12241
 63 68 0 0 0
SMALL
NO_CHARGES


@<TRIPOS>ATOM
1    C        16.1264   23.3208   56.6097  C     
2    C        13.8702   24.7299   55.5866  C     
3    N        17.2457   22.7051   57.1027  N     
4    C        18.4048   23.3334   57.4519  C     
5    C        19.4979   25.4575   57.6734  C     
6    N        18.4206   24.6988   57.3905  N     
7    N        20.6530   24.8504   58.0211  N     
8    C        20.7353   23.4923   58.1230  C     
9    C        19.6048   22.6557   57.8803  C     
10   C        19.7598   21.2503   58.0831  C     
11   C        21.0315   20.7223   58.4052  C     
12   C        22.1457   21.5579   58.6019  C     
13   C        21.9761   22.9501   58.4955  C     
14   O        18.7452   20.3432   57.9160  O     
15   O        23.3391   21.0117   59.0084  O     
16   C        17.9021   20.0748   59.0680  C     
17   C        19.1166   18.0714   60.1318  C     
18   C        17.3984   17.6221   58.4964  C     
19   C        16.8174   19.0521   58.6233  C     
20   C        18.6394   19.5327   60.3289  C     
21   O        18.0303   17.2143   59.7254  O     
22   C        13.7510   23.9533   56.7555  C     
23   C        14.8685   23.2429   57.2642  C     
24   C        24.5259   21.4171   58.2868  C     
25   C        25.7864   21.2370   59.1747  C     
26   O        26.6752   20.1653   58.8072  O     
27   C        26.1599   19.0311   58.2574  C     
28   C        26.7779   18.5690   57.0800  C     
29   C        26.3716   17.3462   56.5189  C     
30   C        24.7693   17.0334   58.2491  C     
31   C        25.1554   18.2447   58.8631  C     
32   N        25.3871   16.6196   57.1123  N     
33   C        15.1063   24.7775   54.9286  C     
34   C        16.2024   24.0803   55.4197  C     
35   C        16.8205   25.2286   53.6892  C     
36   Cl       14.6692   22.3593   58.6964  Cl    
37   O        17.2780   24.2294   54.6190  O     
38   O        15.3978   25.4368   53.7909  O     
39   H        13.0678   25.2395   55.2150  H     
40   H        17.1843   21.7539   57.2631  H     
41   H        19.4330   26.4742   57.6264  H     
42   H        21.1418   19.7101   58.5106  H     
43   H        22.7559   23.5737   58.6857  H     
44   H        17.3888   20.9988   59.3551  H     
45   H        19.9208   18.0287   59.3906  H     
46   H        19.5140   17.6930   61.0757  H     
47   H        16.5893   16.9215   58.2825  H     
48   H        18.1111   17.5709   57.6668  H     
49   H        16.0140   19.0363   59.3644  H     
50   H        16.3841   19.3544   57.6686  H     
51   H        19.4868   20.1697   60.5885  H     
52   H        17.9448   19.5588   61.1738  H     
53   H        12.8443   23.9116   57.2362  H     
54   H        24.6143   20.8194   57.3686  H     
55   H        24.4645   22.4759   57.9905  H     
56   H        26.3821   22.1482   59.1085  H     
57   H        25.5045   21.1245   60.2264  H     
58   H        27.5226   19.1108   56.6383  H     
59   H        26.8253   16.9871   55.6765  H     
60   H        24.0459   16.4446   58.6722  H     
61   H        24.7103   18.5373   59.7326  H     
62   H        17.3396   26.1688   53.8951  H     
63   H        17.0741   24.9172   52.6742  H     
@<TRIPOS>BOND
     1    1    3 1
     2    1   23 2
     3    1   34 1
     4    2   22 2
     5    2   33 1
     6    3    4 1
     7    4    6 2
     8    4    9 1
     9    5    6 1
    10    5    7 2
    11    7    8 1
    12    8    9 1
    13    8   13 2
    14    9   10 2
    15   10   11 1
    16   10   14 1
    17   11   12 2
    18   12   13 1
    19   12   15 1
    20   14   16 1
    21   15   24 1
    22   16   19 1
    23   16   20 1
    24   17   20 1
    25   17   21 1
    26   18   19 1
    27   18   21 1
    28   22   23 1
    29   23   36 1
    30   24   25 1
    31   25   26 1
    32   26   27 1
    33   27   28 1
    34   27   31 2
    35   28   29 2
    36   29   32 1
    37   30   31 1
    38   30   32 2
    39   33   34 2
    40   33   38 1
    41   34   37 1
    42   35   37 1
    43   35   38 1
    44    2   39 1
    45    3   40 1
    46    5   41 1
    47   11   42 1
    48   13   43 1
    49   16   44 1
    50   17   45 1
    51   17   46 1
    52   18   47 1
    53   18   48 1
    54   19   49 1
    55   19   50 1
    56   20   51 1
    57   20   52 1
    58   22   53 1
    59   24   54 1
    60   24   55 1
    61   25   56 1
    62   25   57 1
    63   28   58 1
    64   29   59 1
    65   30   60 1
    66   31   61 1
    67   35   62 1
    68   35   63 1
@<TRIPOS>PROPERTY_DATA
  Total_Score	| 11.4268
  Crash		| -1.2799
  Polar		| 1.7113
  FragIndex	| 1
  FragRMSD	| 0.622

