@<TRIPOS>MOLECULE
BindingDB_12228
 55 59 0 0 0
SMALL
NO_CHARGES


@<TRIPOS>ATOM
1    C        16.1592   23.3048   56.8802  C     
2    C        13.8449   24.5499   55.7431  C     
3    N        17.2846   22.7043   57.4169  N     
4    C        18.5113   23.2840   57.5854  C     
5    C        19.7214   25.3470   57.4664  C     
6    N        18.5960   24.6192   57.3386  N     
7    N        20.8549   24.7359   57.8644  N     
8    C        20.8899   23.3992   58.1314  C     
9    C        19.7114   22.5952   58.0280  C     
10   C        19.8367   21.2015   58.3057  C     
11   C        21.1184   20.6609   58.5813  C     
12   C        22.2690   21.4561   58.6860  C     
13   C        22.1398   22.8422   58.4770  C     
14   O        18.7587   20.3395   58.2506  O     
15   C        18.4588   19.5293   59.4245  C     
16   C        18.0120   17.2864   58.2132  C     
17   C        16.1036   18.8034   58.6409  C     
18   C        16.9323   19.5745   59.7035  C     
19   C        18.8631   18.0319   59.2741  C     
20   N        16.5522   17.3829   58.5212  N     
21   C        15.7024   16.5944   57.5824  C     
22   O        23.4418   20.8251   59.0398  O     
23   C        24.5921   21.0473   58.2093  C     
24   C        13.7548   23.8623   56.9677  C     
25   C        14.8988   23.2533   57.5387  C     
26   C        15.0874   24.6116   55.1001  C     
27   C        16.2071   23.9891   55.6374  C     
28   C        16.7720   25.0823   53.8499  C     
29   Cl       14.7073   22.5536   59.0691  Cl    
30   O        17.2627   24.1285   54.8112  O     
31   O        15.3440   25.2248   53.9303  O     
32   H        13.0215   24.9931   55.3296  H     
33   H        17.1711   21.8091   57.7665  H     
34   H        19.7099   26.3447   57.2642  H     
35   H        21.2264   19.6556   58.7125  H     
36   H        22.9650   23.4419   58.5472  H     
37   H        18.9511   19.9341   60.3188  H     
38   H        18.2273   17.7013   57.2234  H     
39   H        18.3192   16.2394   58.2172  H     
40   H        15.0531   18.8348   58.9464  H     
41   H        16.1893   19.3119   57.6758  H     
42   H        16.7339   19.1353   60.6875  H     
43   H        16.6180   20.6147   59.7445  H     
44   H        19.9137   17.9257   59.0117  H     
45   H        18.7247   17.5379   60.2399  H     
46   H        16.4225   16.9600   59.4441  H     
47   H        14.6574   16.6224   57.9033  H     
48   H        16.0108   15.5469   57.5750  H     
49   H        15.7616   16.9833   56.5614  H     
50   H        24.3716   20.8820   57.1526  H     
51   H        25.3801   20.3467   58.5027  H     
52   H        24.9684   22.0585   58.3560  H     
53   H        12.8492   23.8229   57.4437  H     
54   H        17.2415   26.0525   54.0360  H     
55   H        17.0397   24.7579   52.8434  H     
@<TRIPOS>BOND
     1    1    3 1
     2    1   25 2
     3    1   27 1
     4    2   24 2
     5    2   26 1
     6    3    4 1
     7    4    6 2
     8    4    9 1
     9    5    6 1
    10    5    7 2
    11    7    8 1
    12    8    9 1
    13    8   13 2
    14    9   10 2
    15   10   11 1
    16   10   14 1
    17   11   12 2
    18   12   13 1
    19   12   22 1
    20   14   15 1
    21   15   18 1
    22   15   19 1
    23   16   19 1
    24   16   20 1
    25   17   18 1
    26   17   20 1
    27   20   21 1
    28   22   23 1
    29   24   25 1
    30   25   29 1
    31   26   27 2
    32   26   31 1
    33   27   30 1
    34   28   30 1
    35   28   31 1
    36    2   32 1
    37    3   33 1
    38    5   34 1
    39   11   35 1
    40   13   36 1
    41   15   37 1
    42   16   38 1
    43   16   39 1
    44   17   40 1
    45   17   41 1
    46   18   42 1
    47   18   43 1
    48   19   44 1
    49   19   45 1
    50   20   46 1
    51   21   47 1
    52   21   48 1
    53   21   49 1
    54   23   50 1
    55   23   51 1
    56   23   52 1
    57   24   53 1
    58   28   54 1
    59   28   55 1
@<TRIPOS>PROPERTY_DATA
  Total_Score	| 9.7641
  Crash		| -0.8053
  Polar		| 1.8081
  FragIndex	| 1
  FragRMSD	| 0.701

