@<TRIPOS>MOLECULE
BindingDB_12251
 64 68 0 0 0
SMALL
NO_CHARGES


@<TRIPOS>ATOM
1    C        16.2156   23.2626   56.8790  C     
2    C        13.9058   24.5730   55.8053  C     
3    N        17.3568   22.6846   57.3920  N     
4    C        18.5815   23.2770   57.5444  C     
5    C        19.7783   25.3597   57.4645  C     
6    N        18.6491   24.6239   57.3396  N     
7    N        20.9258   24.7447   57.8084  N     
8    C        20.9695   23.3970   58.0299  C     
9    C        19.7907   22.5908   57.9294  C     
10   C        19.9263   21.1940   58.1842  C     
11   C        21.2068   20.6525   58.4331  C     
12   C        22.3539   21.4534   58.5575  C     
13   C        22.2145   22.8442   58.3695  C     
14   C        13.8184   23.8565   57.0209  C     
15   C        14.9563   23.1905   57.5501  C     
16   O        18.8415   20.3486   58.1752  O     
17   C        18.5680   19.6063   59.4012  C     
18   C        18.0779   17.3673   58.2199  C     
19   C        16.2057   18.9523   58.6611  C     
20   C        17.0538   19.6991   59.7274  C     
21   C        18.9821   18.1127   59.2397  C     
22   N        16.6194   17.5222   58.5300  N     
23   C        15.7653   16.7658   57.5676  C     
24   O        23.4919   20.8164   58.9819  O     
25   C        24.7432   21.0574   58.3044  C     
26   C        25.8741   20.1538   58.8805  C     
27   C        25.8148   20.0282   60.4284  C     
28   C        25.8973   18.7517   58.2133  C     
29   C        16.2567   23.9609   55.6402  C     
30   C        15.1346   24.6009   55.1260  C     
31   C        16.8131   25.0587   53.8573  C     
32   Cl       14.7794   22.3674   59.0303  Cl    
33   O        17.3119   24.0908   54.8017  O     
34   O        15.3821   25.1989   53.9480  O     
35   H        13.0852   25.0430   55.4216  H     
36   H        17.2699   21.7755   57.7191  H     
37   H        19.7558   26.3745   57.3130  H     
38   H        21.3183   19.6461   58.5720  H     
39   H        23.0254   23.4586   58.4880  H     
40   H        12.9162   23.8217   57.5110  H     
41   H        19.0974   20.0300   60.2707  H     
42   H        18.2941   17.7465   57.2131  H     
43   H        18.3404   16.3037   58.2505  H     
44   H        15.1646   18.9994   58.9886  H     
45   H        16.2817   19.4684   57.6979  H     
46   H        16.8664   19.2308   60.7089  H     
47   H        16.7572   20.7540   59.7808  H     
48   H        20.0141   18.0404   58.8977  H     
49   H        18.9182   17.6083   60.2125  H     
50   H        16.4751   17.0964   59.4482  H     
51   H        14.7113   16.8370   57.8641  H     
52   H        16.0403   15.7058   57.5648  H     
53   H        15.8733   17.1606   56.5473  H     
54   H        24.6365   20.8707   57.2292  H     
55   H        25.0274   22.1059   58.4367  H     
56   H        26.8272   20.6324   58.6355  H     
57   H        25.7768   21.0205   60.8802  H     
58   H        26.7007   19.5110   60.8027  H     
59   H        24.9302   19.4710   60.7439  H     
60   H        24.9555   18.2273   58.3796  H     
61   H        26.7108   18.1485   58.6214  H     
62   H        26.0613   18.8537   57.1381  H     
63   H        17.2840   26.0270   54.0528  H     
64   H        17.0811   24.7516   52.8464  H     
@<TRIPOS>BOND
     1    1    3 1
     2    1   15 2
     3    1   29 1
     4    2   14 2
     5    2   30 1
     6    3    4 1
     7    4    6 2
     8    4    9 1
     9    5    6 1
    10    5    7 2
    11    7    8 1
    12    8    9 1
    13    8   13 2
    14    9   10 2
    15   10   11 1
    16   10   16 1
    17   11   12 2
    18   12   13 1
    19   12   24 1
    20   14   15 1
    21   15   32 1
    22   16   17 1
    23   17   20 1
    24   17   21 1
    25   18   21 1
    26   18   22 1
    27   19   20 1
    28   19   22 1
    29   22   23 1
    30   24   25 1
    31   25   26 1
    32   26   27 1
    33   26   28 1
    34   29   30 2
    35   29   33 1
    36   30   34 1
    37   31   33 1
    38   31   34 1
    39    2   35 1
    40    3   36 1
    41    5   37 1
    42   11   38 1
    43   13   39 1
    44   14   40 1
    45   17   41 1
    46   18   42 1
    47   18   43 1
    48   19   44 1
    49   19   45 1
    50   20   46 1
    51   20   47 1
    52   21   48 1
    53   21   49 1
    54   22   50 1
    55   23   51 1
    56   23   52 1
    57   23   53 1
    58   25   54 1
    59   25   55 1
    60   26   56 1
    61   27   57 1
    62   27   58 1
    63   27   59 1
    64   28   60 1
    65   28   61 1
    66   28   62 1
    67   31   63 1
    68   31   64 1
@<TRIPOS>PROPERTY_DATA
  Total_Score	| 10.7372
  Crash		| -1.4267
  Polar		| 1.7209
  FragIndex	| 1
  FragRMSD	| 0.681

