@<TRIPOS>MOLECULE
BindingDB_12240
 69 74 0 0 0
SMALL
NO_CHARGES


@<TRIPOS>ATOM
1    C        16.2150   23.2800   56.7063  C     
2    C        13.8591   24.5407   55.7142  C     
3    N        17.3567   22.6588   57.1664  N     
4    C        18.5635   23.2377   57.4095  C     
5    C        19.8052   25.2842   57.4823  C     
6    N        18.6748   24.5825   57.2419  N     
7    N        20.9038   24.6345   57.9252  N     
8    C        20.9002   23.2813   58.1235  C     
9    C        19.7195   22.5051   57.8952  C     
10   C        19.7934   21.0974   58.1170  C     
11   C        21.0212   20.5210   58.5065  C     
12   C        22.1683   21.2930   58.7284  C     
13   C        22.0889   22.6861   58.5622  C     
14   O        18.7667   20.2230   57.9068  O     
15   O        23.2580   20.6416   59.2467  O     
16   C        17.8429   19.9443   59.0003  C     
17   C        19.0174   17.9600   60.1504  C     
18   C        17.4818   17.4958   58.3499  C     
19   C        16.8253   18.8850   58.4692  C     
20   C        18.4457   19.4053   60.3293  C     
21   O        18.0069   17.0688   59.6296  O     
22   C        13.8189   23.8134   56.9164  C     
23   C        14.9855   23.1847   57.4152  C     
24   C        24.4647   20.5738   58.4606  C     
25   C        25.1387   19.1887   58.6717  C     
26   C        26.5385   19.0936   57.9877  C     
27   C        27.6348   19.8575   58.7832  C     
28   C        26.3666   19.5346   60.9125  C     
29   C        25.2728   18.7372   60.1678  C     
30   N        27.7031   19.4898   60.2393  N     
31   C        28.4822   18.2544   60.5172  C     
32   C        16.2184   24.0029   55.4898  C     
33   C        15.0699   24.6227   55.0144  C     
34   C        16.7160   25.1463   53.7234  C     
35   O        17.2482   24.1643   54.6339  O     
36   O        15.2843   25.2566   53.8457  O     
37   Cl       14.8683   22.3841   58.9047  Cl    
38   H        13.0224   24.9985   55.3519  H     
39   H        17.2511   21.7370   57.4205  H     
40   H        19.8244   26.2885   57.3444  H     
41   H        21.0923   19.5030   58.6039  H     
42   H        22.9313   23.2646   58.7413  H     
43   H        17.2975   20.8609   59.2334  H     
44   H        19.8850   17.9655   59.4852  H     
45   H        19.3434   17.5835   61.1278  H     
46   H        16.7336   16.7552   58.0357  H     
47   H        18.2727   17.5046   57.5920  H     
48   H        15.9839   18.8157   59.1690  H     
49   H        16.4276   19.1939   57.5058  H     
50   H        19.2191   20.0814   60.7286  H     
51   H        17.6402   19.3492   61.0871  H     
52   H        12.9342   23.7573   57.4294  H     
53   H        24.2582   20.6888   57.3835  H     
54   H        25.1123   21.3885   58.7710  H     
55   H        24.4953   18.4477   58.1951  H     
56   H        26.8282   18.0418   57.9119  H     
57   H        26.4800   19.4858   56.9724  H     
58   H        28.6025   19.6904   58.3026  H     
59   H        27.4420   20.9237   58.7270  H     
60   H        26.0597   20.5786   60.9847  H     
61   H        26.4435   19.1644   61.9412  H     
62   H        24.3230   18.8461   60.6854  H     
63   H        25.5333   17.6732   60.1940  H     
64   H        28.2228   20.2601   60.6643  H     
65   H        28.0107   17.3691   60.0819  H     
66   H        28.5871   18.0944   61.5961  H     
67   H        29.4984   18.3379   60.1069  H     
68   H        17.1699   26.1164   53.9379  H     
69   H        16.9710   24.8674   52.6997  H     
@<TRIPOS>BOND
     1    1    3 1
     2    1   23 2
     3    1   32 1
     4    2   22 2
     5    2   33 1
     6    3    4 1
     7    4    6 2
     8    4    9 1
     9    5    6 1
    10    5    7 2
    11    7    8 1
    12    8    9 1
    13    8   13 2
    14    9   10 2
    15   10   11 1
    16   10   14 1
    17   11   12 2
    18   12   13 1
    19   12   15 1
    20   14   16 1
    21   15   24 1
    22   16   19 1
    23   16   20 1
    24   17   20 1
    25   17   21 1
    26   18   19 1
    27   18   21 1
    28   22   23 1
    29   23   37 1
    30   24   25 1
    31   25   26 1
    32   25   29 1
    33   26   27 1
    34   27   30 1
    35   28   29 1
    36   28   30 1
    37   30   31 1
    38   32   33 2
    39   32   35 1
    40   33   36 1
    41   34   35 1
    42   34   36 1
    43    2   38 1
    44    3   39 1
    45    5   40 1
    46   11   41 1
    47   13   42 1
    48   16   43 1
    49   17   44 1
    50   17   45 1
    51   18   46 1
    52   18   47 1
    53   19   48 1
    54   19   49 1
    55   20   50 1
    56   20   51 1
    57   22   52 1
    58   24   53 1
    59   24   54 1
    60   25   55 1
    61   26   56 1
    62   26   57 1
    63   27   58 1
    64   27   59 1
    65   28   60 1
    66   28   61 1
    67   29   62 1
    68   29   63 1
    69   30   64 1
    70   31   65 1
    71   31   66 1
    72   31   67 1
    73   34   68 1
    74   34   69 1
@<TRIPOS>PROPERTY_DATA
  Total_Score	| 11.0131
  Crash		| -1.7307
  Polar		| 2.6897
  FragIndex	| 1
  FragRMSD	| 0.646

