@<TRIPOS>MOLECULE
BindingDB_12237
 69 74 0 0 0
SMALL
NO_CHARGES


@<TRIPOS>ATOM
1    C        16.1738   23.2728   56.6377  C     
2    C        13.8533   24.5612   55.6067  C     
3    N        17.3019   22.6726   57.1297  N     
4    C        18.4773   23.2970   57.4329  C     
5    C        19.6241   25.3931   57.5560  C     
6    N        18.5292   24.6513   57.2948  N     
7    N        20.7523   24.7786   57.9767  N     
8    C        20.8016   23.4237   58.1453  C     
9    C        19.6558   22.6074   57.9021  C     
10   C        19.7885   21.2016   58.1095  C     
11   C        21.0504   20.6522   58.4314  C     
12   C        22.1779   21.4676   58.6406  C     
13   C        22.0316   22.8651   58.5379  C     
14   O        18.7811   20.2972   57.9041  O     
15   O        23.3627   20.9012   59.0402  O     
16   C        24.5529   21.2970   58.3254  C     
17   C        25.7907   21.0688   59.2329  C     
18   C        17.9262   19.9938   59.0350  C     
19   C        19.1677   18.0034   60.1178  C     
20   C        17.5434   17.5468   58.3768  C     
21   C        16.8952   18.9467   58.5320  C     
22   C        18.6343   19.4467   60.3136  C     
23   O        18.1422   17.1169   59.6176  O     
24   C        13.7702   23.7903   56.7823  C     
25   C        14.9196   23.1415   57.2966  C     
26   C        26.4859   19.6873   59.0639  C     
27   C        28.3951   18.3096   60.0189  C     
28   C        27.7393   16.9403   60.2880  C     
29   C        26.5282   17.2587   61.1879  C     
30   C        26.5817   18.7850   61.4041  C     
31   N        27.3411   19.3329   60.2493  N     
32   C        16.2169   24.0338   55.4480  C     
33   C        15.0898   24.6715   54.9529  C     
34   C        16.7760   25.2176   53.7195  C     
35   Cl       14.7660   22.2763   58.7454  Cl    
36   O        17.2817   24.2356   54.6426  O     
37   O        15.3458   25.3463   53.8164  O     
38   H        13.0267   25.0303   55.2307  H     
39   H        17.2299   21.7365   57.3546  H     
40   H        19.6005   26.4057   57.4401  H     
41   H        21.1502   19.6337   58.5224  H     
42   H        22.8271   23.4702   58.7244  H     
43   H        24.6402   20.7202   57.4001  H     
44   H        24.5153   22.3591   58.0717  H     
45   H        26.5321   21.8438   59.0096  H     
46   H        25.4944   21.2120   60.2732  H     
47   H        17.3741   20.8960   59.3192  H     
48   H        20.0314   18.0092   59.4405  H     
49   H        19.4975   17.6141   61.0853  H     
50   H        16.7711   16.8225   58.1053  H     
51   H        18.2896   17.5524   57.5746  H     
52   H        16.0705   18.8736   59.2448  H     
53   H        16.4800   19.2617   57.5735  H     
54   H        19.4477   20.1043   60.6188  H     
55   H        17.9064   19.4324   61.1307  H     
56   H        12.8686   23.7106   57.2615  H     
57   H        25.7260   18.9152   58.8907  H     
58   H        27.0964   19.7356   58.1597  H     
59   H        29.1996   18.4683   60.7448  H     
60   H        28.8397   18.3536   59.0227  H     
61   H        27.4085   16.4868   59.3483  H     
62   H        28.4353   16.2568   60.7839  H     
63   H        25.5982   16.9801   60.6796  H     
64   H        26.5808   16.7241   62.1408  H     
65   H        25.5786   19.2046   61.4996  H     
66   H        27.1295   19.0075   62.3240  H     
67   H        27.8017   20.1947   60.5480  H     
68   H        17.2409   26.1831   53.9357  H     
69   H        17.0453   24.9331   52.7003  H     
@<TRIPOS>BOND
     1    1    3 1
     2    1   25 2
     3    1   32 1
     4    2   24 2
     5    2   33 1
     6    3    4 1
     7    4    6 2
     8    4    9 1
     9    5    6 1
    10    5    7 2
    11    7    8 1
    12    8    9 1
    13    8   13 2
    14    9   10 2
    15   10   11 1
    16   10   14 1
    17   11   12 2
    18   12   13 1
    19   12   15 1
    20   14   18 1
    21   15   16 1
    22   16   17 1
    23   17   26 1
    24   18   21 1
    25   18   22 1
    26   19   22 1
    27   19   23 1
    28   20   21 1
    29   20   23 1
    30   24   25 1
    31   25   35 1
    32   26   31 1
    33   27   28 1
    34   27   31 1
    35   28   29 1
    36   29   30 1
    37   30   31 1
    38   32   33 2
    39   32   36 1
    40   33   37 1
    41   34   36 1
    42   34   37 1
    43    2   38 1
    44    3   39 1
    45    5   40 1
    46   11   41 1
    47   13   42 1
    48   16   43 1
    49   16   44 1
    50   17   45 1
    51   17   46 1
    52   18   47 1
    53   19   48 1
    54   19   49 1
    55   20   50 1
    56   20   51 1
    57   21   52 1
    58   21   53 1
    59   22   54 1
    60   22   55 1
    61   24   56 1
    62   26   57 1
    63   26   58 1
    64   27   59 1
    65   27   60 1
    66   28   61 1
    67   28   62 1
    68   29   63 1
    69   29   64 1
    70   30   65 1
    71   30   66 1
    72   31   67 1
    73   34   68 1
    74   34   69 1
@<TRIPOS>PROPERTY_DATA
  Total_Score	| 11.9716
  Crash		| -1.3093
  Polar		| 3.3011
  FragIndex	| 1
  FragRMSD	| 0.591

