@<TRIPOS>MOLECULE
BindingDB_12249
 61 65 0 0 0
SMALL
NO_CHARGES


@<TRIPOS>ATOM
1    C        16.1926   23.1534   56.6674  C     
2    C        13.9464   24.5808   55.6641  C     
3    N        17.3110   22.5564   57.1872  N     
4    C        18.4952   23.1684   57.4707  C     
5    C        19.6772   25.2480   57.5165  C     
6    N        18.5736   24.5166   57.2711  N     
7    N        20.7664   24.6282   58.0196  N     
8    C        20.7805   23.2922   58.2709  C     
9    C        19.6323   22.4822   58.0287  C     
10   C        19.7406   21.0865   58.2964  C     
11   C        20.9383   20.5575   58.8208  C     
12   C        22.0375   21.3812   59.1024  C     
13   C        21.9489   22.7531   58.8354  C     
14   C        13.8092   23.7509   56.7927  C     
15   C        14.9212   23.0273   57.2917  C     
16   O        18.7409   20.1964   58.0125  O     
17   C        17.9480   19.6409   59.0980  C     
18   C        19.2223   17.4231   59.4157  C     
19   C        17.3850   17.5448   57.7444  C     
20   C        16.8180   18.8169   58.4282  C     
21   C        18.7202   18.7258   60.0989  C     
22   N        18.1694   16.6701   58.6636  N     
23   C        17.3202   15.8014   59.5259  C     
24   O        23.1631   20.8858   59.7185  O     
25   C        24.1608   20.1544   58.9476  C     
26   C        24.6759   20.8823   57.6764  C     
27   C        25.3344   19.9032   59.9368  C     
28   C        16.2843   23.9582   55.5069  C     
29   C        15.1940   24.6683   55.0299  C     
30   C        16.9010   25.1469   53.7917  C     
31   Cl       14.7040   22.0986   58.6937  Cl    
32   O        15.4906   25.4123   53.9483  O     
33   O        17.3805   24.1811   54.7501  O     
34   H        13.1490   25.1062   55.3100  H     
35   H        17.2020   21.6391   57.4793  H     
36   H        19.6858   26.2516   57.3320  H     
37   H        21.0318   19.5572   58.9779  H     
38   H        22.7608   23.3474   58.9865  H     
39   H        12.9003   23.6889   57.2605  H     
40   H        17.4866   20.4628   59.6585  H     
41   H        20.0103   17.6782   58.7007  H     
42   H        19.6909   16.7895   60.1722  H     
43   H        16.5557   16.9973   57.2924  H     
44   H        18.0366   17.8511   56.9180  H     
45   H        16.0736   18.5367   59.1758  H     
46   H        16.3055   19.4282   57.6805  H     
47   H        19.5582   19.2707   60.5427  H     
48   H        18.0583   18.4653   60.9195  H     
49   H        18.6920   16.0309   58.0533  H     
50   H        17.9402   15.1174   60.1055  H     
51   H        16.6615   15.1942   58.9026  H     
52   H        16.7130   16.3903   60.2091  H     
53   H        23.7593   19.1757   58.6499  H     
54   H        23.8472   20.9618   56.9584  H     
55   H        25.4926   20.3230   57.1981  H     
56   H        25.0147   21.8832   57.9653  H     
57   H        25.6821   20.8579   60.3484  H     
58   H        26.1757   19.4116   59.4257  H     
59   H        25.0073   19.2674   60.7672  H     
60   H        17.0837   24.7655   52.7846  H     
61   H        17.4591   26.0809   53.9095  H     
@<TRIPOS>BOND
     1    1    3 1
     2    1   15 2
     3    1   28 1
     4    2   14 2
     5    2   29 1
     6    3    4 1
     7    4    6 2
     8    4    9 1
     9    5    6 1
    10    5    7 2
    11    7    8 1
    12    8    9 1
    13    8   13 2
    14    9   10 2
    15   10   11 1
    16   10   16 1
    17   11   12 2
    18   12   13 1
    19   12   24 1
    20   14   15 1
    21   15   31 1
    22   16   17 1
    23   17   20 1
    24   17   21 1
    25   18   21 1
    26   18   22 1
    27   19   20 1
    28   19   22 1
    29   22   23 1
    30   24   25 1
    31   25   26 1
    32   25   27 1
    33   28   29 2
    34   28   33 1
    35   29   32 1
    36   30   32 1
    37   30   33 1
    38    2   34 1
    39    3   35 1
    40    5   36 1
    41   11   37 1
    42   13   38 1
    43   14   39 1
    44   17   40 1
    45   18   41 1
    46   18   42 1
    47   19   43 1
    48   19   44 1
    49   20   45 1
    50   20   46 1
    51   21   47 1
    52   21   48 1
    53   22   49 1
    54   23   50 1
    55   23   51 1
    56   23   52 1
    57   25   53 1
    58   26   54 1
    59   26   55 1
    60   26   56 1
    61   27   57 1
    62   27   58 1
    63   27   59 1
    64   30   60 1
    65   30   61 1
@<TRIPOS>PROPERTY_DATA
  Total_Score	| 10.1341
  Crash		| -2.2642
  Polar		| 2.5518
  FragIndex	| 1
  FragRMSD	| 0.705

