@<TRIPOS>MOLECULE
BindingDB_12238
 66 71 0 0 0
SMALL
NO_CHARGES


@<TRIPOS>ATOM
1    C        16.1996   23.2583   56.7563  C     
2    C        13.8677   24.5678   55.7564  C     
3    N        17.3464   22.6747   57.2472  N     
4    C        18.5356   23.3032   57.4804  C     
5    C        19.6602   25.4229   57.4914  C     
6    N        18.5705   24.6536   57.2934  N     
7    N        20.8079   24.8442   57.8975  N     
8    C        20.8872   23.4963   58.1093  C     
9    C        19.7466   22.6495   57.9288  C     
10   C        19.9047   21.2511   58.1675  C     
11   C        21.1701   20.7549   58.5624  C     
12   C        22.2789   21.6054   58.7491  C     
13   C        22.1325   22.9777   58.5135  C     
14   O        18.8546   20.3969   57.9376  O     
15   O        23.4483   21.1087   59.2602  O     
16   C        24.6246   21.3091   58.4452  C     
17   C        25.8129   20.5795   59.1268  C     
18   C        18.7256   19.1382   58.6415  C     
19   C        16.1602   18.9730   58.5274  C     
20   C        17.1803   19.9235   60.5146  C     
21   C        18.5631   19.3196   60.1778  C     
22   C        17.5072   18.3592   58.0711  C     
23   O        16.1100   19.1267   59.9628  O     
24   C        13.8073   23.8257   56.9490  C     
25   C        14.9606   23.1737   57.4511  C     
26   C        26.5912   18.9900   57.3072  C     
27   C        26.4669   17.4794   57.0198  C     
28   C        25.4356   16.9538   58.0362  C     
29   C        25.0090   18.1865   58.8594  C     
30   N        26.1006   19.1738   58.6912  N     
31   C        15.0847   24.6313   55.0625  C     
32   C        16.2148   23.9771   55.5368  C     
33   C        16.7422   25.1400   53.7850  C     
34   Cl       14.8169   22.3930   58.9472  Cl    
35   O        17.2516   24.1405   54.6885  O     
36   O        15.3160   25.2819   53.9089  O     
37   H        13.0425   25.0537   55.3965  H     
38   H        17.2786   21.7447   57.5070  H     
39   H        19.6103   26.4293   57.3451  H     
40   H        21.3094   19.7567   58.7172  H     
41   H        22.9348   23.6029   58.6353  H     
42   H        24.4828   20.9107   57.4386  H     
43   H        24.8390   22.3780   58.3655  H     
44   H        26.7129   21.1822   58.9787  H     
45   H        25.6346   20.5599   60.2080  H     
46   H        19.6144   18.5289   58.4480  H     
47   H        15.9972   19.9357   58.0379  H     
48   H        15.3395   18.3126   58.2303  H     
49   H        17.0568   19.9617   61.5984  H     
50   H        17.1182   20.9442   60.1309  H     
51   H        18.6497   18.3470   60.6670  H     
52   H        19.3516   19.9589   60.5738  H     
53   H        17.5532   18.3495   56.9793  H     
54   H        17.5423   17.3224   58.4152  H     
55   H        12.9170   23.7799   57.4533  H     
56   H        27.6301   19.3170   57.2180  H     
57   H        25.9790   19.5489   56.5952  H     
58   H        26.1278   17.3150   55.9943  H     
59   H        27.4289   16.9745   57.1550  H     
60   H        24.5755   16.5001   57.5344  H     
61   H        25.8951   16.2028   58.6847  H     
62   H        24.0570   18.5760   58.4897  H     
63   H        24.8888   17.9240   59.9138  H     
64   H        26.8547   18.8506   59.3025  H     
65   H        17.2170   26.1004   54.0042  H     
66   H        16.9885   24.8674   52.7577  H     
@<TRIPOS>BOND
     1    1    3 1
     2    1   25 2
     3    1   32 1
     4    2   24 2
     5    2   31 1
     6    3    4 1
     7    4    6 2
     8    4    9 1
     9    5    6 1
    10    5    7 2
    11    7    8 1
    12    8    9 1
    13    8   13 2
    14    9   10 2
    15   10   11 1
    16   10   14 1
    17   11   12 2
    18   12   13 1
    19   12   15 1
    20   14   18 1
    21   15   16 1
    22   16   17 1
    23   17   30 1
    24   18   21 1
    25   18   22 1
    26   19   22 1
    27   19   23 1
    28   20   21 1
    29   20   23 1
    30   24   25 1
    31   25   34 1
    32   26   27 1
    33   26   30 1
    34   27   28 1
    35   28   29 1
    36   29   30 1
    37   31   32 2
    38   31   36 1
    39   32   35 1
    40   33   35 1
    41   33   36 1
    42    2   37 1
    43    3   38 1
    44    5   39 1
    45   11   40 1
    46   13   41 1
    47   16   42 1
    48   16   43 1
    49   17   44 1
    50   17   45 1
    51   18   46 1
    52   19   47 1
    53   19   48 1
    54   20   49 1
    55   20   50 1
    56   21   51 1
    57   21   52 1
    58   22   53 1
    59   22   54 1
    60   24   55 1
    61   26   56 1
    62   26   57 1
    63   27   58 1
    64   27   59 1
    65   28   60 1
    66   28   61 1
    67   29   62 1
    68   29   63 1
    69   30   64 1
    70   33   65 1
    71   33   66 1
@<TRIPOS>PROPERTY_DATA
  Total_Score	| 11.1460
  Crash		| -1.3280
  Polar		| 1.7083
  FragIndex	| 1
  FragRMSD	| 0.201

