@<TRIPOS>MOLECULE
BindingDB_16499
 47 47 0 0 0
SMALL
NO_CHARGES


@<TRIPOS>ATOM
1    C         7.7568   18.9849   -8.1596  C     
2    C         7.5855   20.4750   -7.7926  C     
3    O         9.0056   18.4685   -7.6869  O     
4    C        10.2536   18.7586   -8.1347  C     
5    O        10.4383   19.6166   -9.1672  O     
6    C        11.4006   18.1582   -7.4287  C     
7    C        12.7894   18.1577   -8.0510  C     
8    C        14.0081   17.9692   -7.2937  C     
9    O        15.0434   18.3922   -7.7885  O     
10   N        14.0105   17.4602   -6.0693  N     
11   C        15.1360   17.2719   -5.1808  C     
12   C        15.0222   15.9635   -4.5533  C     
13   O        13.9717   15.6604   -4.0001  O     
14   C        15.1637   18.4579   -4.1487  C     
15   C        15.9783   18.1463   -2.8488  C     
16   C        15.6752   19.7922   -4.7966  C     
17   C        15.0318   21.0678   -4.2246  C     
18   O        11.9435   16.9988   -8.0774  O     
19   N        16.0618   15.1449   -4.4992  N     
20   C        16.1388   13.8751   -3.8274  C     
21   C        17.4753   13.1923   -4.2146  C     
22   C        15.9838   14.0329   -2.3492  C     
23   O        16.1854   12.9849   -1.5112  O     
24   O        15.3222   15.1022   -1.8383  O     
25   H         6.9572   18.4167   -7.6863  H     
26   H         7.6754   18.8553   -9.2423  H     
27   H         7.6868   20.6088   -6.7137  H     
28   H         6.5924   20.8142   -8.0985  H     
29   H         8.3351   21.0861   -8.2949  H     
30   H        11.3217   18.0252   -6.3479  H     
31   H        12.8849   18.5776   -9.0498  H     
32   H        13.1469   17.2270   -5.6956  H     
33   H        16.0797   17.2990   -5.7415  H     
34   H        14.1281   18.6013   -3.8122  H     
35   H        15.5254   17.3064   -2.2950  H     
36   H        15.9805   19.0073   -2.1695  H     
37   H        17.0090   17.8842   -3.0961  H     
38   H        16.7611   19.8677   -4.6783  H     
39   H        15.4819   19.7982   -5.8789  H     
40   H        13.9906   21.1135   -4.5461  H     
41   H        15.5463   21.9558   -4.5987  H     
42   H        15.0734   21.0789   -3.1335  H     
43   H        16.8622   15.4462   -4.9570  H     
44   H        15.3405   13.2197   -4.1822  H     
45   H        17.5577   13.0912   -5.3001  H     
46   H        17.5382   12.1927   -3.7856  H     
47   H        18.3256   13.7764   -3.8615  H     
@<TRIPOS>BOND
     1    1    2 1
     2    1    3 1
     3    3    4 1
     4    4    5 2
     5    6    4 1
     6    6    7 1
     7    6   18 1
     8    7    8 1
     9    7   18 1
    10    8    9 2
    11    8   10 am
    12   10   11 1
    13   11   12 1
    14   11   14 1
    15   12   13 2
    16   12   19 am
    17   14   15 1
    18   14   16 1
    19   16   17 1
    20   19   20 1
    21   20   21 1
    22   20   22 1
    23   22   23 2
    24   22   24 1
    25    1   25 1
    26    1   26 1
    27    2   27 1
    28    2   28 1
    29    2   29 1
    30    6   30 1
    31    7   31 1
    32   10   32 1
    33   11   33 1
    34   14   34 1
    35   15   35 1
    36   15   36 1
    37   15   37 1
    38   16   38 1
    39   16   39 1
    40   17   40 1
    41   17   41 1
    42   17   42 1
    43   19   43 1
    44   20   44 1
    45   21   45 1
    46   21   46 1
    47   21   47 1
@<TRIPOS>PROPERTY_DATA
  Total_Score	| 3.5934
  Crash		| -1.8224
  Polar		| 2.9867
  FragIndex	| 1
  FragRMSD	| 0.438

