@<TRIPOS>MOLECULE
BindingDB_50042438
 73 74 0 0 0
SMALL
NO_CHARGES


@<TRIPOS>ATOM
1    C        15.6615   14.2484   -1.9149  C     
2    C        14.9705   15.2035   -1.2135  C     
3    C        15.4411   16.4782   -4.4536  C     
4    N        15.1882   15.5214    0.0878  N     
5    N        16.2464   15.6684   -3.7769  N     
6    C        14.4346   18.1637   -6.9011  C     
7    C        15.9666   14.3218   -3.3510  C     
8    C        15.9232   17.7829   -4.9100  C     
9    N        15.6317   18.0986   -6.2759  N     
10   O        15.7044   13.1257   -1.4122  O     
11   O        14.0448   15.7349   -1.8231  O     
12   C        14.3313   16.4942    0.7632  C     
13   O        14.2779   16.1558   -4.6485  O     
14   O        14.4341   18.6826   -8.1443  O     
15   O        13.2847   17.7077   -6.3478  O     
16   C        15.5075   18.9505   -3.9690  C     
17   C        11.9679   17.5900   -6.9194  C     
18   C        14.7208   17.9317    0.6353  C     
19   C        10.9469   18.0778   -5.9646  C     
20   C        16.3158   14.9982    0.8655  C     
21   C        17.1706   13.4389   -3.8155  C     
22   C        16.0200   20.3683   -4.4136  C     
23   C        13.9227   18.9066    1.2874  C     
24   C        15.8639   18.3763   -0.0768  C     
25   C        10.1873   19.2383   -6.2563  C     
26   C        10.6694   17.3450   -4.7840  C     
27   C        15.9468   13.7710    1.7309  C     
28   C        15.0187   21.4597   -3.9694  C     
29   C        17.4487   20.7088   -3.9054  C     
30   C        18.5236   14.1788   -3.9820  C     
31   C        16.2014   19.7416   -0.1240  C     
32   C         9.1869   19.6711   -5.3604  C     
33   C         9.6796   17.7899   -3.8876  C     
34   C        14.2618   20.2732    1.2383  C     
35   C        15.4012   20.6916    0.5296  C     
36   C         8.9321   18.9495   -4.1806  C     
37   H        17.1210   16.0188   -3.5387  H     
38   H        15.0852   13.9259   -3.8711  H     
39   H        17.0153   17.7412   -4.8740  H     
40   H        16.3936   18.3843   -6.8036  H     
41   H        13.2944   16.3893    0.4165  H     
42   H        14.2902   16.2664    1.8340  H     
43   H        14.4174   18.9597   -3.9245  H     
44   H        15.8739   18.7427   -2.9609  H     
45   H        11.9156   18.1134   -7.8785  H     
46   H        11.7779   16.5318   -7.1041  H     
47   H        17.1605   14.7230    0.2281  H     
48   H        16.7005   15.7808    1.5327  H     
49   H        17.3149   12.6215   -3.1056  H     
50   H        16.9175   12.9765   -4.7762  H     
51   H        16.0412   20.4059   -5.5088  H     
52   H        13.0882   18.6282    1.8101  H     
53   H        16.4750   17.7123   -0.5578  H     
54   H        10.3511   19.7758   -7.1132  H     
55   H        11.1940   16.4898   -4.5602  H     
56   H        15.2001   14.0359    2.4814  H     
57   H        16.8360   13.4039    2.2483  H     
58   H        15.5420   12.9680    1.1131  H     
59   H        14.0599   21.2698   -4.4422  H     
60   H        15.3571   22.4453   -4.2886  H     
61   H        14.8880   21.4607   -2.8864  H     
62   H        17.5094   20.6018   -2.8236  H     
63   H        17.7148   21.7340   -4.1702  H     
64   H        18.1874   20.0558   -4.3677  H     
65   H        18.4536   14.9423   -4.7591  H     
66   H        19.3007   13.4660   -4.2726  H     
67   H        18.8215   14.6509   -3.0414  H     
68   H        17.0366   20.0440   -0.6300  H     
69   H         8.6417   20.5119   -5.5753  H     
70   H         9.4943   17.2605   -3.0294  H     
71   H        13.6854   20.9620    1.7249  H     
72   H        15.6452   21.6845    0.4897  H     
73   H         8.2004   19.2715   -3.5362  H     
@<TRIPOS>BOND
     1    1    2 1
     2    1    7 1
     3    1   10 2
     4    2    4 am
     5    2   11 2
     6    3    5 am
     7    3    8 1
     8    3   13 2
     9    4   12 1
    10    4   20 1
    11    5    7 1
    12    6    9 am
    13    6   14 2
    14    6   15 1
    15    7   21 1
    16    8    9 1
    17    8   16 1
    18   12   18 1
    19   15   17 1
    20   16   22 1
    21   17   19 1
    22   18   23 1
    23   18   24 2
    24   19   25 2
    25   19   26 1
    26   20   27 1
    27   21   30 1
    28   22   28 1
    29   22   29 1
    30   23   34 2
    31   24   31 1
    32   25   32 1
    33   26   33 2
    34   31   35 2
    35   32   36 2
    36   33   36 1
    37   34   35 1
    38    5   37 1
    39    7   38 1
    40    8   39 1
    41    9   40 1
    42   12   41 1
    43   12   42 1
    44   16   43 1
    45   16   44 1
    46   17   45 1
    47   17   46 1
    48   20   47 1
    49   20   48 1
    50   21   49 1
    51   21   50 1
    52   22   51 1
    53   23   52 1
    54   24   53 1
    55   25   54 1
    56   26   55 1
    57   27   56 1
    58   27   57 1
    59   27   58 1
    60   28   59 1
    61   28   60 1
    62   28   61 1
    63   29   62 1
    64   29   63 1
    65   29   64 1
    66   30   65 1
    67   30   66 1
    68   30   67 1
    69   31   68 1
    70   32   69 1
    71   33   70 1
    72   34   71 1
    73   35   72 1
    74   36   73 1
@<TRIPOS>PROPERTY_DATA
  Total_Score	| 4.8411
  Crash		| -2.3481
  Polar		| 2.4532
  FragIndex	| 1
  FragRMSD	| 0.896

