@<TRIPOS>MOLECULE
BindingDB_50042427
 67 68 0 0 0
SMALL
NO_CHARGES


@<TRIPOS>ATOM
1    C        15.4386   14.2189   -1.9988  C     
2    C        15.5193   16.4672   -4.4950  C     
3    C        14.6797   15.1605   -1.3809  C     
4    N        16.2753   15.7232   -3.7006  N     
5    C        14.5852   18.1986   -6.8450  C     
6    C        15.9263   17.8523   -4.7449  C     
7    C        16.0515   14.3536   -3.3260  C     
8    N        15.7149   18.2696   -6.1100  N     
9    N        14.8086   15.3496   -0.0720  N     
10   O        15.5073   13.1241   -1.4457  O     
11   O        14.4908   16.0260   -5.0023  O     
12   O        14.6483   18.6410   -8.1178  O     
13   O        13.8411   15.7804   -2.0316  O     
14   O        13.4211   17.7894   -6.3043  O     
15   C        15.3464   18.8104   -3.6480  C     
16   C        14.0797   16.2769    0.7396  C     
17   C        12.1489   17.6621   -6.9436  C     
18   C        14.5240   17.7024    0.6450  C     
19   C        11.0852   17.7100   -5.9139  C     
20   C        17.4098   13.5635   -3.4313  C     
21   C        15.7580   20.3175   -3.6648  C     
22   C        10.8464   16.5722   -5.1080  C     
23   C        10.3269   18.8852   -5.6663  C     
24   C        13.7950   18.7280    1.2999  C     
25   C        15.7325   18.0491   -0.0101  C     
26   C        17.2952   20.5290   -3.7402  C     
27   C        15.0217   21.1736   -4.7233  C     
28   C        18.4770   14.1485   -4.3988  C     
29   C         9.8735   16.6001   -4.0851  C     
30   C        14.2463   20.0586    1.2781  C     
31   C        16.1771   19.3863   -0.0435  C     
32   C         9.3570   18.9144   -4.6391  C     
33   C         9.1359   17.7734   -3.8487  C     
34   C        15.4275   20.3871    0.5998  C     
35   H        17.0593   16.1455   -3.3216  H     
36   H        17.0151   17.8788   -4.6437  H     
37   H        15.3581   13.8764   -4.0308  H     
38   H        16.4911   18.6416   -6.5646  H     
39   H        15.4639   14.8082    0.3854  H     
40   H        14.2553   18.7393   -3.6479  H     
41   H        15.6671   18.4169   -2.6782  H     
42   H        13.0089   16.1864    0.5102  H     
43   H        14.2055   15.9624    1.7841  H     
44   H        12.0117   18.4569   -7.6866  H     
45   H        12.1036   16.6985   -7.4673  H     
46   H        17.8744   13.4686   -2.4400  H     
47   H        17.1914   12.5459   -3.7933  H     
48   H        15.4474   20.7170   -2.6929  H     
49   H        11.3763   15.7116   -5.2598  H     
50   H        10.4711   19.7279   -6.2235  H     
51   H        12.9385   18.4992    1.8065  H     
52   H        16.2993   17.3264   -0.4583  H     
53   H        17.7937   19.9706   -2.9495  H     
54   H        17.5317   21.5848   -3.6142  H     
55   H        17.6843   20.2038   -4.7044  H     
56   H        15.3901   20.9662   -5.7277  H     
57   H        15.1803   22.2319   -4.5170  H     
58   H        13.9488   20.9789   -4.6918  H     
59   H        18.0411   14.3267   -5.3907  H     
60   H        19.3076   13.4469   -4.4991  H     
61   H        18.8626   15.0963   -4.0076  H     
62   H         9.7097   15.7650   -3.5125  H     
63   H        13.7103   20.7822    1.7561  H     
64   H        17.0438   19.6248   -0.5242  H     
65   H         8.8162   19.7681   -4.4654  H     
66   H         8.4374   17.7954   -3.1003  H     
67   H        15.7510   21.3563    0.5789  H     
@<TRIPOS>BOND
     1    1    3 1
     2    1    7 1
     3    1   10 2
     4    2    4 am
     5    2    6 1
     6    2   11 2
     7    3    9 am
     8    3   13 2
     9    4    7 1
    10    5    8 am
    11    5   12 2
    12    5   14 1
    13    6    8 1
    14    6   15 1
    15    7   20 1
    16    9   16 1
    17   14   17 1
    18   15   21 1
    19   16   18 1
    20   17   19 1
    21   18   24 2
    22   18   25 1
    23   19   22 2
    24   19   23 1
    25   20   28 1
    26   21   26 1
    27   21   27 1
    28   22   29 1
    29   23   32 2
    30   24   30 1
    31   25   31 2
    32   29   33 2
    33   30   34 2
    34   31   34 1
    35   32   33 1
    36    4   35 1
    37    6   36 1
    38    7   37 1
    39    8   38 1
    40    9   39 1
    41   15   40 1
    42   15   41 1
    43   16   42 1
    44   16   43 1
    45   17   44 1
    46   17   45 1
    47   20   46 1
    48   20   47 1
    49   21   48 1
    50   22   49 1
    51   23   50 1
    52   24   51 1
    53   25   52 1
    54   26   53 1
    55   26   54 1
    56   26   55 1
    57   27   56 1
    58   27   57 1
    59   27   58 1
    60   28   59 1
    61   28   60 1
    62   28   61 1
    63   29   62 1
    64   30   63 1
    65   31   64 1
    66   32   65 1
    67   33   66 1
    68   34   67 1
@<TRIPOS>PROPERTY_DATA
  Total_Score	| 5.4504
  Crash		| -1.7335
  Polar		| 2.9616
  FragIndex	| 1
  FragRMSD	| 1.003

