@<TRIPOS>MOLECULE
BindingDB_50342010
 68 72 0 0 0
SMALL
NO_CHARGES


@<TRIPOS>ATOM
1    C       -31.0915  -26.9902   18.9935  C     
2    C       -30.9871  -25.4755   18.6647  C     
3    C       -32.0296  -25.0032   17.6108  C     
4    C       -31.2963  -23.9111   16.8134  C     
5    C       -29.8165  -24.0280   17.2578  C     
6    O       -29.7007  -25.1751   18.1111  O     
7    N       -28.8569  -24.1403   16.1646  N     
8    C       -28.0576  -23.1173   15.7824  C     
9    O       -28.0764  -22.0101   16.3032  O     
10   N       -27.1978  -23.2743   14.7748  N     
11   C       -27.0789  -24.4353   14.1354  C     
12   O       -26.2945  -24.5205   13.2024  O     
13   C       -27.8371  -25.5007   14.5091  C     
14   C       -28.7213  -25.3359   15.5116  C     
15   P       -33.5911  -23.8365   19.3725  P     
16   O       -32.5728  -22.8425   19.5689  O     
17   O       -33.3518  -24.6515   18.0659  O     
18   O       -34.5602  -26.4985   22.1077  O     
19   O       -34.9025  -23.0351   19.2309  O     
20   O       -33.5952  -24.7280   20.6569  O     
21   P       -34.7539  -25.7487   20.7743  P     
22   O       -34.7806  -26.7458   19.7309  O     
23   O       -36.1375  -25.0743   20.8773  O     
24   O       -30.3916  -27.7396   17.9745  O     
25   P       -31.1562  -28.8823   17.2409  P     
26   O       -31.4426  -30.1413   18.1138  O     
27   O       -30.4369  -29.2176   16.0337  O     
28   O       -32.5167  -28.3657   16.7316  O     
29   O       -31.5354  -33.8558   16.9727  O     
30   C       -32.0497  -33.2223   18.1429  C     
31   C       -30.9746  -32.4004   18.8962  C     
32   C       -30.4460  -31.1845   18.1166  C     
33   C       -29.1478  -30.8794   18.8829  C     
34   O       -29.4214  -30.0777   20.0362  O     
35   C       -28.6712  -32.2991   19.3019  C     
36   O       -29.8082  -33.1813   19.1645  O     
37   N       -27.5394  -32.7745   18.5419  N     
38   C       -26.2753  -32.3085   18.6667  C     
39   N       -25.4265  -32.9751   17.8608  N     
40   C       -26.1675  -33.8691   17.1974  C     
41   C       -25.8382  -34.8332   16.2289  C     
42   N       -24.5798  -34.9937   15.7883  N     
43   N       -26.8357  -35.6216   15.7378  N     
44   C       -28.1254  -35.4940   16.1559  C     
45   N       -28.4493  -34.5580   17.0878  N     
46   C       -27.4924  -33.7495   17.6122  C     
47   H       -30.5919  -27.1905   19.9438  H     
48   H       -32.1485  -27.2494   19.1203  H     
49   H       -31.0821  -24.8964   19.5903  H     
50   H       -32.1922  -25.8161   16.9072  H     
51   H       -31.4112  -24.0695   15.7402  H     
52   H       -31.6953  -22.9220   17.0404  H     
53   H       -29.6132  -23.1584   17.8847  H     
54   H       -26.6485  -22.5217   14.4980  H     
55   H       -27.7353  -26.3815   14.0587  H     
56   H       -29.2729  -26.1193   15.7756  H     
57   H       -31.0586  -34.6501   17.2874  H     
58   H       -32.8671  -32.5649   17.8412  H     
59   H       -32.4563  -33.9877   18.8006  H     
60   H       -31.4029  -32.0820   19.8521  H     
61   H       -30.1929  -31.5185   17.1079  H     
62   H       -28.4360  -30.3566   18.2357  H     
63   H       -28.6881  -29.4268   20.0639  H     
64   H       -28.3948  -32.3026   20.3598  H     
65   H       -25.9827  -31.5607   19.3040  H     
66   H       -24.3816  -35.6659   15.1148  H     
67   H       -23.8667  -34.4370   16.1356  H     
68   H       -28.8474  -36.0972   15.7680  H     
@<TRIPOS>BOND
     1    2    1 1
     2    1   24 1
     3    2    3 1
     4    2    6 1
     5    3    4 1
     6    3   17 1
     7    4    5 1
     8    5    6 1
     9    5    7 1
    10    7    8 1
    11    7   14 1
    12    8    9 2
    13    8   10 1
    14   10   11 1
    15   11   12 2
    16   11   13 1
    17   13   14 2
    18   15   16 2
    19   15   17 1
    20   15   19 1
    21   15   20 1
    22   18   21 1
    23   20   21 1
    24   21   22 2
    25   21   23 1
    26   24   25 1
    27   25   26 1
    28   25   27 2
    29   25   28 1
    30   32   26 1
    31   29   30 1
    32   31   30 1
    33   31   32 1
    34   31   36 1
    35   32   33 1
    36   33   34 1
    37   33   35 1
    38   35   36 1
    39   35   37 1
    40   37   38 1
    41   37   46 1
    42   38   39 2
    43   39   40 1
    44   40   41 1
    45   40   46 2
    46   41   42 1
    47   41   43 2
    48   43   44 1
    49   44   45 2
    50   45   46 1
    51    1   47 1
    52    1   48 1
    53    2   49 1
    54    3   50 1
    55    4   51 1
    56    4   52 1
    57    5   53 1
    58   10   54 1
    59   13   55 1
    60   14   56 1
    61   29   57 1
    62   30   58 1
    63   30   59 1
    64   31   60 1
    65   32   61 1
    66   33   62 1
    67   34   63 1
    68   35   64 1
    69   38   65 1
    70   42   66 1
    71   42   67 1
    72   44   68 1
@<TRIPOS>PROPERTY_DATA
  Total_Score	| 6.9890
  Crash		| -2.1390
  Polar		| 4.7056
  FragIndex	| 1
  FragRMSD	| 1.344

