@<TRIPOS>MOLECULE
BindingDB_50342007
 48 50 0 0 0
SMALL
NO_CHARGES


@<TRIPOS>ATOM
1    C       -32.2577  -25.2517   17.9619  C     
2    C       -31.6602  -24.1608   17.0527  C     
3    C       -30.1636  -24.1137   17.4638  C     
4    O       -29.9653  -25.1797   18.4180  O     
5    C       -31.2108  -25.3882   19.0937  C     
6    N       -29.2043  -24.2207   16.3715  N     
7    O       -33.5431  -24.9044   18.4563  O     
8    C       -31.2929  -26.7231   19.9023  C     
9    N       -30.0496  -27.5732   19.8258  N     
10   C       -30.0740  -28.4802   18.6344  C     
11   C       -28.7738  -29.3083   18.4940  C     
12   C       -28.5303  -30.1495   19.7845  C     
13   C       -28.4634  -29.1991   21.0211  C     
14   C       -29.7198  -28.2900   21.1068  C     
15   C       -27.3025  -30.9661   19.6547  C     
16   O       -26.1014  -30.3856   19.4560  O     
17   O       -27.3675  -32.3224   19.6720  O     
18   C       -29.1965  -25.3577   15.6161  C     
19   C       -28.2789  -25.5836   14.6393  C     
20   C       -27.3610  -24.5789   14.4073  C     
21   N       -27.3953  -23.4569   15.1173  N     
22   C       -28.2847  -23.2642   16.0986  C     
23   O       -28.1954  -22.2035   16.7034  O     
24   O       -26.5174  -24.6706   13.5187  O     
25   C       -28.2652  -26.8184   13.8672  C     
26   H       -32.3224  -26.1820   17.3921  H     
27   H       -31.8054  -24.3948   15.9845  H     
28   H       -32.1261  -23.1886   17.2644  H     
29   H       -30.0203  -23.1761   18.0116  H     
30   H       -31.3472  -24.5558   19.8002  H     
31   H       -33.8490  -25.6950   18.9604  H     
32   H       -31.5258  -26.4442   20.9434  H     
33   H       -32.1639  -27.3224   19.5790  H     
34   H       -29.2743  -26.9363   19.6890  H     
35   H       -30.9272  -29.1633   18.6991  H     
36   H       -30.1865  -27.8879   17.7280  H     
37   H       -28.8474  -29.9764   17.6282  H     
38   H       -27.9344  -28.6244   18.3399  H     
39   H       -29.3768  -30.8347   19.9126  H     
40   H       -28.3851  -29.8007   21.9406  H     
41   H       -27.5753  -28.5642   20.9555  H     
42   H       -29.5291  -27.5528   21.8933  H     
43   H       -30.5721  -28.8864   21.4182  H     
44   H       -29.8835  -26.0543   15.7953  H     
45   H       -26.7482  -22.7543   14.9222  H     
46   H       -29.0241  -27.5280   14.2019  H     
47   H       -27.2859  -27.3024   13.9740  H     
48   H       -28.4509  -26.6008   12.8126  H     
@<TRIPOS>BOND
     1    1    2 1
     2    1    5 1
     3    1    7 1
     4    2    3 1
     5    3    4 1
     6    3    6 1
     7    4    5 1
     8    5    8 1
     9    6   18 1
    10    6   22 1
    11    8    9 1
    12    9   10 1
    13    9   14 1
    14   10   11 1
    15   11   12 1
    16   12   13 1
    17   12   15 1
    18   13   14 1
    19   15   16 1
    20   15   17 2
    21   18   19 2
    22   19   20 1
    23   19   25 1
    24   20   21 1
    25   20   24 2
    26   21   22 1
    27   22   23 2
    28    1   26 1
    29    2   27 1
    30    2   28 1
    31    3   29 1
    32    5   30 1
    33    7   31 1
    34    8   32 1
    35    8   33 1
    36    9   34 1
    37   10   35 1
    38   10   36 1
    39   11   37 1
    40   11   38 1
    41   12   39 1
    42   13   40 1
    43   13   41 1
    44   14   42 1
    45   14   43 1
    46   18   44 1
    47   21   45 1
    48   25   46 1
    49   25   47 1
    50   25   48 1
@<TRIPOS>PROPERTY_DATA
  Total_Score	| 3.8806
  Crash		| -3.1258
  Polar		| 2.3042
  FragIndex	| 1
  FragRMSD	| 0.749

