@<TRIPOS>MOLECULE
BindingDB_50233301
 33 34 0 0 0
SMALL
NO_CHARGES


@<TRIPOS>ATOM
1    O       -30.4405  -28.1345   19.9696  O     
2    C       -31.1571  -27.5776   18.8678  C     
3    C       -31.1338  -26.0235   18.8419  C     
4    C       -32.3475  -25.4098   18.0715  C     
5    O       -33.2125  -24.5573   18.8734  O     
6    C       -31.6725  -24.5688   16.9627  C     
7    O       -32.3555  -23.3569   16.6376  O     
8    C       -30.2673  -24.3052   17.5375  C     
9    O       -29.9376  -25.5333   18.2135  O     
10   N       -29.2682  -23.9466   16.5345  N     
11   C       -28.6180  -22.7600   16.5394  C     
12   O       -28.7970  -21.8809   17.3679  O     
13   N       -27.6976  -22.4892   15.6214  N     
14   C       -27.3592  -23.3858   14.6637  C     
15   N       -26.4190  -23.0484   13.7655  N     
16   C       -27.9959  -24.6148   14.6381  C     
17   C       -28.9387  -24.8585   15.5689  C     
18   P       -34.1198  -25.2273   19.9562  P     
19   O       -35.1412  -24.1838   20.4308  O     
20   O       -33.3442  -25.5981   21.1125  O     
21   O       -34.9144  -26.4518   19.4612  O     
22   H       -29.7199  -27.4980   20.1799  H     
23   H       -30.7464  -27.9746   17.9336  H     
24   H       -32.1921  -27.9243   18.9641  H     
25   H       -31.1213  -25.6637   19.8730  H     
26   H       -32.9551  -26.1830   17.5745  H     
27   H       -31.6011  -25.1715   16.0518  H     
28   H       -33.2280  -23.6366   16.2865  H     
29   H       -30.3621  -23.5250   18.3055  H     
30   H       -26.1475  -23.6748   13.0763  H     
31   H       -26.0085  -22.1673   13.8022  H     
32   H       -27.7617  -25.3044   13.9634  H     
33   H       -29.3896  -25.7459   15.5474  H     
@<TRIPOS>BOND
     1    1    2 1
     2    3    2 1
     3    3    4 1
     4    3    9 1
     5    4    5 1
     6    4    6 1
     7    5   18 1
     8    6    7 1
     9    6    8 1
    10    8    9 1
    11    8   10 1
    12   10   11 1
    13   10   17 1
    14   11   12 2
    15   11   13 1
    16   13   14 2
    17   14   15 1
    18   14   16 1
    19   16   17 2
    20   18   19 1
    21   18   20 2
    22   18   21 1
    23    1   22 1
    24    2   23 1
    25    2   24 1
    26    3   25 1
    27    4   26 1
    28    6   27 1
    29    7   28 1
    30    8   29 1
    31   15   30 1
    32   15   31 1
    33   16   32 1
    34   17   33 1
@<TRIPOS>PROPERTY_DATA
  Total_Score	| 3.5794
  Crash		| -0.8497
  Polar		| 3.4303
  FragIndex	| 1
  FragRMSD	| 1.448

