@<TRIPOS>MOLECULE
BindingDB_50292723
 32 33 0 0 0
SMALL
NO_CHARGES


@<TRIPOS>ATOM
1    O       -29.9837  -27.6151   18.9364  O     
2    C       -31.1241  -26.9643   19.4923  C     
3    C       -31.2883  -25.5155   18.9677  C     
4    C       -32.2185  -25.3959   17.7427  C     
5    O       -33.6028  -25.3770   18.0794  O     
6    C       -31.7144  -24.1082   17.0599  C     
7    O       -32.4974  -22.9002   17.2620  O     
8    C       -30.2197  -24.0312   17.4958  C     
9    O       -30.0223  -24.9732   18.5672  O     
10   N       -29.2423  -24.3106   16.4471  N     
11   C       -28.2969  -23.4233   16.0610  C     
12   O       -28.1867  -22.2946   16.5209  O     
13   N       -27.4041  -23.7577   15.1295  N     
14   C       -27.3975  -24.9596   14.5625  C     
15   O       -26.5470  -25.2154   13.7232  O     
16   C       -28.3256  -25.8839   14.9204  C     
17   C       -29.2371  -25.5420   15.8505  C     
18   P       -32.8775  -22.2911   18.6533  P     
19   O       -31.7481  -21.5387   19.3814  O     
20   O       -33.9797  -21.2466   18.3955  O     
21   O       -33.4704  -23.2292   19.5706  O     
22   H       -29.2167  -27.2677   19.4377  H     
23   H       -32.0100  -27.5497   19.2390  H     
24   H       -31.0227  -26.9543   20.5792  H     
25   H       -31.6760  -24.8977   19.7836  H     
26   H       -32.0627  -26.2427   17.0681  H     
27   H       -33.7815  -26.2507   18.4883  H     
28   H       -31.7599  -24.2659   15.9786  H     
29   H       -30.0475  -23.0439   17.9172  H     
30   H       -26.7338  -23.1099   14.8593  H     
31   H       -28.3309  -26.7916   14.5127  H     
32   H       -29.9043  -26.2305   16.1076  H     
@<TRIPOS>BOND
     1    1    2 1
     2    3    2 1
     3    3    4 1
     4    3    9 1
     5    4    5 1
     6    4    6 1
     7    6    7 1
     8    6    8 1
     9    7   18 1
    10    8    9 1
    11    8   10 1
    12   10   11 1
    13   10   17 1
    14   11   12 2
    15   11   13 1
    16   13   14 1
    17   14   15 2
    18   14   16 1
    19   16   17 2
    20   18   19 1
    21   18   20 1
    22   18   21 2
    23    1   22 1
    24    2   23 1
    25    2   24 1
    26    3   25 1
    27    4   26 1
    28    5   27 1
    29    6   28 1
    30    8   29 1
    31   13   30 1
    32   16   31 1
    33   17   32 1
@<TRIPOS>PROPERTY_DATA
  Total_Score	| 2.8651
  Crash		| -0.6221
  Polar		| 1.3946
  FragIndex	| 1
  FragRMSD	| 1.355

