@<TRIPOS>MOLECULE
BindingDB_50331792
 29 30 0 0 0
SMALL
NO_CHARGES


@<TRIPOS>ATOM
1    O       -27.7446  -31.3604   19.3328  O     
2    C       -27.2118  -31.9799   18.1567  C     
3    C       -25.6715  -31.9456   18.1348  C     
4    C       -27.5536  -33.4910   18.0929  C     
5    C       -25.2771  -33.4125   18.4017  C     
6    O       -26.3299  -34.1759   17.7920  O     
7    C       -28.5710  -33.8402   17.0854  C     
8    O       -28.2976  -33.7287   15.7661  O     
9    N       -23.9514  -33.7531   17.9039  N     
10   C       -22.8948  -33.9012   18.7300  C     
11   N       -21.6994  -34.2186   18.2389  N     
12   C       -21.5021  -34.3914   16.9340  C     
13   C       -22.5436  -34.2509   16.0447  C     
14   C       -23.7523  -33.9322   16.5644  C     
15   O       -22.9547  -33.7371   19.9412  O     
16   O       -20.3698  -34.6961   16.5841  O     
17   C       -22.4109  -34.4680   14.6057  C     
18   O       -29.7933  -34.2854   17.4591  O     
19   H       -27.0880  -31.5161   20.0479  H     
20   H       -27.6029  -31.4330   17.2921  H     
21   H       -25.3179  -31.6224   17.1491  H     
22   H       -25.2632  -31.2735   18.8966  H     
23   H       -27.8970  -33.8280   19.0740  H     
24   H       -25.3538  -33.6006   19.4811  H     
25   H       -20.9476  -34.3212   18.8524  H     
26   H       -24.5229  -33.8208   15.9420  H     
27   H       -22.6790  -33.5561   14.0666  H     
28   H       -23.0797  -35.2722   14.2887  H     
29   H       -21.3987  -34.7447   14.3036  H     
@<TRIPOS>BOND
     1    2    1 1
     2    2    3 1
     3    2    4 1
     4    3    5 1
     5    4    6 1
     6    4    7 1
     7    5    6 1
     8    5    9 1
     9    7    8 1
    10    7   18 2
    11    9   10 1
    12    9   14 1
    13   10   11 1
    14   10   15 2
    15   11   12 1
    16   12   13 1
    17   12   16 2
    18   13   14 2
    19   13   17 1
    20    1   19 1
    21    2   20 1
    22    3   21 1
    23    3   22 1
    24    4   23 1
    25    5   24 1
    26   11   25 1
    27   14   26 1
    28   17   27 1
    29   17   28 1
    30   17   29 1
@<TRIPOS>PROPERTY_DATA
  Total_Score	| 4.2201
  Crash		| -0.5982
  Polar		| 4.2646
  FragIndex	| 1
  FragRMSD	| 0.340

