@<TRIPOS>MOLECULE
BindingDB_50292716
 43 45 0 0 0
SMALL
NO_CHARGES


@<TRIPOS>ATOM
1    C       -28.3115  -25.8269   14.8214  C     
2    C       -29.2104  -25.6240   15.8090  C     
3    N       -29.3124  -24.4428   16.5014  N     
4    C       -28.4135  -23.4766   16.2094  C     
5    N       -27.4908  -23.6802   15.2774  N     
6    C       -27.4043  -24.8174   14.5923  C     
7    O       -26.4912  -24.9144   13.7885  O     
8    O       -28.3436  -22.3985   16.7935  O     
9    C       -30.3000  -24.2907   17.5751  C     
10   O       -29.9369  -25.1470   18.6615  O     
11   C       -31.1098  -25.7262   19.2533  C     
12   C       -32.3497  -25.1112   18.5470  C     
13   C       -31.7812  -24.5896   17.2194  C     
14   O       -32.8847  -24.0235   19.3074  O     
15   C       -31.0057  -27.2718   19.1232  C     
16   N       -29.7984  -27.8012   19.8328  N     
17   C       -29.2616  -29.0717   19.2975  C     
18   C       -28.2407  -29.5489   20.3499  C     
19   C       -28.6068  -28.7904   21.6419  C     
20   C       -29.8878  -28.0148   21.3010  C     
21   C       -28.3627  -27.0455   14.0103  C     
22   H       -29.8262  -26.3763   16.0205  H     
23   H       -26.8348  -22.9884   15.0965  H     
24   H       -30.2931  -23.2743   17.9853  H     
25   H       -31.1367  -25.4693   20.3206  H     
26   H       -33.1471  -25.8476   18.3774  H     
27   H       -32.2952  -23.6860   16.8722  H     
28   H       -31.8889  -25.3637   16.4578  H     
29   H       -33.1649  -24.4178   20.1635  H     
30   H       -31.9184  -27.7497   19.4931  H     
31   H       -30.9277  -27.4939   18.0573  H     
32   H       -29.0657  -27.1010   19.7237  H     
33   H       -30.0565  -29.8146   19.1819  H     
34   H       -28.7794  -28.9059   18.3269  H     
35   H       -28.3087  -30.6331   20.4930  H     
36   H       -27.2257  -29.2958   20.0337  H     
37   H       -28.7608  -29.4789   22.4824  H     
38   H       -27.8067  -28.0906   21.9084  H     
39   H       -29.9346  -27.0712   21.8478  H     
40   H       -30.7663  -28.6083   21.5620  H     
41   H       -28.3413  -27.9292   14.6505  H     
42   H       -27.5294  -27.1167   13.3071  H     
43   H       -29.2930  -27.0558   13.4376  H     
@<TRIPOS>BOND
     1    1    2 2
     2    1    6 1
     3    1   21 1
     4    2    3 1
     5    3    4 1
     6    9    3 1
     7    4    5 1
     8    4    8 2
     9    5    6 1
    10    6    7 2
    11    9   10 1
    12    9   13 1
    13   10   11 1
    14   11   12 1
    15   11   15 1
    16   12   13 1
    17   12   14 1
    18   15   16 1
    19   16   17 1
    20   16   20 1
    21   17   18 1
    22   18   19 1
    23   19   20 1
    24    2   22 1
    25    5   23 1
    26    9   24 1
    27   11   25 1
    28   12   26 1
    29   13   27 1
    30   13   28 1
    31   14   29 1
    32   15   30 1
    33   15   31 1
    34   16   32 1
    35   17   33 1
    36   17   34 1
    37   18   35 1
    38   18   36 1
    39   19   37 1
    40   19   38 1
    41   20   39 1
    42   20   40 1
    43   21   41 1
    44   21   42 1
    45   21   43 1
@<TRIPOS>PROPERTY_DATA
  Total_Score	| 4.8228
  Crash		| -2.0868
  Polar		| 0.7834
  FragIndex	| 1
  FragRMSD	| 1.363

