@<TRIPOS>MOLECULE
BindingDB_50292721
 74 78 0 0 0
SMALL
NO_CHARGES


@<TRIPOS>ATOM
1    C       -22.3085  -34.6137   14.6182  C     
2    C       -22.4852  -34.3341   16.0418  C     
3    C       -23.7071  -33.9893   16.5136  C     
4    N       -23.9462  -33.7940   17.8453  N     
5    C       -22.9123  -33.9098   18.7032  C     
6    O       -23.0132  -33.7298   19.9089  O     
7    N       -21.6984  -34.2159   18.2536  N     
8    C       -21.4660  -34.4330   16.9634  C     
9    O       -20.3172  -34.7110   16.6504  O     
10   C       -25.3062  -33.5525   18.3128  C     
11   C       -25.7715  -32.0728   18.2447  C     
12   C       -27.2873  -32.1411   17.9141  C     
13   C       -27.5521  -33.6629   17.8507  C     
14   O       -26.2885  -34.2608   17.5408  O     
15   C       -28.6349  -34.0844   16.8290  C     
16   O       -29.9085  -34.1493   17.5088  O     
17   P       -31.1649  -34.1609   16.5906  P     
18   O       -32.3175  -33.8303   17.3904  O     
19   O       -31.0568  -33.0700   15.5099  O     
20   O       -31.4065  -35.5432   15.9315  O     
21   O       -28.1379  -31.5681   18.9299  O     
22   P       -28.5832  -30.0935   18.8145  P     
23   O       -27.4625  -29.2366   19.1058  O     
24   O       -29.1858  -29.9184   17.3964  O     
25   P       -30.4155  -28.9538   17.2142  P     
26   O       -30.8545  -29.2255   15.8683  O     
27   O       -31.5821  -29.4192   18.1222  O     
28   O       -30.0373  -27.4473   17.4840  O     
29   C       -30.1801  -26.4651   16.4322  C     
30   C       -31.1749  -25.3235   16.7872  C     
31   C       -30.5773  -24.1895   17.6516  C     
32   C       -31.8307  -23.5337   18.2629  C     
33   C       -32.8917  -24.6685   18.2065  C     
34   O       -32.2753  -25.8067   17.5721  O     
35   N       -33.4077  -25.0012   19.5064  N     
36   C       -32.9061  -25.9016   20.3816  C     
37   N       -33.6345  -25.9384   21.5127  N     
38   C       -34.6179  -25.0422   21.3585  C     
39   C       -34.4733  -24.4419   20.1088  C     
40   N       -35.3338  -23.4721   19.7022  N     
41   C       -36.3501  -23.0831   20.5177  C     
42   N       -36.5115  -23.6654   21.7409  N     
43   C       -35.6752  -24.6409   22.1915  C     
44   N       -35.8561  -25.2027   23.4008  N     
45   O       -32.2947  -22.3952   17.5316  O     
46   O       -29.6089  -23.2549   17.1256  O     
47   P       -29.4690  -22.8867   15.6175  P     
48   O       -29.0160  -24.0099   14.8340  O     
49   O       -30.7400  -22.2880   14.9759  O     
50   O       -28.3672  -21.8214   15.5143  O     
51   O       -29.6384  -29.9673   19.9225  O     
52   H       -22.9505  -35.4487   14.3234  H     
53   H       -21.2815  -34.8801   14.3592  H     
54   H       -22.5832  -33.7349   14.0283  H     
55   H       -24.4566  -33.9013   15.8668  H     
56   H       -20.9659  -34.2996   18.8868  H     
57   H       -25.4292  -33.8937   19.3478  H     
58   H       -25.5803  -31.5560   19.1951  H     
59   H       -25.2321  -31.5345   17.4457  H     
60   H       -27.4495  -31.6989   16.9204  H     
61   H       -27.8581  -34.0336   18.8306  H     
62   H       -28.6264  -33.3724   15.9894  H     
63   H       -28.3947  -35.0832   16.4366  H     
64   H       -29.1894  -26.0248   16.3059  H     
65   H       -30.4423  -26.8897   15.4581  H     
66   H       -31.5804  -24.9086   15.8588  H     
67   H       -30.0589  -24.6767   18.4831  H     
68   H       -31.6283  -23.2136   19.2931  H     
69   H       -33.7293  -24.3766   17.5609  H     
70   H       -32.0765  -26.4806   20.2251  H     
71   H       -36.9973  -22.3554   20.2113  H     
72   H       -36.5770  -24.9118   23.9801  H     
73   H       -35.2566  -25.9038   23.6981  H     
74   H       -31.5432  -21.7646   17.4926  H     
@<TRIPOS>BOND
     1    1    2 1
     2    2    3 2
     3    2    8 1
     4    3    4 1
     5    4    5 1
     6   10    4 1
     7    5    6 2
     8    5    7 1
     9    7    8 1
    10    8    9 2
    11   10   11 1
    12   10   14 1
    13   11   12 1
    14   12   13 1
    15   12   21 1
    16   13   14 1
    17   13   15 1
    18   15   16 1
    19   16   17 1
    20   17   18 2
    21   17   19 1
    22   17   20 1
    23   21   22 1
    24   22   23 2
    25   22   24 1
    26   22   51 1
    27   24   25 1
    28   25   26 2
    29   25   27 1
    30   25   28 1
    31   28   29 1
    32   30   29 1
    33   30   31 1
    34   30   34 1
    35   31   32 1
    36   31   46 1
    37   32   33 1
    38   32   45 1
    39   33   34 1
    40   33   35 1
    41   35   36 1
    42   35   39 1
    43   36   37 2
    44   37   38 1
    45   38   39 2
    46   38   43 1
    47   39   40 1
    48   40   41 2
    49   41   42 1
    50   42   43 2
    51   43   44 1
    52   46   47 1
    53   47   48 2
    54   47   49 1
    55   47   50 1
    56    1   52 1
    57    1   53 1
    58    1   54 1
    59    3   55 1
    60    7   56 1
    61   10   57 1
    62   11   58 1
    63   11   59 1
    64   12   60 1
    65   13   61 1
    66   15   62 1
    67   15   63 1
    68   29   64 1
    69   29   65 1
    70   30   66 1
    71   31   67 1
    72   32   68 1
    73   33   69 1
    74   36   70 1
    75   41   71 1
    76   44   72 1
    77   44   73 1
    78   45   74 1
@<TRIPOS>PROPERTY_DATA
  Total_Score	| 13.4806
  Crash		| -1.5256
  Polar		| 12.3637
  FragIndex	| 1
  FragRMSD	| 0.762

