@<TRIPOS>MOLECULE
BindingDB_50381080
 77 80 0 0 0
SMALL
NO_CHARGES


@<TRIPOS>ATOM
1    O        33.5746    3.0160    7.8225  O     
2    C        32.7708    4.1624    7.4587  C     
3    C        33.2230    4.7806    6.1062  C     
4    O        34.5759    5.2273    6.1744  O     
5    C        32.2689    5.9617    5.7485  C     
6    O        32.4612    6.9928    6.7288  O     
7    C        30.7891    5.4565    5.6897  C     
8    O        30.6245    4.6122    4.5304  O     
9    C        30.3890    4.6196    6.9524  C     
10   O        31.4086    3.6773    7.3288  O     
11   C        29.8967    5.4979    8.1427  C     
12   C        33.5197    3.0253   10.2120  C     
13   C        34.1991    3.0187    9.0263  C     
14   C        35.5681    2.9276    9.0475  C     
15   O        36.1698    2.9887    7.9810  O     
16   C        36.2877    2.7443   10.2415  C     
17   C        37.6909    2.5226   10.3489  C     
18   O        38.4903    2.5097    9.2491  O     
19   C        38.2865    2.3267   11.6174  C     
20   C        37.5065    2.3628   12.7884  C     
21   O        38.0629    2.1985   14.0151  O     
22   C        36.1270    2.5948   12.6930  C     
23   C        35.5230    2.7728   11.4350  C     
24   O        34.1737    3.0131   11.3998  O     
25   C        32.1262    3.0683   10.3278  C     
26   C        31.2782    2.2884    9.5143  C     
27   C        29.8799    2.3880    9.6156  C     
28   C        29.2870    3.2303   10.5765  C     
29   O        27.9288    3.3055   10.6389  O     
30   C        30.1159    3.9833   11.4308  C     
31   C        31.5183    3.9058   11.3019  C     
32   C        31.9493    8.2384    6.8235  C     
33   N        32.1798    9.0083    7.9056  N     
34   O        31.1309    8.7263    5.8656  O     
35   C        29.9271    4.8757    3.3915  C     
36   N        29.8011    3.9632    2.4036  N     
37   O        29.2785    6.0499    3.2243  O     
38   C        33.1513    8.7836    8.9301  C     
39   C        32.8514    7.6416    9.9421  C     
40   C        30.3866    2.6594    2.3737  C     
41   C        31.8789    2.6866    1.9765  C     
42   C        32.3318    1.3980    1.2483  C     
43   C        34.0876    7.1705   10.7535  C     
44   H        32.7898    4.9244    8.2423  H     
45   H        33.1730    4.0222    5.3153  H     
46   H        35.0976    4.5703    5.6774  H     
47   H        32.5449    6.3720    4.7660  H     
48   H        30.1344    6.3236    5.6001  H     
49   H        29.5270    4.0169    6.6673  H     
50   H        30.6716    6.1720    8.4650  H     
51   H        29.6044    4.8511    8.9738  H     
52   H        29.0141    6.0780    7.8249  H     
53   H        38.8092    1.5853    9.1537  H     
54   H        39.2954    2.1619   11.6889  H     
55   H        39.0196    2.3896   13.9127  H     
56   H        35.5554    2.6393   13.5402  H     
57   H        31.6776    1.6391    8.8238  H     
58   H        29.2908    1.8623    8.9665  H     
59   H        27.6907    3.6070   11.5414  H     
60   H        29.7116    4.5946   12.1326  H     
61   H        32.0971    4.4866   11.9161  H     
62   H        31.6773    9.8464    7.9528  H     
63   H        29.2333    4.2126    1.6572  H     
64   H        34.1222    8.5888    8.4678  H     
65   H        33.2353    9.7273    9.4754  H     
66   H        32.0896    7.9686   10.6512  H     
67   H        32.4788    6.7699    9.3758  H     
68   H        30.2534    2.1711    3.3410  H     
69   H        29.8276    2.0846    1.6287  H     
70   H        32.0596    3.5358    1.3103  H     
71   H        32.4900    2.8150    2.8725  H     
72   H        32.1250    0.5125    1.8570  H     
73   H        33.4050    1.4488    1.0533  H     
74   H        31.8078    1.3002    0.2907  H     
75   H        34.8882    6.8150   10.0973  H     
76   H        33.8006    6.3562   11.4197  H     
77   H        34.4629    8.0119   11.3474  H     
@<TRIPOS>BOND
     1    2    1 1
     2    1   13 1
     3    2    3 1
     4    2   10 1
     5    3    4 1
     6    3    5 1
     7    5    6 1
     8    5    7 1
     9    6   32 1
    10    7    8 1
    11    7    9 1
    12    8   35 1
    13    9   10 1
    14    9   11 1
    15   12   13 2
    16   12   24 1
    17   12   25 1
    18   13   14 1
    19   14   15 2
    20   14   16 1
    21   16   17 1
    22   16   23 2
    23   17   18 1
    24   17   19 2
    25   19   20 1
    26   20   21 1
    27   20   22 2
    28   22   23 1
    29   23   24 1
    30   25   26 1
    31   25   31 2
    32   26   27 2
    33   27   28 1
    34   28   29 1
    35   28   30 2
    36   30   31 1
    37   32   33 am
    38   32   34 2
    39   33   38 1
    40   35   36 am
    41   35   37 2
    42   36   40 1
    43   38   39 1
    44   39   43 1
    45   40   41 1
    46   41   42 1
    47    2   44 1
    48    3   45 1
    49    4   46 1
    50    5   47 1
    51    7   48 1
    52    9   49 1
    53   11   50 1
    54   11   51 1
    55   11   52 1
    56   18   53 1
    57   19   54 1
    58   21   55 1
    59   22   56 1
    60   26   57 1
    61   27   58 1
    62   29   59 1
    63   30   60 1
    64   31   61 1
    65   33   62 1
    66   36   63 1
    67   38   64 1
    68   38   65 1
    69   39   66 1
    70   39   67 1
    71   40   68 1
    72   40   69 1
    73   41   70 1
    74   41   71 1
    75   42   72 1
    76   42   73 1
    77   42   74 1
    78   43   75 1
    79   43   76 1
    80   43   77 1
@<TRIPOS>PROPERTY_DATA
  Total_Score	| 9.9601
  Crash		| -3.3065
  Polar		| 3.2773
  FragIndex	| 1
  FragRMSD	| 1.346

