@<TRIPOS>MOLECULE
BindingDB_50381081
 83 86 0 0 0
SMALL
NO_CHARGES


@<TRIPOS>ATOM
1    O        33.6414    3.3500    7.6396  O     
2    C        33.1602    4.5871    7.0634  C     
3    C        32.2181    4.2129    5.8842  C     
4    O        32.9316    3.5549    4.8384  O     
5    C        31.4578    5.4228    5.2752  C     
6    O        32.2798    6.1698    4.3503  O     
7    C        30.8169    6.3266    6.3835  C     
8    O        29.5809    5.8144    6.9249  O     
9    C        31.8131    6.5958    7.5569  C     
10   O        32.4271    5.3744    8.0304  O     
11   C        32.8644    7.6949    7.2447  C     
12   C        33.5570    3.2923   10.0044  C     
13   C        34.2618    3.3565    8.8419  C     
14   C        35.6303    3.2134    8.8757  C     
15   O        36.2558    3.4010    7.8399  O     
16   C        36.3142    2.8775   10.0555  C     
17   C        37.6977    2.5568   10.1493  C     
18   O        38.4936    2.5436    9.0439  O     
19   C        38.2678    2.2362   11.4017  C     
20   C        37.4811    2.2283   12.5694  C     
21   O        38.0167    1.9274   13.7821  O     
22   C        36.1124    2.5419   12.4820  C     
23   C        35.5344    2.8646   11.2389  C     
24   O        34.2019    3.2101   11.2008  O     
25   C        32.1554    3.3168   10.1057  C     
26   C        31.5206    4.1782   11.0426  C     
27   C        30.1208    4.1905   11.1976  C     
28   C        29.3162    3.3581   10.3957  C     
29   O        27.9668    3.3231   10.5276  O     
30   C        29.9212    2.5165    9.4506  C     
31   C        31.3206    2.4664    9.3361  C     
32   C        31.8520    7.2082    3.5707  C     
33   N        32.6350    7.8437    2.6745  N     
34   O        30.5685    7.6373    3.6294  O     
35   C        28.4261    5.4756    6.2793  C     
36   N        27.2765    5.2296    6.9454  N     
37   O        28.3354    5.4714    4.9310  O     
38   C        33.9513    7.4645    2.2527  C     
39   C        33.8796    6.0876    1.5116  C     
40   C        27.0343    5.5249    8.3275  C     
41   C        26.6719    7.0345    8.4902  C     
42   C        25.8033    7.3540    9.7252  C     
43   C        35.0204    5.7595    0.5166  C     
44   C        34.5039    8.6192    1.3750  C     
45   C        25.8964    4.6042    8.8430  C     
46   H        34.0191    5.1479    6.6867  H     
47   H        31.4649    3.5143    6.2647  H     
48   H        32.4153    2.7492    4.6350  H     
49   H        30.6671    4.9859    4.6622  H     
50   H        30.5494    7.2932    5.9517  H     
51   H        31.2324    6.9765    8.4030  H     
52   H        33.4452    7.4451    6.3566  H     
53   H        33.5481    7.8057    8.0893  H     
54   H        32.3702    8.6536    7.0735  H     
55   H        39.3793    2.8602    9.3202  H     
56   H        39.2633    2.0066   11.4656  H     
57   H        38.9544    2.2173   13.7542  H     
58   H        35.5379    2.5478   13.3280  H     
59   H        32.0740    4.8079   11.6311  H     
60   H        29.6890    4.7978   11.9004  H     
61   H        27.7870    3.3743   11.4914  H     
62   H        29.3409    1.9174    8.8614  H     
63   H        31.7183    1.7750    8.6987  H     
64   H        32.2326    8.6002    2.2174  H     
65   H        26.5127    4.9584    6.4090  H     
66   H        34.6009    7.3819    3.1311  H     
67   H        33.8534    5.2942    2.2663  H     
68   H        32.9437    6.0375    0.9466  H     
69   H        27.9391    5.3027    8.9013  H     
70   H        27.5927    7.6143    8.5874  H     
71   H        26.1540    7.3875    7.5921  H     
72   H        26.1778    6.8104   10.5954  H     
73   H        24.7581    7.0834    9.5515  H     
74   H        25.8526    8.4212    9.9394  H     
75   H        35.0010    6.4466   -0.3300  H     
76   H        34.8921    4.7452    0.1316  H     
77   H        35.9923    5.8252    1.0000  H     
78   H        33.9557    8.6809    0.4316  H     
79   H        35.5634    8.4636    1.1603  H     
80   H        34.4050    9.5750    1.8967  H     
81   H        25.0001    4.7287    8.2303  H     
82   H        25.6431    4.8368    9.8798  H     
83   H        26.2099    3.5585    8.7949  H     
@<TRIPOS>BOND
     1    2    1 1
     2    1   13 1
     3    2    3 1
     4    2   10 1
     5    3    4 1
     6    3    5 1
     7    5    6 1
     8    5    7 1
     9    6   32 1
    10    7    8 1
    11    7    9 1
    12    8   35 1
    13    9   10 1
    14    9   11 1
    15   12   13 2
    16   12   24 1
    17   12   25 1
    18   13   14 1
    19   14   15 2
    20   14   16 1
    21   16   17 1
    22   16   23 2
    23   17   18 1
    24   17   19 2
    25   19   20 1
    26   20   21 1
    27   20   22 2
    28   22   23 1
    29   23   24 1
    30   25   26 1
    31   25   31 2
    32   26   27 2
    33   27   28 1
    34   28   29 1
    35   28   30 2
    36   30   31 1
    37   32   33 am
    38   32   34 2
    39   33   38 1
    40   35   36 am
    41   35   37 2
    42   36   40 1
    43   38   39 1
    44   38   44 1
    45   39   43 1
    46   40   41 1
    47   40   45 1
    48   41   42 1
    49    2   46 1
    50    3   47 1
    51    4   48 1
    52    5   49 1
    53    7   50 1
    54    9   51 1
    55   11   52 1
    56   11   53 1
    57   11   54 1
    58   18   55 1
    59   19   56 1
    60   21   57 1
    61   22   58 1
    62   26   59 1
    63   27   60 1
    64   29   61 1
    65   30   62 1
    66   31   63 1
    67   33   64 1
    68   36   65 1
    69   38   66 1
    70   39   67 1
    71   39   68 1
    72   40   69 1
    73   41   70 1
    74   41   71 1
    75   42   72 1
    76   42   73 1
    77   42   74 1
    78   43   75 1
    79   43   76 1
    80   43   77 1
    81   44   78 1
    82   44   79 1
    83   44   80 1
    84   45   81 1
    85   45   82 1
    86   45   83 1
@<TRIPOS>PROPERTY_DATA
  Total_Score	| 10.0873
  Crash		| -2.0598
  Polar		| 3.4684
  FragIndex	| 1
  FragRMSD	| 0.178

