@<TRIPOS>MOLECULE
BindingDB_50241294
 61 64 0 0 0
SMALL
NO_CHARGES


@<TRIPOS>ATOM
1    O        33.6298    3.8378    7.9463  O     
2    C        33.9343    5.1372    7.3826  C     
3    C        33.0130    5.3876    6.1614  C     
4    O        33.5118    6.5119    5.4238  O     
5    C        31.5545    5.6371    6.6383  C     
6    O        30.7446    5.9349    5.4838  O     
7    C        31.4843    6.8078    7.6618  C     
8    O        30.1817    6.8772    8.2556  O     
9    C        32.5385    6.6026    8.7930  C     
10   O        33.8511    6.2474    8.3023  O     
11   C        32.7194    7.8767    9.6603  C     
12   C        33.5892    3.2012   10.1971  C     
13   C        34.2851    3.4343    9.0541  C     
14   C        35.6325    3.1590    9.0183  C     
15   O        36.1870    3.1205    7.9270  O     
16   C        36.3411    2.8110   10.1700  C     
17   C        37.7387    2.5662   10.2237  C     
18   O        38.5316    2.6831    9.1217  O     
19   C        38.3531    2.2231   11.4451  C     
20   C        37.5874    2.1250   12.6227  C     
21   O        38.1512    1.8172   13.8183  O     
22   C        36.2021    2.3543   12.5744  C     
23   C        35.5849    2.6992   11.3620  C     
24   O        34.2328    2.9171   11.3599  O     
25   C        32.2001    3.2387   10.3028  C     
26   C        31.3578    2.4753    9.4498  C     
27   C        29.9581    2.5630    9.5499  C     
28   C        29.3633    3.4040   10.5095  C     
29   O        28.0137    3.4814   10.5796  O     
30   C        30.1852    4.1402   11.3833  C     
31   C        31.5832    4.0507   11.2902  C     
32   C        29.0298    7.3445    7.7049  C     
33   O        28.9958    7.8314    6.4420  O     
34   C        27.7884    7.2862    8.4925  C     
35   C        29.8106    5.1494    4.8850  C     
36   C        29.1292    5.6561    3.6871  C     
37   O        29.4932    3.9256    5.3773  O     
38   H        34.9610    5.1210    7.0064  H     
39   H        33.0401    4.5121    5.5045  H     
40   H        32.9450    6.5650    4.6213  H     
41   H        31.1964    4.7265    7.1288  H     
42   H        31.7058    7.7458    7.1397  H     
43   H        32.1828    5.8153    9.4558  H     
44   H        33.0917    8.7072    9.0476  H     
45   H        33.4466    7.6889   10.4581  H     
46   H        31.7742    8.1768   10.1216  H     
47   H        38.7939    1.7656    8.8866  H     
48   H        39.3621    2.0598   11.4794  H     
49   H        39.0930    2.0887   13.7508  H     
50   H        35.6439    2.2880   13.4293  H     
51   H        31.7597    1.8442    8.7506  H     
52   H        29.3708    2.0119    8.9147  H     
53   H        27.8023    3.8060   11.4751  H     
54   H        29.7633    4.7617   12.0822  H     
55   H        32.1517    4.6169   11.9296  H     
56   H        27.7451    6.3537    9.0630  H     
57   H        26.9074    7.3336    7.8415  H     
58   H        27.7507    8.1287    9.1886  H     
59   H        28.6105    6.5881    3.9219  H     
60   H        28.4058    4.9275    3.3190  H     
61   H        29.8675    5.8391    2.9053  H     
@<TRIPOS>BOND
     1    2    1 1
     2    1   13 1
     3    2    3 1
     4    2   10 1
     5    3    4 1
     6    3    5 1
     7    5    6 1
     8    5    7 1
     9    6   35 1
    10    7    8 1
    11    7    9 1
    12    8   32 1
    13    9   10 1
    14    9   11 1
    15   12   13 2
    16   12   24 1
    17   12   25 1
    18   13   14 1
    19   14   15 2
    20   14   16 1
    21   16   17 1
    22   16   23 2
    23   17   18 1
    24   17   19 2
    25   19   20 1
    26   20   21 1
    27   20   22 2
    28   22   23 1
    29   23   24 1
    30   25   26 1
    31   25   31 2
    32   26   27 2
    33   27   28 1
    34   28   29 1
    35   28   30 2
    36   30   31 1
    37   32   33 2
    38   32   34 1
    39   35   36 1
    40   35   37 2
    41    2   38 1
    42    3   39 1
    43    4   40 1
    44    5   41 1
    45    7   42 1
    46    9   43 1
    47   11   44 1
    48   11   45 1
    49   11   46 1
    50   18   47 1
    51   19   48 1
    52   21   49 1
    53   22   50 1
    54   26   51 1
    55   27   52 1
    56   29   53 1
    57   30   54 1
    58   31   55 1
    59   34   56 1
    60   34   57 1
    61   34   58 1
    62   36   59 1
    63   36   60 1
    64   36   61 1
@<TRIPOS>PROPERTY_DATA
  Total_Score	| 9.1967
  Crash		| -0.9782
  Polar		| 2.3097
  FragIndex	| 1
  FragRMSD	| 0.125

