@<TRIPOS>MOLECULE
BindingDB_50381083
 79 84 0 0 0
SMALL
NO_CHARGES


@<TRIPOS>ATOM
1    O        33.6261    3.1253    7.6766  O     
2    C        33.3191    4.4430    7.1602  C     
3    C        32.2223    4.2630    6.0869  C     
4    O        32.7470    3.4870    4.9948  O     
5    C        31.6455    5.6298    5.5668  C     
6    O        32.4611    6.1788    4.5028  O     
7    C        31.4556    6.7150    6.6768  C     
8    O        30.1208    6.7491    7.2116  O     
9    C        32.5246    6.6595    7.8166  C     
10   O        32.8247    5.3010    8.2102  O     
11   C        33.8215    7.4627    7.5326  C     
12   C        33.6356    2.9935   10.0184  C     
13   C        34.3093    3.0761    8.8422  C     
14   C        35.6822    3.0525    8.8348  C     
15   O        36.2642    3.2097    7.7734  O     
16   C        36.4176    2.8209   10.0063  C     
17   C        37.8319    2.6747   10.0897  C     
18   O        38.6425    2.7862    9.0096  O     
19   C        38.4407    2.3702   11.3290  C     
20   C        37.6631    2.2364   12.4959  C     
21   O        38.2275    1.9484   13.7001  O     
22   C        36.2686    2.4064   12.4294  C     
23   C        35.6604    2.7156   11.1971  C     
24   O        34.3023    2.9286   11.1952  O     
25   C        32.2462    3.0100   10.1645  C     
26   C        31.3892    2.3215    9.2684  C     
27   C        30.0004    2.2828    9.4908  C     
28   C        29.4315    2.9687   10.5741  C     
29   O        28.1093    2.8267   10.7918  O     
30   C        30.2600    3.6670   11.4717  C     
31   C        31.6557    3.6840   11.2669  C     
32   C        32.5691    5.6812    3.2332  C     
33   N        33.3985    6.2613    2.3239  N     
34   O        31.8693    4.5690    2.8879  O     
35   C        29.4163    5.8805    7.9877  C     
36   N        28.1398    6.1732    8.3847  N     
37   O        29.9975    4.7355    8.3778  O     
38   C        27.3293    5.2880    9.1594  C     
39   C        26.1480    6.1523    9.6376  C     
40   C        26.0541    7.2428    8.5709  C     
41   C        27.5121    7.4171    8.0990  C     
42   C        33.6744    5.6887    1.0457  C     
43   C        34.9567    6.3952    0.5710  C     
44   C        34.9308    7.7484    1.2948  C     
45   C        34.0492    7.5063    2.5403  C     
46   H        34.2243    4.8469    6.7031  H     
47   H        31.4206    3.6666    6.5100  H     
48   H        32.2106    2.6590    5.0040  H     
49   H        30.6479    5.4300    5.1554  H     
50   H        31.5483    7.6939    6.2033  H     
51   H        32.0867    7.1112    8.7121  H     
52   H        34.2349    7.1939    6.5571  H     
53   H        34.5752    7.2657    8.3023  H     
54   H        33.5991    8.5314    7.5280  H     
55   H        38.6781    3.7437    8.7944  H     
56   H        39.4639    2.2609   11.3781  H     
57   H        39.1027    2.3868   13.6955  H     
58   H        35.7016    2.3061   13.2739  H     
59   H        31.7753    1.7927    8.4862  H     
60   H        29.3980    1.7816    8.8350  H     
61   H        27.8965    3.3515   11.5972  H     
62   H        29.8625    4.1525   12.2756  H     
63   H        32.2350    4.2003   11.9393  H     
64   H        26.9897    4.4611    8.5374  H     
65   H        27.8604    4.8831   10.0251  H     
66   H        25.2261    5.5769    9.7015  H     
67   H        26.3742    6.5967   10.6075  H     
68   H        25.4247    6.9050    7.7394  H     
69   H        25.6349    8.1689    8.9730  H     
70   H        28.0109    8.2150    8.6532  H     
71   H        27.5318    7.6411    7.0244  H     
72   H        33.8537    4.6088    1.1082  H     
73   H        32.8466    5.8850    0.3572  H     
74   H        35.8390    5.8222    0.8815  H     
75   H        34.9730    6.5150   -0.5200  H     
76   H        35.9413    8.0731    1.5736  H     
77   H        34.4768    8.5094    0.6461  H     
78   H        33.3044    8.3039    2.6271  H     
79   H        34.6606    7.4838    3.4450  H     
@<TRIPOS>BOND
     1    2    1 1
     2    1   13 1
     3    2    3 1
     4    2   10 1
     5    3    4 1
     6    3    5 1
     7    5    6 1
     8    5    7 1
     9    6   32 1
    10    7    8 1
    11    7    9 1
    12    8   35 1
    13    9   10 1
    14    9   11 1
    15   12   13 2
    16   12   24 1
    17   12   25 1
    18   13   14 1
    19   14   15 2
    20   14   16 1
    21   16   17 1
    22   16   23 2
    23   17   18 1
    24   17   19 2
    25   19   20 1
    26   20   21 1
    27   20   22 2
    28   22   23 1
    29   23   24 1
    30   25   26 1
    31   25   31 2
    32   26   27 2
    33   27   28 1
    34   28   29 1
    35   28   30 2
    36   30   31 1
    37   32   33 1
    38   32   34 2
    39   33   42 1
    40   33   45 1
    41   35   36 1
    42   35   37 2
    43   36   38 1
    44   36   41 1
    45   38   39 1
    46   39   40 1
    47   40   41 1
    48   42   43 1
    49   43   44 1
    50   44   45 1
    51    2   46 1
    52    3   47 1
    53    4   48 1
    54    5   49 1
    55    7   50 1
    56    9   51 1
    57   11   52 1
    58   11   53 1
    59   11   54 1
    60   18   55 1
    61   19   56 1
    62   21   57 1
    63   22   58 1
    64   26   59 1
    65   27   60 1
    66   29   61 1
    67   30   62 1
    68   31   63 1
    69   38   64 1
    70   38   65 1
    71   39   66 1
    72   39   67 1
    73   40   68 1
    74   40   69 1
    75   41   70 1
    76   41   71 1
    77   42   72 1
    78   42   73 1
    79   43   74 1
    80   43   75 1
    81   44   76 1
    82   44   77 1
    83   45   78 1
    84   45   79 1
@<TRIPOS>PROPERTY_DATA
  Total_Score	| 9.7261
  Crash		| -2.9238
  Polar		| 3.1574
  FragIndex	| 1
  FragRMSD	| 0.149

