@<TRIPOS>MOLECULE
BindingDB_50381084
 81 86 0 0 0
SMALL
NO_CHARGES


@<TRIPOS>ATOM
1    O        33.5255    3.3057    7.8763  O     
2    C        33.3420    4.6804    7.4371  C     
3    C        33.4215    4.7703    5.8862  C     
4    O        33.4920    6.1545    5.5149  O     
5    C        32.2012    4.0438    5.2421  C     
6    O        32.1007    4.0438    3.8090  O     
7    C        30.8689    4.6109    5.8008  C     
8    O        29.7566    3.9132    5.2143  O     
9    C        30.8707    4.6252    7.3590  C     
10   O        32.0792    5.2232    7.8941  O     
11   C        29.6661    5.4353    7.9090  C     
12   C        33.5165    3.0973   10.2295  C     
13   C        34.1797    3.1323    9.0473  C     
14   C        35.5452    2.9773    9.0314  C     
15   O        36.1137    3.0352    7.9485  O     
16   C        36.2774    2.7639   10.2095  C     
17   C        37.6796    2.5372   10.2823  C     
18   O        38.4845    2.5083    9.1848  O     
19   C        38.2964    2.3396   11.5342  C     
20   C        37.5381    2.3607   12.7230  C     
21   O        38.1203    2.1918   13.9414  O     
22   C        36.1523    2.5866   12.6562  C     
23   C        35.5275    2.7906   11.4146  C     
24   O        34.1784    3.0415   11.4098  O     
25   C        32.1353    3.1777   10.3415  C     
26   C        31.5314    4.0966   11.2450  C     
27   C        30.1288    4.1804   11.3532  C     
28   C        29.3090    3.3556   10.5560  C     
29   O        27.9535    3.3892   10.6338  O     
30   C        29.9036    2.4322    9.6722  C     
31   C        31.2988    2.3461    9.5649  C     
32   C        32.7824    4.5189    2.7376  C     
33   N        32.3153    4.3140    1.4728  N     
34   O        33.9121    5.2272    2.9475  O     
35   C        29.3788    2.6057    5.2114  C     
36   N        28.3269    2.1870    4.4394  N     
37   O        30.0991    1.7215    5.9560  O     
38   C        31.0713    3.6075    1.2159  C     
39   C        31.3291    2.4696    0.1987  C     
40   O        32.0047    2.9636   -0.9756  O     
41   C        33.2427    3.6447   -0.6948  C     
42   C        33.0199    4.8075    0.3050  C     
43   C        27.6244    3.0899    3.5399  C     
44   C        26.0923    2.9482    3.7427  C     
45   O        25.6956    1.5664    3.6387  O     
46   C        26.3797    0.7041    4.5760  C     
47   C        27.9187    0.7999    4.3917  C     
48   H        34.1223    5.3464    7.8314  H     
49   H        34.3443    4.2926    5.5460  H     
50   H        32.7467    6.6017    5.9693  H     
51   H        32.2679    2.9863    5.5125  H     
52   H        30.7804    5.6433    5.4488  H     
53   H        30.7842    3.6009    7.7290  H     
54   H        29.6463    6.4445    7.4784  H     
55   H        29.7308    5.5362    8.9918  H     
56   H        28.7228    4.9312    7.6689  H     
57   H        37.9034    2.3126    8.4275  H     
58   H        39.3059    2.1742   11.5793  H     
59   H        39.0672    2.4182   13.8366  H     
60   H        35.5942    2.6168   13.5126  H     
61   H        32.1024    4.7041   11.8329  H     
62   H        29.7166    4.8541   12.0055  H     
63   H        27.7320    3.2514   11.5908  H     
64   H        29.3121    1.8625    9.0683  H     
65   H        31.6953    1.6559    8.9204  H     
66   H        30.6190    3.1730    2.1100  H     
67   H        30.3431    4.3108    0.8017  H     
68   H        31.9231    1.6765    0.6616  H     
69   H        30.3724    2.0446   -0.1094  H     
70   H        33.9791    2.9357   -0.3015  H     
71   H        33.6277    4.0458   -1.6328  H     
72   H        32.4096    5.5769   -0.1781  H     
73   H        33.9871    5.2613    0.5303  H     
74   H        27.8886    4.1395    3.6650  H     
75   H        27.8588    2.8070    2.5113  H     
76   H        25.7973    3.3589    4.7174  H     
77   H        25.5732    3.5194    2.9615  H     
78   H        26.1026    0.9677    5.6072  H     
79   H        26.0647   -0.3204    4.3898  H     
80   H        28.1904    0.3868    3.4130  H     
81   H        28.3876    0.1777    5.1591  H     
@<TRIPOS>BOND
     1    2    1 1
     2    1   13 1
     3    2    3 1
     4    2   10 1
     5    3    4 1
     6    3    5 1
     7    5    6 1
     8    5    7 1
     9    6   32 1
    10    7    8 1
    11    7    9 1
    12    8   35 1
    13    9   10 1
    14    9   11 1
    15   12   13 2
    16   12   24 1
    17   12   25 1
    18   13   14 1
    19   14   15 2
    20   14   16 1
    21   16   17 1
    22   16   23 2
    23   17   18 1
    24   17   19 2
    25   19   20 1
    26   20   21 1
    27   20   22 2
    28   22   23 1
    29   23   24 1
    30   25   26 1
    31   25   31 2
    32   26   27 2
    33   27   28 1
    34   28   29 1
    35   28   30 2
    36   30   31 1
    37   32   33 1
    38   32   34 2
    39   33   38 1
    40   33   42 1
    41   35   36 1
    42   35   37 2
    43   36   43 1
    44   36   47 1
    45   38   39 1
    46   39   40 1
    47   40   41 1
    48   41   42 1
    49   43   44 1
    50   44   45 1
    51   45   46 1
    52   46   47 1
    53    2   48 1
    54    3   49 1
    55    4   50 1
    56    5   51 1
    57    7   52 1
    58    9   53 1
    59   11   54 1
    60   11   55 1
    61   11   56 1
    62   18   57 1
    63   19   58 1
    64   21   59 1
    65   22   60 1
    66   26   61 1
    67   27   62 1
    68   29   63 1
    69   30   64 1
    70   31   65 1
    71   38   66 1
    72   38   67 1
    73   39   68 1
    74   39   69 1
    75   41   70 1
    76   41   71 1
    77   42   72 1
    78   42   73 1
    79   43   74 1
    80   43   75 1
    81   44   76 1
    82   44   77 1
    83   46   78 1
    84   46   79 1
    85   47   80 1
    86   47   81 1
@<TRIPOS>PROPERTY_DATA
  Total_Score	| 9.5848
  Crash		| -1.3797
  Polar		| 4.1426
  FragIndex	| 1
  FragRMSD	| 0.234

