@<TRIPOS>MOLECULE
BindingDB_50381078
 67 70 0 0 0
SMALL
NO_CHARGES


@<TRIPOS>ATOM
1    O        33.5756    3.0308    7.8873  O     
2    C        32.9698    4.2910    7.4944  C     
3    C        33.6253    4.8786    6.2097  C     
4    O        35.0401    4.9810    6.2253  O     
5    C        32.9678    6.2765    5.9714  C     
6    O        33.0211    7.1768    7.1111  O     
7    C        31.4507    6.0341    5.6573  C     
8    O        31.2750    5.2331    4.4685  O     
9    C        30.7681    5.2269    6.8224  C     
10   O        31.5647    4.0645    7.2289  O     
11   C        30.3146    6.0891    8.0379  C     
12   C        33.5138    3.0441   10.2700  C     
13   C        34.1982    2.9936    9.0964  C     
14   C        35.5711    2.9011    9.1197  C     
15   O        36.1776    2.9208    8.0575  O     
16   C        36.2840    2.7429   10.3200  C     
17   C        37.6865    2.5082   10.4454  C     
18   O        38.5621    2.4652    9.4057  O     
19   C        38.2629    2.3348   11.7228  C     
20   C        37.4735    2.4165   12.8900  C     
21   O        38.0177    2.2631   14.1250  O     
22   C        36.0986    2.6648   12.7740  C     
23   C        35.5092    2.8186   11.5060  C     
24   O        34.1627    3.0849   11.4573  O     
25   C        32.1196    3.1347   10.3627  C     
26   C        31.5201    4.0044   11.3106  C     
27   C        30.1172    4.1268   11.4021  C     
28   C        29.2891    3.3994   10.5327  C     
29   O        27.9403    3.5418   10.5640  O     
30   C        29.8653    2.5179    9.5972  C     
31   C        31.2623    2.3671    9.5292  C     
32   C        34.2312    7.2870    7.8937  C     
33   C        33.8979    7.8086    9.2049  C     
34   C        34.4631    7.2180   10.4043  C     
35   O        33.1877    8.8144    9.3295  O     
36   C        31.7037    5.7678    3.1988  C     
37   C        32.0153    4.6704    2.3025  C     
38   C        32.9866    3.6569    2.6579  C     
39   O        31.4482    4.5919    1.2194  O     
40   H        33.0232    5.0213    8.3157  H     
41   H        33.3842    4.2011    5.3737  H     
42   H        35.3132    4.2413    5.6425  H     
43   H        33.4621    6.7596    5.1347  H     
44   H        30.9386    6.9889    5.5298  H     
45   H        29.8364    4.8066    6.4220  H     
46   H        31.1543    6.4450    8.6290  H     
47   H        29.6682    5.4997    8.6928  H     
48   H        29.7401    6.9482    7.6939  H     
49   H        38.0377    2.2914    8.5953  H     
50   H        39.2692    2.1559   11.8152  H     
51   H        38.9721    2.4610   14.0255  H     
52   H        35.5202    2.7495   13.6181  H     
53   H        32.1004    4.5774   11.9264  H     
54   H        29.7148    4.7716   12.0847  H     
55   H        27.6636    3.3237   11.4773  H     
56   H        29.2714    1.9954    8.9480  H     
57   H        31.6452    1.7145    8.8464  H     
58   H        34.7280    6.3234    8.0313  H     
59   H        34.9187    7.9947    7.3981  H     
60   H        34.1630    6.1747   10.4976  H     
61   H        34.1465    7.7501   11.3146  H     
62   H        35.5535    7.2518   10.3345  H     
63   H        30.9109    6.3972    2.7970  H     
64   H        32.6005    6.3751    3.2992  H     
65   H        33.9609    4.1275    2.8389  H     
66   H        33.1074    2.9163    1.8696  H     
67   H        32.6737    3.1394    3.5693  H     
@<TRIPOS>BOND
     1    2    1 1
     2    1   13 1
     3    2    3 1
     4    2   10 1
     5    3    4 1
     6    3    5 1
     7    5    6 1
     8    5    7 1
     9    6   32 1
    10    7    8 1
    11    7    9 1
    12    8   36 1
    13    9   10 1
    14    9   11 1
    15   12   13 2
    16   12   24 1
    17   12   25 1
    18   13   14 1
    19   14   15 2
    20   14   16 1
    21   16   17 1
    22   16   23 2
    23   17   18 1
    24   17   19 2
    25   19   20 1
    26   20   21 1
    27   20   22 2
    28   22   23 1
    29   23   24 1
    30   25   26 1
    31   25   31 2
    32   26   27 2
    33   27   28 1
    34   28   29 1
    35   28   30 2
    36   30   31 1
    37   32   33 1
    38   33   34 1
    39   33   35 2
    40   36   37 1
    41   37   38 1
    42   37   39 2
    43    2   40 1
    44    3   41 1
    45    4   42 1
    46    5   43 1
    47    7   44 1
    48    9   45 1
    49   11   46 1
    50   11   47 1
    51   11   48 1
    52   18   49 1
    53   19   50 1
    54   21   51 1
    55   22   52 1
    56   26   53 1
    57   27   54 1
    58   29   55 1
    59   30   56 1
    60   31   57 1
    61   32   58 1
    62   32   59 1
    63   34   60 1
    64   34   61 1
    65   34   62 1
    66   36   63 1
    67   36   64 1
    68   38   65 1
    69   38   66 1
    70   38   67 1
@<TRIPOS>PROPERTY_DATA
  Total_Score	| 11.6643
  Crash		| -1.8563
  Polar		| 3.4208
  FragIndex	| 1
  FragRMSD	| 0.274

