@<TRIPOS>MOLECULE
BindingDB_50381079
 71 74 0 0 0
SMALL
NO_CHARGES


@<TRIPOS>ATOM
1    O        33.6272    3.5180    7.7809  O     
2    C        32.9604    4.8072    7.6586  C     
3    C        33.5917    5.7058    6.5490  C     
4    O        33.1489    7.0414    6.7589  O     
5    C        33.2243    5.2098    5.1191  C     
6    O        33.6943    6.0877    4.0684  O     
7    C        31.7041    4.9024    4.9702  C     
8    O        31.4871    4.1986    3.7364  O     
9    C        31.1965    4.0297    6.1553  C     
10   O        31.5550    4.6184    7.4231  O     
11   C        29.6604    3.8544    6.1564  C     
12   C        33.5722    3.1228   10.1228  C     
13   C        34.2547    3.2400    8.9526  C     
14   C        35.6151    3.0574    8.9510  C     
15   O        36.2039    3.1178    7.8741  O     
16   C        36.3285    2.7898   10.1241  C     
17   C        37.7247    2.5311   10.2091  C     
18   O        38.5361    2.4833    9.1191  O     
19   C        38.3310    2.2947   11.4628  C     
20   C        37.5676    2.3294   12.6480  C     
21   O        38.1371    2.1448   13.8664  O     
22   C        36.1871    2.5621   12.5707  C     
23   C        35.5681    2.7802   11.3249  C     
24   O        34.2132    2.9959   11.3091  O     
25   C        32.1881    3.1996   10.2166  C     
26   C        31.3479    2.4126    9.3919  C     
27   C        29.9481    2.5235    9.4751  C     
28   C        29.3575    3.4175   10.3885  C     
29   O        28.0074    3.5292   10.4350  O     
30   C        30.1794    4.1986   11.2251  C     
31   C        31.5785    4.0843   11.1447  C     
32   C        33.0943    7.1615    3.4946  C     
33   N        33.6566    7.8710    2.4857  N     
34   O        31.8654    7.5564    3.8931  O     
35   C        30.8330    4.6032    2.6005  C     
36   N        30.6915    3.7878    1.5334  N     
37   O        30.3079    5.8544    2.5167  O     
38   C        34.9454    7.6302    1.9283  C     
39   C        35.2905    8.6496    0.8172  C     
40   C        31.1322    2.4320    1.4585  C     
41   C        32.6600    2.2415    1.6402  C     
42   H        33.0255    5.3712    8.6011  H     
43   H        34.6785    5.6893    6.6709  H     
44   H        33.9021    7.4990    7.2122  H     
45   H        33.7645    4.2598    4.9693  H     
46   H        31.1555    5.8430    4.9770  H     
47   H        31.6409    3.0281    6.0793  H     
48   H        29.1651    4.8170    6.2690  H     
49   H        29.3579    3.2110    6.9883  H     
50   H        29.3231    3.3867    5.2271  H     
51   H        38.6780    3.4140    8.8506  H     
52   H        39.3351    2.1056   11.5170  H     
53   H        39.0705    2.4247   13.7798  H     
54   H        35.6236    2.5821   13.4287  H     
55   H        31.7520    1.7434    8.7277  H     
56   H        29.3572    1.9593    8.8655  H     
57   H        27.7600    3.4797   11.3873  H     
58   H        29.7628    4.8606   11.8814  H     
59   H        32.1545    4.6791   11.7498  H     
60   H        33.1424    8.6150    2.1249  H     
61   H        30.1986    4.1308    0.7806  H     
62   H        35.7043    7.7073    2.7101  H     
63   H        34.9728    6.6238    1.5045  H     
64   H        34.5987    8.5496   -0.0200  H     
65   H        36.3045    8.4730    0.4525  H     
66   H        35.2355    9.6675    1.2043  H     
67   H        30.6022    1.8273    2.2055  H     
68   H        30.8628    2.0497    0.4755  H     
69   H        33.2016    2.8238    0.8923  H     
70   H        32.9153    1.1852    1.5148  H     
71   H        32.9758    2.5556    2.6340  H     
@<TRIPOS>BOND
     1    2    1 1
     2    1   13 1
     3    2    3 1
     4    2   10 1
     5    3    4 1
     6    3    5 1
     7    5    6 1
     8    5    7 1
     9    6   32 1
    10    7    8 1
    11    7    9 1
    12    8   35 1
    13    9   10 1
    14    9   11 1
    15   12   13 2
    16   12   24 1
    17   12   25 1
    18   13   14 1
    19   14   15 2
    20   14   16 1
    21   16   17 1
    22   16   23 2
    23   17   18 1
    24   17   19 2
    25   19   20 1
    26   20   21 1
    27   20   22 2
    28   22   23 1
    29   23   24 1
    30   25   26 1
    31   25   31 2
    32   26   27 2
    33   27   28 1
    34   28   29 1
    35   28   30 2
    36   30   31 1
    37   32   33 am
    38   32   34 2
    39   33   38 1
    40   35   36 am
    41   35   37 2
    42   36   40 1
    43   38   39 1
    44   40   41 1
    45    2   42 1
    46    3   43 1
    47    4   44 1
    48    5   45 1
    49    7   46 1
    50    9   47 1
    51   11   48 1
    52   11   49 1
    53   11   50 1
    54   18   51 1
    55   19   52 1
    56   21   53 1
    57   22   54 1
    58   26   55 1
    59   27   56 1
    60   29   57 1
    61   30   58 1
    62   31   59 1
    63   33   60 1
    64   36   61 1
    65   38   62 1
    66   38   63 1
    67   39   64 1
    68   39   65 1
    69   39   66 1
    70   40   67 1
    71   40   68 1
    72   41   69 1
    73   41   70 1
    74   41   71 1
@<TRIPOS>PROPERTY_DATA
  Total_Score	| 9.5220
  Crash		| -1.4133
  Polar		| 3.1170
  FragIndex	| 1
  FragRMSD	| 0.176

