@<TRIPOS>MOLECULE
BindingDB_50381082
 71 74 0 0 0
SMALL
NO_CHARGES


@<TRIPOS>ATOM
1    O        33.4905    2.8862    7.9505  O     
2    C        32.8343    4.0254    7.3447  C     
3    C        33.5776    4.4735    6.0650  C     
4    O        34.9445    4.7253    6.3389  O     
5    C        32.8419    5.7178    5.4720  C     
6    O        32.7130    6.7936    6.4191  O     
7    C        31.3959    5.2743    5.0851  C     
8    O        31.5411    4.4137    3.9439  O     
9    C        30.6618    4.6257    6.3146  C     
10   O        31.4929    3.6379    6.9814  O     
11   C        30.0476    5.6278    7.3315  C     
12   C        33.4428    3.2934   10.3024  C     
13   C        34.1205    3.1024    9.1375  C     
14   C        35.4923    3.0679    9.1569  C     
15   O        36.0876    2.9438    8.0979  O     
16   C        36.2232    3.1409   10.3420  C     
17   C        37.6286    2.9730   10.4566  C     
18   O        38.4007    2.7214    9.3626  O     
19   C        38.2447    3.0444   11.7267  C     
20   C        37.4806    3.2852   12.8860  C     
21   O        38.0505    3.3540   14.1136  O     
22   C        36.0933    3.4669   12.7775  C     
23   C        35.4713    3.3928   11.5192  C     
24   O        34.1039    3.5865   11.4544  O     
25   C        32.0525    3.2915   10.4034  C     
26   C        31.4071    4.1756   11.2983  C     
27   C        29.9989    4.2313   11.3721  C     
28   C        29.2137    3.4163   10.5263  C     
29   O        27.8589    3.4568   10.5688  O     
30   C        29.8373    2.5220    9.6535  C     
31   C        31.2464    2.4407    9.6077  C     
32   C        33.5498    7.2881    7.3672  C     
33   N        32.9723    7.9915    8.3665  N     
34   O        34.7780    6.7341    7.5264  O     
35   C        30.8389    3.4402    3.2972  C     
36   N        31.3862    2.7795    2.2338  N     
37   O        29.5769    3.1474    3.6839  O     
38   C        33.2971    7.7010    9.7444  C     
39   C        30.6686    1.6979    1.6024  C     
40   C        31.9206    8.9310    8.0904  C     
41   C        32.6780    3.1810    1.7281  C     
42   H        32.7779    4.8628    8.0398  H     
43   H        33.5569    3.6587    5.3371  H     
44   H        35.4446    4.0875    5.7861  H     
45   H        33.3838    6.0779    4.5904  H     
46   H        30.8294    6.1445    4.7400  H     
47   H        29.7953    4.0815    5.9495  H     
48   H        30.8032    6.0751    7.9777  H     
49   H        29.3267    5.1000    7.9732  H     
50   H        29.5118    6.4307    6.8130  H     
51   H        38.4284    3.5509    8.8357  H     
52   H        39.2588    2.9026   11.8155  H     
53   H        38.9938    3.0875   13.9897  H     
54   H        35.5302    3.6533   13.6059  H     
55   H        31.9499    4.8021   11.9035  H     
56   H        29.5499    4.8892   12.0167  H     
57   H        27.6109    3.3382   11.5072  H     
58   H        29.2807    1.9444    9.0202  H     
59   H        31.6691    1.7622    8.9733  H     
60   H        32.9729    6.6850    9.9762  H     
61   H        32.7896    8.3814   10.4332  H     
62   H        34.3670    7.7735    9.9321  H     
63   H        30.5523    0.8817    2.3208  H     
64   H        31.1763    1.2915    0.7249  H     
65   H        29.6772    2.0278    1.2790  H     
66   H        31.8044    9.1408    7.0155  H     
67   H        32.1551    9.8826    8.5760  H     
68   H        30.9650    8.5591    8.4783  H     
69   H        32.6387    4.2287    1.4122  H     
70   H        33.0056    2.5917    0.8687  H     
71   H        33.4296    3.0736    2.5124  H     
@<TRIPOS>BOND
     1    2    1 1
     2    1   13 1
     3    2    3 1
     4    2   10 1
     5    3    4 1
     6    3    5 1
     7    5    6 1
     8    5    7 1
     9    6   32 1
    10    7    8 1
    11    7    9 1
    12    8   35 1
    13    9   10 1
    14    9   11 1
    15   12   13 2
    16   12   24 1
    17   12   25 1
    18   13   14 1
    19   14   15 2
    20   14   16 1
    21   16   17 1
    22   16   23 2
    23   17   18 1
    24   17   19 2
    25   19   20 1
    26   20   21 1
    27   20   22 2
    28   22   23 1
    29   23   24 1
    30   25   26 1
    31   25   31 2
    32   26   27 2
    33   27   28 1
    34   28   29 1
    35   28   30 2
    36   30   31 1
    37   32   33 am
    38   32   34 2
    39   33   38 1
    40   33   40 1
    41   35   36 am
    42   35   37 2
    43   36   39 1
    44   36   41 1
    45    2   42 1
    46    3   43 1
    47    4   44 1
    48    5   45 1
    49    7   46 1
    50    9   47 1
    51   11   48 1
    52   11   49 1
    53   11   50 1
    54   18   51 1
    55   19   52 1
    56   21   53 1
    57   22   54 1
    58   26   55 1
    59   27   56 1
    60   29   57 1
    61   30   58 1
    62   31   59 1
    63   38   60 1
    64   38   61 1
    65   38   62 1
    66   39   63 1
    67   39   64 1
    68   39   65 1
    69   40   66 1
    70   40   67 1
    71   40   68 1
    72   41   69 1
    73   41   70 1
    74   41   71 1
@<TRIPOS>PROPERTY_DATA
  Total_Score	| 10.1435
  Crash		| -2.3427
  Polar		| 3.4913
  FragIndex	| 1
  FragRMSD	| 0.353

