@<TRIPOS>MOLECULE
BindingDB_50337336
 58 62 0 0 0
SMALL
NO_CHARGES


@<TRIPOS>ATOM
1    C        -6.5244   45.6371   -2.1662  C     
2    N         0.9998   45.9562   -0.4928  N     
3    C         1.4178   45.8101    0.9079  C     
4    C         0.3713   46.4116    1.9000  C     
5    N        -0.9703   46.0046    1.5218  N     
6    C        -1.3187   46.3193    0.1543  C     
7    C        -0.3583   45.4958   -0.7374  C     
8    C        -1.7449   45.1883    2.3037  C     
9    N        -2.9543   44.7463    1.8507  N     
10   N        -1.3615   44.7502    3.5390  N     
11   C        -3.7804   43.9081    2.5245  C     
12   N        -4.9634   43.4660    2.0262  N     
13   C        -3.3211   43.4866    3.7946  C     
14   C        -3.8783   42.6598    4.7690  C     
15   C        -2.9570   42.6036    5.8110  C     
16   C        -1.8830   43.4064    5.4507  C     
17   N        -2.1305   43.9354    4.2411  N     
18   C        -5.5929   43.8486    0.8985  C     
19   C        -5.3054   44.8044   -0.0830  C     
20   C        -6.3518   44.7839   -0.9814  C     
21   N        -7.2156   43.8542   -0.5306  N     
22   N        -6.7768   43.3100    0.5558  N     
23   C         1.8203   46.4526   -1.4469  C     
24   O         3.0024   46.6350   -1.1677  O     
25   C         1.4958   46.7462   -2.8500  C     
26   C         0.8856   48.0883   -3.0695  C     
27   C         1.3232   49.2344   -2.3692  C     
28   C         0.6341   50.4584   -2.4943  C     
29   C        -0.4876   50.5647   -3.3491  C     
30   C        -0.8810   49.4373   -4.0964  C     
31   C        -0.2128   48.2109   -3.9480  C     
32   C        -1.2698   51.8192   -3.3821  C     
33   H        -6.4518   46.6869   -1.8754  H     
34   H        -7.4998   45.4613   -2.6237  H     
35   H        -5.7419   45.4076   -2.8931  H     
36   H         1.5274   44.7372    1.1186  H     
37   H         2.3747   46.2828    1.1243  H     
38   H         0.6544   46.1158    2.9107  H     
39   H         0.4409   47.5043    1.8547  H     
40   H        -2.3423   46.0642   -0.1118  H     
41   H        -1.1976   47.3898   -0.0327  H     
42   H        -0.7323   45.5647   -1.7657  H     
43   H        -0.4317   44.4365   -0.4758  H     
44   H        -5.4114   42.7837    2.5535  H     
45   H        -4.7794   42.1784    4.7288  H     
46   H        -3.0616   42.0730    6.6768  H     
47   H        -1.0483   43.5746    6.0159  H     
48   H        -4.5166   45.4392   -0.1071  H     
49   H        -8.0578   43.6351   -0.9536  H     
50   H         2.4169   46.6841   -3.4443  H     
51   H         0.8196   46.0224   -3.2860  H     
52   H         2.1110   49.1720   -1.7276  H     
53   H         0.9369   51.2670   -1.9389  H     
54   H        -1.6905   49.4873   -4.7142  H     
55   H        -0.5591   47.3983   -4.4565  H     
56   H        -1.6772   52.0401   -2.3903  H     
57   H        -2.1056   51.7690   -4.0926  H     
58   H        -0.6249   52.6410   -3.6894  H     
@<TRIPOS>BOND
     1    1   20 1
     2    2    3 1
     3    2    7 1
     4    2   23 am
     5    3    4 1
     6    4    5 1
     7    5    6 1
     8    5    8 1
     9    6    7 1
    10    8    9 1
    11    8   10 2
    12    9   11 2
    13   10   17 1
    14   11   12 1
    15   11   13 1
    16   12   18 1
    17   13   14 2
    18   13   17 1
    19   14   15 1
    20   15   16 2
    21   16   17 1
    22   18   19 1
    23   18   22 2
    24   19   20 2
    25   20   21 1
    26   21   22 1
    27   23   24 2
    28   23   25 1
    29   25   26 1
    30   26   27 2
    31   26   31 1
    32   27   28 1
    33   28   29 2
    34   29   30 1
    35   29   32 1
    36   30   31 2
    37    1   33 1
    38    1   34 1
    39    1   35 1
    40    3   36 1
    41    3   37 1
    42    4   38 1
    43    4   39 1
    44    6   40 1
    45    6   41 1
    46    7   42 1
    47    7   43 1
    48   12   44 1
    49   14   45 1
    50   15   46 1
    51   16   47 1
    52   19   48 1
    53   21   49 1
    54   25   50 1
    55   25   51 1
    56   27   52 1
    57   28   53 1
    58   30   54 1
    59   31   55 1
    60   32   56 1
    61   32   57 1
    62   32   58 1
@<TRIPOS>PROPERTY_DATA
  Total_Score	| 9.9542
  Crash		| -0.9205
  Polar		| 2.9636
  FragIndex	| 1
  FragRMSD	| 0.341

