@<TRIPOS>MOLECULE
BindingDB_50337353
 62 67 0 0 0
SMALL
NO_CHARGES


@<TRIPOS>ATOM
1    C        -5.3461   45.5101   -2.2657  C     
2    C        -6.1891   46.7949   -2.4176  C     
3    C        -6.5109   45.5628   -3.2756  C     
4    C         1.1254   48.8244   -2.4944  C     
5    C         1.0943   50.1512   -1.9977  C     
6    C         0.0870   51.0524   -2.3893  C     
7    C        -0.9095   50.6375   -3.2901  C     
8    C        -0.8855   49.3288   -3.8044  C     
9    C         0.1255   48.4311   -3.4110  C     
10   C         2.1964   47.8703   -2.0774  C     
11   C         2.2349   47.6312   -0.6267  C     
12   N         1.4576   46.7652    0.0642  N     
13   O         3.0489   48.3270   -0.0150  O     
14   C         1.6465   46.6124    1.4997  C     
15   C         0.9522   45.3791    2.1428  C     
16   N        -0.4189   45.2213    1.7138  N     
17   C        -0.7474   45.5829    0.3483  C     
18   C         0.4639   45.9218   -0.5672  C     
19   C        -1.3658   44.6615    2.5338  C     
20   N        -2.6164   44.3956    2.0724  N     
21   N        -1.1148   44.2828    3.8234  N     
22   C        -3.6087   43.7877    2.7698  C     
23   N        -4.8077   43.4657    2.2145  N     
24   C        -3.2786   43.4187    4.0924  C     
25   C        -3.9964   42.7882    5.1019  C     
26   C        -3.1410   42.7016    6.1981  C     
27   C        -1.9319   43.2689    5.8300  C     
28   N        -2.0350   43.6976    4.5572  N     
29   C        -5.2614   43.8377    0.9975  C     
30   C        -4.7216   44.7152    0.0618  C     
31   C        -5.5861   44.7322   -1.0243  C     
32   N        -6.6219   43.9310   -0.6831  N     
33   N        -6.4331   43.4002    0.4895  N     
34   C        -3.9114   45.5667   -2.8736  C     
35   H        -6.8971   47.0124   -1.6129  H     
36   H        -5.7250   47.6278   -2.9448  H     
37   H        -6.2262   45.6322   -4.3271  H     
38   H        -7.4527   45.0684   -3.0205  H     
39   H         1.8247   50.4758   -1.3632  H     
40   H         0.0682   52.0058   -2.0134  H     
41   H        -1.6479   51.2852   -3.5691  H     
42   H        -1.5981   49.0250   -4.4630  H     
43   H         0.1428   47.4937   -3.8310  H     
44   H         2.1142   46.9152   -2.5952  H     
45   H         3.1437   48.3029   -2.4091  H     
46   H         2.7145   46.5271    1.7332  H     
47   H         1.2573   47.5127    1.9914  H     
48   H         1.4994   44.4784    1.8449  H     
49   H         1.0469   45.4748    3.2345  H     
50   H        -1.2787   44.7600   -0.1349  H     
51   H        -1.4140   46.4483    0.3782  H     
52   H         0.0437   46.3725   -1.4650  H     
53   H         0.9605   44.9960   -0.8642  H     
54   H        -5.3849   42.8770    2.7279  H     
55   H        -4.9552   42.4497    5.0616  H     
56   H        -3.3615   42.2782    7.1094  H     
57   H        -1.0993   43.3393    6.4159  H     
58   H        -3.8541   45.2543    0.1277  H     
59   H        -7.4069   43.7678   -1.2364  H     
60   H        -3.8520   46.2812   -3.7015  H     
61   H        -3.6200   44.5786   -3.2409  H     
62   H        -3.1929   45.8749   -2.1091  H     
@<TRIPOS>BOND
     1    1    2 1
     2    1    3 1
     3    1   31 1
     4    1   34 1
     5    2    3 1
     6    4    5 2
     7    4    9 1
     8    4   10 1
     9    5    6 1
    10    6    7 2
    11    7    8 1
    12    8    9 2
    13   10   11 1
    14   11   12 am
    15   11   13 2
    16   12   14 1
    17   12   18 1
    18   14   15 1
    19   15   16 1
    20   16   17 1
    21   16   19 1
    22   17   18 1
    23   19   20 1
    24   19   21 2
    25   20   22 2
    26   21   28 1
    27   22   23 1
    28   22   24 1
    29   23   29 1
    30   24   25 2
    31   24   28 1
    32   25   26 1
    33   26   27 2
    34   27   28 1
    35   29   30 1
    36   29   33 2
    37   30   31 2
    38   31   32 1
    39   32   33 1
    40    2   35 1
    41    2   36 1
    42    3   37 1
    43    3   38 1
    44    5   39 1
    45    6   40 1
    46    7   41 1
    47    8   42 1
    48    9   43 1
    49   10   44 1
    50   10   45 1
    51   14   46 1
    52   14   47 1
    53   15   48 1
    54   15   49 1
    55   17   50 1
    56   17   51 1
    57   18   52 1
    58   18   53 1
    59   23   54 1
    60   25   55 1
    61   26   56 1
    62   27   57 1
    63   30   58 1
    64   32   59 1
    65   34   60 1
    66   34   61 1
    67   34   62 1
@<TRIPOS>PROPERTY_DATA
  Total_Score	| 8.1779
  Crash		| -2.2618
  Polar		| 1.9814
  FragIndex	| 1
  FragRMSD	| 0.758

