@<TRIPOS>MOLECULE
BindingDB_50337354
 48 51 0 0 0
SMALL
NO_CHARGES


@<TRIPOS>ATOM
1    C        -6.6157   45.4840   -2.3407  C     
2    N         1.1900   46.2176   -0.6963  N     
3    C         1.5336   46.0063    0.7083  C     
4    C         0.3596   46.4282    1.6411  C     
5    N        -0.8897   45.8406    1.1979  N     
6    C        -1.2100   46.0715   -0.2003  C     
7    C        -0.0479   45.5663   -1.0947  C     
8    C        -1.7007   45.1047    2.0223  C     
9    N        -2.9147   44.6459    1.5935  N     
10   N        -1.3534   44.7859    3.3044  N     
11   C        -3.7736   43.9003    2.3379  C     
12   N        -4.9619   43.4362    1.8824  N     
13   C        -3.3428   43.6004    3.6484  C     
14   C        -3.9373   42.8988    4.6929  C     
15   C        -3.0475   42.9440    5.7570  C     
16   C        -1.9397   43.6778    5.3406  C     
17   N        -2.1447   44.0641    4.0699  N     
18   C        -5.6089   43.7721    0.7408  C     
19   C        -5.3339   44.7077   -0.2569  C     
20   C        -6.4004   44.6591   -1.1442  C     
21   N        -7.2377   43.7251   -0.6755  N     
22   N        -6.7863   43.2094    0.4224  N     
23   C         1.9122   46.9621   -1.5641  C     
24   O         1.5780   47.0285   -2.7461  O     
25   C         3.0763   47.7827   -1.2299  C     
26   C         2.6834   49.0627   -0.4394  C     
27   H        -6.6164   46.5353   -2.0538  H     
28   H        -7.5694   45.2396   -2.8092  H     
29   H        -5.8175   45.3123   -3.0585  H     
30   H         1.7401   44.9408    0.8604  H     
31   H         2.4272   46.5363    1.0370  H     
32   H         0.6247   46.1552    2.6659  H     
33   H         0.2551   47.5178    1.6180  H     
34   H        -2.1188   45.5718   -0.5328  H     
35   H        -1.3542   47.1453   -0.3685  H     
36   H        -0.3320   45.7370   -2.1410  H     
37   H         0.0596   44.4849   -0.9745  H     
38   H        -5.4160   42.7908    2.4544  H     
39   H        -4.8504   42.4437    4.6913  H     
40   H        -3.1846   42.5216    6.6757  H     
41   H        -1.1122   43.8810    5.9049  H     
42   H        -4.5390   45.3440   -0.3137  H     
43   H        -8.0850   43.4879   -1.0795  H     
44   H         3.8008   47.1878   -0.6622  H     
45   H         3.6035   48.1080   -2.1396  H     
46   H         2.0659   49.7212   -1.0606  H     
47   H         3.5834   49.6078   -0.1506  H     
48   H         2.1350   48.8178    0.4738  H     
@<TRIPOS>BOND
     1    1   20 1
     2    2    3 1
     3    2    7 1
     4    2   23 am
     5    3    4 1
     6    4    5 1
     7    5    6 1
     8    5    8 1
     9    6    7 1
    10    8    9 1
    11    8   10 2
    12    9   11 2
    13   10   17 1
    14   11   12 1
    15   11   13 1
    16   12   18 1
    17   13   14 2
    18   13   17 1
    19   14   15 1
    20   15   16 2
    21   16   17 1
    22   18   19 1
    23   18   22 2
    24   19   20 2
    25   20   21 1
    26   21   22 1
    27   23   24 2
    28   23   25 1
    29   25   26 1
    30    1   27 1
    31    1   28 1
    32    1   29 1
    33    3   30 1
    34    3   31 1
    35    4   32 1
    36    4   33 1
    37    6   34 1
    38    6   35 1
    39    7   36 1
    40    7   37 1
    41   12   38 1
    42   14   39 1
    43   15   40 1
    44   16   41 1
    45   19   42 1
    46   21   43 1
    47   25   44 1
    48   25   45 1
    49   26   46 1
    50   26   47 1
    51   26   48 1
@<TRIPOS>PROPERTY_DATA
  Total_Score	| 8.4564
  Crash		| -0.4705
  Polar		| 2.8450
  FragIndex	| 1
  FragRMSD	| 0.936

