@<TRIPOS>MOLECULE
BindingDB_50337337
 59 63 0 0 0
SMALL
NO_CHARGES


@<TRIPOS>ATOM
1    C        -6.5900   45.4223   -2.4231  C     
2    N         1.3755   46.0826   -0.7164  N     
3    C         1.6242   45.8953    0.7128  C     
4    C         0.4598   46.4889    1.5529  C     
5    N        -0.8046   45.9425    1.0917  N     
6    C        -1.0627   46.1529   -0.3206  C     
7    C         0.0979   45.5428   -1.1537  C     
8    C        -1.6392   45.2107    1.9000  C     
9    N        -2.8446   44.7210    1.4668  N     
10   N        -1.3024   44.9048    3.1883  N     
11   C        -3.6884   43.9596    2.2214  C     
12   N        -4.8852   43.4812    1.8038  N     
13   C        -3.2590   43.6744    3.5304  C     
14   C        -3.8398   42.9592    4.5766  C     
15   C        -2.9559   43.0305    5.6406  C     
16   C        -1.8667   43.7946    5.2258  C     
17   N        -2.0775   44.1704    3.9570  N     
18   C        -5.5586   43.7756    0.6722  C     
19   C        -5.2794   44.6481   -0.3777  C     
20   C        -6.3761   44.6170   -1.2104  C     
21   N        -7.2398   43.7352   -0.6777  N     
22   N        -6.7670   43.2425    0.4251  N     
23   C         2.2633   46.6982   -1.5208  C     
24   O         3.3774   46.9813   -1.0885  O     
25   C         2.0491   47.1198   -2.9150  C     
26   C         1.0660   48.2210   -3.0588  C     
27   C         1.2919   49.4452   -2.3783  C     
28   C         0.3759   50.5083   -2.4591  C     
29   C        -0.7545   50.4092   -3.2974  C     
30   C        -0.9859   49.2036   -4.0001  C     
31   C        -0.0837   48.1287   -3.8855  C     
32   O        -1.6823   51.4200   -3.3796  O     
33   C        -1.2105   52.6288   -4.0454  C     
34   H        -6.5122   46.4798   -2.1697  H     
35   H        -7.5787   45.2269   -2.8383  H     
36   H        -5.8319   45.1720   -3.1693  H     
37   H         1.6996   44.8246    0.9343  H     
38   H         2.5492   46.3587    1.0663  H     
39   H         0.6570   46.2994    2.6124  H     
40   H         0.4423   47.5790    1.4339  H     
41   H        -1.9991   45.7100   -0.6610  H     
42   H        -1.1224   47.2249   -0.5198  H     
43   H        -0.1073   45.7053   -2.2075  H     
44   H         0.1017   44.4571   -1.0103  H     
45   H        -5.3343   42.8732    2.4166  H     
46   H        -4.7420   42.4803    4.5659  H     
47   H        -3.0843   42.6084    6.5614  H     
48   H        -1.0544   44.0353    5.7969  H     
49   H        -4.4572   45.2430   -0.4914  H     
50   H        -8.1033   43.5130   -1.0453  H     
51   H         2.9770   47.4927   -3.3579  H     
52   H         1.7608   46.2532   -3.5112  H     
53   H         2.1380   49.5799   -1.8196  H     
54   H         0.5228   51.3742   -1.9307  H     
55   H        -1.8110   49.1043   -4.6090  H     
56   H        -0.2516   47.2737   -4.4294  H     
57   H        -0.3960   53.1102   -3.4734  H     
58   H        -2.0614   53.3146   -4.1246  H     
59   H        -0.8475   52.4023   -5.0651  H     
@<TRIPOS>BOND
     1    1   20 1
     2    2    3 1
     3    2    7 1
     4    2   23 am
     5    3    4 1
     6    4    5 1
     7    5    6 1
     8    5    8 1
     9    6    7 1
    10    8    9 1
    11    8   10 2
    12    9   11 2
    13   10   17 1
    14   11   12 1
    15   11   13 1
    16   12   18 1
    17   13   14 2
    18   13   17 1
    19   14   15 1
    20   15   16 2
    21   16   17 1
    22   18   19 1
    23   18   22 2
    24   19   20 2
    25   20   21 1
    26   21   22 1
    27   23   24 2
    28   23   25 1
    29   25   26 1
    30   26   27 2
    31   26   31 1
    32   27   28 1
    33   28   29 2
    34   29   30 1
    35   29   32 1
    36   30   31 2
    37   32   33 1
    38    1   34 1
    39    1   35 1
    40    1   36 1
    41    3   37 1
    42    3   38 1
    43    4   39 1
    44    4   40 1
    45    6   41 1
    46    6   42 1
    47    7   43 1
    48    7   44 1
    49   12   45 1
    50   14   46 1
    51   15   47 1
    52   16   48 1
    53   19   49 1
    54   21   50 1
    55   25   51 1
    56   25   52 1
    57   27   53 1
    58   28   54 1
    59   30   55 1
    60   31   56 1
    61   33   57 1
    62   33   58 1
    63   33   59 1
@<TRIPOS>PROPERTY_DATA
  Total_Score	| 11.0161
  Crash		| -0.6934
  Polar		| 2.7915
  FragIndex	| 1
  FragRMSD	| 0.287

