@<TRIPOS>MOLECULE
BindingDB_50337333
 55 59 0 0 0
SMALL
NO_CHARGES


@<TRIPOS>ATOM
1    C        -6.3482   45.4634   -2.2834  C     
2    N         1.2391   46.2230   -0.6168  N     
3    C         0.0345   45.5972   -1.1280  C     
4    C        -0.7355   44.6647   -0.1609  C     
5    N        -0.6295   45.0165    1.2405  N     
6    C         0.5859   45.6390    1.7242  C     
7    C         1.7196   45.7547    0.6716  C     
8    C        -1.5910   44.5905    2.1196  C     
9    N        -2.8199   44.1893    1.6821  N     
10   N        -1.3638   44.4830    3.4616  N     
11   C        -3.7981   43.6735    2.4693  C     
12   N        -5.0192   43.3261    2.0014  N     
13   C        -3.4615   43.5018    3.8308  C     
14   C        -4.1460   42.9518    4.9104  C     
15   C        -3.3092   43.0738    6.0124  C     
16   C        -2.1425   43.6975    5.5806  C     
17   N        -2.2605   43.9464    4.2648  N     
18   C        -5.5979   43.6890    0.8312  C     
19   C        -5.1981   44.5627   -0.1791  C     
20   C        -6.2543   44.6292   -1.0768  C     
21   N        -7.2026   43.8072   -0.6064  N     
22   N        -6.8315   43.2652    0.5094  N     
23   C         1.9013   47.1585   -1.3334  C     
24   O         2.8918   47.7058   -0.8628  O     
25   C         1.5663   47.6114   -2.6886  C     
26   C         1.0459   49.0071   -2.7277  C     
27   C         1.7153   50.0040   -3.4737  C     
28   C         1.1952   51.3078   -3.5612  C     
29   C         0.0039   51.6437   -2.8947  C     
30   C        -0.6712   50.6671   -2.1420  C     
31   C        -0.1567   49.3597   -2.0664  C     
32   F        -0.4724   52.8563   -2.9772  F     
33   H        -6.2418   46.5149   -2.0132  H     
34   H        -7.3154   45.3219   -2.7693  H     
35   H        -5.5573   45.1910   -2.9829  H     
36   H        -0.6705   46.3777   -1.4179  H     
37   H         0.2802   45.0190   -2.0233  H     
38   H        -1.7725   44.6610   -0.5030  H     
39   H        -0.3568   43.6452   -0.2700  H     
40   H         0.3331   46.6424    2.0789  H     
41   H         0.9955   45.0756    2.5684  H     
42   H         2.1545   44.7632    0.5207  H     
43   H         2.5079   46.3788    1.1021  H     
44   H        -5.5587   42.7770    2.5919  H     
45   H        -5.0760   42.5307    4.8985  H     
46   H        -3.5126   42.7602    6.9629  H     
47   H        -1.3326   43.9156    6.1649  H     
48   H        -4.3367   45.1068   -0.2322  H     
49   H        -8.0682   43.6623   -1.0169  H     
50   H         2.4667   47.5094   -3.3040  H     
51   H         0.8225   46.9821   -3.1758  H     
52   H         2.5813   49.7863   -3.9720  H     
53   H         1.6858   52.0074   -4.1190  H     
54   H        -1.5344   50.9052   -1.6449  H     
55   H        -0.6678   48.6729   -1.5120  H     
@<TRIPOS>BOND
     1    1   20 1
     2    2    3 1
     3    2    7 1
     4    2   23 am
     5    3    4 1
     6    4    5 1
     7    5    6 1
     8    5    8 1
     9    6    7 1
    10    8    9 1
    11    8   10 2
    12    9   11 2
    13   10   17 1
    14   11   12 1
    15   11   13 1
    16   12   18 1
    17   13   14 2
    18   13   17 1
    19   14   15 1
    20   15   16 2
    21   16   17 1
    22   18   19 1
    23   18   22 2
    24   19   20 2
    25   20   21 1
    26   21   22 1
    27   23   24 2
    28   23   25 1
    29   25   26 1
    30   26   27 2
    31   26   31 1
    32   27   28 1
    33   28   29 2
    34   29   30 1
    35   29   32 1
    36   30   31 2
    37    1   33 1
    38    1   34 1
    39    1   35 1
    40    3   36 1
    41    3   37 1
    42    4   38 1
    43    4   39 1
    44    6   40 1
    45    6   41 1
    46    7   42 1
    47    7   43 1
    48   12   44 1
    49   14   45 1
    50   15   46 1
    51   16   47 1
    52   19   48 1
    53   21   49 1
    54   25   50 1
    55   25   51 1
    56   27   52 1
    57   28   53 1
    58   30   54 1
    59   31   55 1
@<TRIPOS>PROPERTY_DATA
  Total_Score	| 9.9759
  Crash		| -1.4392
  Polar		| 2.6093
  FragIndex	| 1
  FragRMSD	| 0.941

