@<TRIPOS>MOLECULE
BindingDB_50337341
 52 56 0 0 0
SMALL
NO_CHARGES


@<TRIPOS>ATOM
1    C        -6.7286   45.5146   -2.3110  C     
2    N         0.7032   47.4582   -0.0269  N     
3    C         1.2000   46.7785    1.2384  C     
4    C         0.8162   45.2673    1.5853  C     
5    N        -0.6432   45.1937    1.4947  N     
6    C        -1.0679   45.8066    0.1531  C     
7    C        -0.7251   47.4057   -0.2753  C     
8    C        -1.4628   44.5468    2.4435  C     
9    N        -2.7408   44.2695    2.0178  N     
10   N        -1.2532   44.1681    3.8025  N     
11   C        -3.7501   43.7657    2.7790  C     
12   N        -4.9518   43.5511    2.1134  N     
13   C        -3.4789   43.4145    4.1981  C     
14   C        -4.2096   42.7109    5.2398  C     
15   C        -3.3523   42.4353    6.3108  C     
16   C        -2.1352   43.0402    5.9312  C     
17   N        -2.2070   43.6239    4.6680  N     
18   C        -5.4439   43.8422    0.8625  C     
19   C        -5.1736   44.6992   -0.2666  C     
20   C        -6.3322   44.6489   -1.1002  C     
21   N        -7.1630   43.7142   -0.5263  N     
22   N        -6.6495   43.2843    0.5887  N     
23   C         1.5048   47.9019   -1.0370  C     
24   O         2.7312   47.5996   -0.6672  O     
25   C         1.2726   48.4916   -2.3368  C     
26   C         1.8216   49.7943   -2.3618  C     
27   C         1.9123   50.5126   -3.5668  C     
28   C         1.5026   50.0118   -4.8642  C     
29   C         0.8870   48.7040   -4.8477  C     
30   C         0.7781   47.8956   -3.6018  C     
31   H        -6.6134   46.6011   -2.0887  H     
32   H        -7.8091   45.3939   -2.5595  H     
33   H        -6.1254   45.2781   -3.2334  H     
34   H         2.1859   46.9585    1.6326  H     
35   H         0.6900   47.2231    2.0625  H     
36   H         1.3884   44.5116    0.9598  H     
37   H         1.0867   44.9884    2.6416  H     
38   H        -0.6369   45.1185   -0.6262  H     
39   H        -2.0863   45.6952   -0.0273  H     
40   H        -1.2041   48.2525    0.3623  H     
41   H        -1.0532   47.7975   -1.5181  H     
42   H        -5.6245   43.1187    2.6777  H     
43   H        -5.1698   42.2887    5.2067  H     
44   H        -3.5442   41.7305    7.1038  H     
45   H        -1.3149   42.8303    6.5379  H     
46   H        -4.3667   45.3695   -0.4119  H     
47   H        -8.0547   43.4342   -0.8516  H     
48   H         2.4025   50.2148   -1.5235  H     
49   H         2.4313   51.4142   -3.4395  H     
50   H         1.7120   50.5818   -5.7546  H     
51   H         0.5429   48.2545   -5.7415  H     
52   H         0.5127   46.8608   -3.2774  H     
@<TRIPOS>BOND
     1    1   20 1
     2    2    3 1
     3    2    7 1
     4    2   23 1
     5    3    4 1
     6    4    5 1
     7    5    6 1
     8    5    8 1
     9    6    7 1
    10    8    9 1
    11    8   10 2
    12    9   11 2
    13   10   17 1
    14   11   12 1
    15   11   13 1
    16   12   18 1
    17   13   14 2
    18   13   17 1
    19   14   15 1
    20   15   16 2
    21   16   17 1
    22   18   19 1
    23   18   22 2
    24   19   20 2
    25   20   21 1
    26   21   22 1
    27   23   24 2
    28   23   25 1
    29   25   26 2
    30   25   30 1
    31   26   27 1
    32   27   28 2
    33   28   29 1
    34   29   30 2
    35    1   31 1
    36    1   32 1
    37    1   33 1
    38    3   34 1
    39    3   35 1
    40    4   36 1
    41    4   37 1
    42    6   38 1
    43    6   39 1
    44    7   40 1
    45    7   41 1
    46   12   42 1
    47   14   43 1
    48   15   44 1
    49   16   45 1
    50   19   46 1
    51   21   47 1
    52   26   48 1
    53   27   49 1
    54   28   50 1
    55   29   51 1
    56   30   52 1
@<TRIPOS>PROPERTY_DATA
  Total_Score	| 8.5383
  Crash		| -0.9272
  Polar		| 2.2408
  FragIndex	| 1
  FragRMSD	| 1.198

