@<TRIPOS>MOLECULE
BindingDB_50337345
 56 60 0 0 0
SMALL
NO_CHARGES


@<TRIPOS>ATOM
1    C        -6.3804   45.3583   -2.3394  C     
2    N         0.5038   46.6888   -1.0149  N     
3    C         0.4670   45.2391   -1.0887  C     
4    C        -0.6942   44.7223   -0.2117  C     
5    N        -0.6945   45.2669    1.1303  N     
6    C         0.3306   46.2250    1.4891  C     
7    C         0.5037   47.2597    0.3285  C     
8    C        -1.6044   44.7924    2.0298  C     
9    N        -2.7904   44.2763    1.5953  N     
10   N        -1.3655   44.7479    3.3727  N     
11   C        -3.7313   43.7189    2.3984  C     
12   N        -4.9333   43.2930    1.9396  N     
13   C        -3.3862   43.6131    3.7667  C     
14   C        -4.0371   43.0551    4.8626  C     
15   C        -3.2102   43.2651    5.9594  C     
16   C        -2.0866   43.9514    5.5098  C     
17   N        -2.2197   44.1574    4.1875  N     
18   C        -5.5386   43.6242    0.7722  C     
19   C        -5.1809   44.5050   -0.2476  C     
20   C        -6.2500   44.5315   -1.1323  C     
21   N        -7.1656   43.6822   -0.6461  N     
22   N        -6.7622   43.1588    0.4682  N     
23   C         0.5711   47.4341   -2.1388  C     
24   O         0.7012   46.8809   -3.2279  O     
25   C         0.4974   48.8179   -2.2366  C     
26   C         1.4589   49.5698   -2.9736  C     
27   C         1.2900   50.9613   -3.1310  C     
28   C         0.1787   51.6175   -2.5743  C     
29   C        -0.7926   50.8792   -1.8836  C     
30   C        -0.6420   49.4894   -1.7316  C     
31   O         2.4927   48.9987   -3.6821  O     
32   C         3.7388   48.8094   -2.9934  C     
33   H        -6.2907   46.4129   -2.0767  H     
34   H        -7.3544   45.1937   -2.8042  H     
35   H        -5.5972   45.0983   -3.0516  H     
36   H         0.3310   44.8285   -2.0923  H     
37   H         1.4175   44.8507   -0.7151  H     
38   H        -1.6326   44.9845   -0.7098  H     
39   H        -0.6208   43.6317   -0.1636  H     
40   H         0.0899   46.7632    2.4125  H     
41   H         1.2735   45.6929    1.6500  H     
42   H         1.4251   47.8173    0.4841  H     
43   H        -0.3270   47.9501    0.4321  H     
44   H        -5.4458   42.7265    2.5404  H     
45   H        -4.9407   42.5803    4.8691  H     
46   H        -3.3937   42.9757    6.9205  H     
47   H        -1.2980   44.2453    6.0903  H     
48   H        -4.3394   45.0764   -0.3152  H     
49   H        -8.0307   43.5056   -1.0476  H     
50   H         1.9664   51.5015   -3.6777  H     
51   H         0.0500   52.6229   -2.7087  H     
52   H        -1.6223   51.3468   -1.5101  H     
53   H        -1.4015   48.9710   -1.2817  H     
54   H         3.9672   49.6163   -2.2968  H     
55   H         4.5268   48.7809   -3.7530  H     
56   H         3.7571   47.8554   -2.4646  H     
@<TRIPOS>BOND
     1    1   20 1
     2    2    3 1
     3    2    7 1
     4    2   23 1
     5    3    4 1
     6    4    5 1
     7    5    6 1
     8    5    8 1
     9    6    7 1
    10    8    9 1
    11    8   10 2
    12    9   11 2
    13   10   17 1
    14   11   12 1
    15   11   13 1
    16   12   18 1
    17   13   14 2
    18   13   17 1
    19   14   15 1
    20   15   16 2
    21   16   17 1
    22   18   19 1
    23   18   22 2
    24   19   20 2
    25   20   21 1
    26   21   22 1
    27   23   24 2
    28   23   25 1
    29   25   26 2
    30   25   30 1
    31   26   27 1
    32   26   31 1
    33   27   28 2
    34   28   29 1
    35   29   30 2
    36   31   32 1
    37    1   33 1
    38    1   34 1
    39    1   35 1
    40    3   36 1
    41    3   37 1
    42    4   38 1
    43    4   39 1
    44    6   40 1
    45    6   41 1
    46    7   42 1
    47    7   43 1
    48   12   44 1
    49   14   45 1
    50   15   46 1
    51   16   47 1
    52   19   48 1
    53   21   49 1
    54   27   50 1
    55   28   51 1
    56   29   52 1
    57   30   53 1
    58   32   54 1
    59   32   55 1
    60   32   56 1
@<TRIPOS>PROPERTY_DATA
  Total_Score	| 10.0965
  Crash		| -1.5089
  Polar		| 2.7836
  FragIndex	| 1
  FragRMSD	| 1.239

