@<TRIPOS>MOLECULE
BindingDB_50337338
 59 63 0 0 0
SMALL
NO_CHARGES


@<TRIPOS>ATOM
1    C        -3.0633   43.5239    5.4987  C     
2    C        -3.9267   43.6121    4.4123  C     
3    C        -0.7539   49.4886   -4.0378  C     
4    C         0.2307   50.7661   -2.2243  C     
5    C        -4.6822   45.2979   -0.7372  C     
6    C        -1.8040   43.9142    5.0533  C     
7    C         1.3726   48.7429   -3.0372  C     
8    C        -0.7966   50.5912   -3.1649  C     
9    C         0.3197   48.5816   -3.9839  C     
10   C         1.3085   49.8605   -2.1627  C     
11   C        -3.1708   44.0577    3.3343  C     
12   C        -5.6900   45.5286   -1.6588  C     
13   C        -5.2745   44.6697    0.3508  C     
14   C        -3.4854   44.3456    1.9844  C     
15   C        -1.1419   44.8455    1.6195  C     
16   C         2.7660   47.1658   -1.6532  C     
17   C         1.1950   45.4720    1.2829  C     
18   C        -0.3128   45.1814   -0.6645  C     
19   C         2.3059   45.6386    0.2050  C     
20   C         0.5196   46.2571   -1.4065  C     
21   C        -5.5418   46.2281   -2.9421  C     
22   C        -1.5981   52.6327   -4.0024  C     
23   C         2.5270   47.7921   -2.9642  C     
24   N        -6.5760   44.5476    0.0309  N     
25   N        -2.4411   44.7098    1.1997  N     
26   N        -0.9262   44.6080    2.9453  N     
27   N        -6.8315   45.0513   -1.1368  N     
28   N        -1.8937   44.2252    3.7503  N     
29   N        -0.1286   45.1918    0.7683  N     
30   N         1.8905   46.4028   -0.9648  N     
31   N        -4.7755   44.2888    1.5573  N     
32   O         3.9153   47.3043   -1.2360  O     
33   O        -1.8496   51.4656   -3.2069  O     
34   F         0.3022   47.5822   -4.8304  F     
35   F         2.2272   50.0838   -1.2617  F     
36   H        -3.3043   43.2288    6.4467  H     
37   H        -4.9191   43.3810    4.4133  H     
38   H        -1.5198   49.3473   -4.7066  H     
39   H         0.1916   51.5618   -1.5890  H     
40   H        -3.7121   45.5854   -0.8402  H     
41   H        -0.9539   43.9551    5.6177  H     
42   H         1.5213   44.6725    1.9543  H     
43   H         1.1419   46.3969    1.8593  H     
44   H        -1.3517   45.3347   -0.9679  H     
45   H        -0.0173   44.1977   -1.0341  H     
46   H         3.1727   46.0702    0.7091  H     
47   H         2.6037   44.6447   -0.1477  H     
48   H         0.4857   45.9980   -2.4671  H     
49   H         0.0241   47.2249   -1.2751  H     
50   H        -5.2628   47.2733   -2.7688  H     
51   H        -6.4865   46.2064   -3.4931  H     
52   H        -4.7759   45.7465   -3.5392  H     
53   H        -0.8011   53.2477   -3.5670  H     
54   H        -2.5085   53.2231   -4.0202  H     
55   H        -1.3382   52.3690   -5.0314  H     
56   H         2.4149   46.9771   -3.6809  H     
57   H         3.4129   48.3531   -3.2948  H     
58   H        -7.2596   44.1987    0.6210  H     
59   H        -5.4258   43.9999    2.2156  H     
@<TRIPOS>BOND
     1    1    2 1
     2    1    6 2
     3    2   11 2
     4    3    8 1
     5    3    9 2
     6    4    8 2
     7    4   10 1
     8    5   12 1
     9    5   13 2
    10    6   28 1
    11    7    9 1
    12    7   10 2
    13    7   23 1
    14    8   33 1
    15    9   34 1
    16   10   35 1
    17   11   14 1
    18   11   28 1
    19   12   21 1
    20   12   27 2
    21   13   24 1
    22   13   31 1
    23   14   25 2
    24   14   31 1
    25   15   25 1
    26   15   26 2
    27   15   29 1
    28   16   23 1
    29   16   30 am
    30   16   32 2
    31   17   19 1
    32   17   29 1
    33   18   20 1
    34   18   29 1
    35   19   30 1
    36   20   30 1
    37   22   33 1
    38   24   27 1
    39   26   28 1
    40    1   36 1
    41    2   37 1
    42    3   38 1
    43    4   39 1
    44    5   40 1
    45    6   41 1
    46   17   42 1
    47   17   43 1
    48   18   44 1
    49   18   45 1
    50   19   46 1
    51   19   47 1
    52   20   48 1
    53   20   49 1
    54   21   50 1
    55   21   51 1
    56   21   52 1
    57   22   53 1
    58   22   54 1
    59   22   55 1
    60   23   56 1
    61   23   57 1
    62   24   58 1
    63   31   59 1
@<TRIPOS>PROPERTY_DATA
  Total_Score	| 6.1451
  Crash		| -1.7573
  Polar		| 0.0086
  FragIndex	| 1
  FragRMSD	| 0.856

