@<TRIPOS>MOLECULE
BindingDB_50337342
 55 59 0 0 0
SMALL
NO_CHARGES


@<TRIPOS>ATOM
1    C        -6.5152   45.4392   -2.3557  C     
2    N         1.1805   46.7480   -0.6426  N     
3    C         1.5558   46.1875    0.6454  C     
4    C         0.3856   46.2208    1.6601  C     
5    N        -0.8046   45.5575    1.1689  N     
6    C        -1.0132   45.4717   -0.2639  C     
7    C        -0.1429   46.4198   -1.1368  C     
8    C        -1.6779   44.9287    2.0204  C     
9    N        -2.8785   44.4507    1.5769  N     
10   N        -1.4035   44.7249    3.3421  N     
11   C        -3.7869   43.7907    2.3438  C     
12   N        -4.9805   43.3510    1.8800  N     
13   C        -3.4129   43.5710    3.6888  C     
14   C        -4.0476   42.9388    4.7546  C     
15   C        -3.1933   43.0463    5.8442  C     
16   C        -2.0706   43.7512    5.4216  C     
17   N        -2.2315   44.0623    4.1236  N     
18   C        -5.6012   43.6852    0.7236  C     
19   C        -5.2827   44.6014   -0.2768  C     
20   C        -6.3489   44.5970   -1.1637  C     
21   N        -7.2249   43.6968   -0.6976  N     
22   N        -6.8010   43.1697    0.4066  N     
23   C         2.0209   47.5379   -1.3518  C     
24   O         3.1218   47.8198   -0.8864  O     
25   C         1.8021   48.0298   -2.7221  C     
26   C         0.7364   49.0664   -2.8932  C     
27   C         0.8514   50.3216   -2.2406  C     
28   C        -0.1011   51.3372   -2.4420  C     
29   C        -1.1939   51.1201   -3.2978  C     
30   C        -1.3386   49.8784   -3.9413  C     
31   C        -0.3819   48.8611   -3.7471  C     
32   F        -0.5580   47.7391   -4.3947  F     
33   F        -2.0704   52.0686   -3.4973  F     
34   H        -6.4823   46.4915   -2.0695  H     
35   H        -7.4745   45.2345   -2.8348  H     
36   H        -5.7127   45.2344   -3.0659  H     
37   H         1.8546   45.1474    0.4909  H     
38   H         2.4022   46.7002    1.1111  H     
39   H         0.7542   45.7722    2.5861  H     
40   H         0.1291   47.2613    1.8735  H     
41   H        -0.8057   44.4393   -0.5614  H     
42   H        -2.0564   45.6826   -0.5135  H     
43   H        -0.6978   47.3560   -1.2165  H     
44   H        -0.0729   45.9734   -2.1326  H     
45   H        -5.4676   42.7474    2.4651  H     
46   H        -4.9634   42.4873    4.7475  H     
47   H        -3.3642   42.6856    6.7843  H     
48   H        -1.2664   43.9944    6.0035  H     
49   H        -4.4694   45.2126   -0.3308  H     
50   H        -8.0827   43.4958   -1.1004  H     
51   H         2.7198   48.4744   -3.1240  H     
52   H         1.6162   47.1572   -3.3502  H     
53   H         1.6390   50.5140   -1.6151  H     
54   H         0.0006   52.2371   -1.9663  H     
55   H        -2.1417   49.7194   -4.5569  H     
@<TRIPOS>BOND
     1    1   20 1
     2    2    3 1
     3    2    7 1
     4    2   23 am
     5    3    4 1
     6    4    5 1
     7    5    6 1
     8    5    8 1
     9    6    7 1
    10    8    9 1
    11    8   10 2
    12    9   11 2
    13   10   17 1
    14   11   12 1
    15   11   13 1
    16   12   18 1
    17   13   14 2
    18   13   17 1
    19   14   15 1
    20   15   16 2
    21   16   17 1
    22   18   19 1
    23   18   22 2
    24   19   20 2
    25   20   21 1
    26   21   22 1
    27   23   24 2
    28   23   25 1
    29   25   26 1
    30   26   27 2
    31   26   31 1
    32   27   28 1
    33   28   29 2
    34   29   30 1
    35   29   33 1
    36   30   31 2
    37   31   32 1
    38    1   34 1
    39    1   35 1
    40    1   36 1
    41    3   37 1
    42    3   38 1
    43    4   39 1
    44    4   40 1
    45    6   41 1
    46    6   42 1
    47    7   43 1
    48    7   44 1
    49   12   45 1
    50   14   46 1
    51   15   47 1
    52   16   48 1
    53   19   49 1
    54   21   50 1
    55   25   51 1
    56   25   52 1
    57   27   53 1
    58   28   54 1
    59   30   55 1
@<TRIPOS>PROPERTY_DATA
  Total_Score	| 10.6464
  Crash		| -0.6015
  Polar		| 2.8034
  FragIndex	| 1
  FragRMSD	| 0.518

