@<TRIPOS>MOLECULE
BindingDB_50337339
 58 62 0 0 0
SMALL
NO_CHARGES


@<TRIPOS>ATOM
1    C        -6.5521   45.4652   -2.3400  C     
2    N         1.1527   46.3244   -0.7834  N     
3    C         1.5377   46.1444    0.6192  C     
4    C         0.3828   46.5081    1.6022  C     
5    N        -0.8679   45.8983    1.1836  N     
6    C        -1.2145   46.1214   -0.1996  C     
7    C        -0.0797   45.6251   -1.1185  C     
8    C        -1.6533   45.1435    2.0265  C     
9    N        -2.8789   44.6965    1.6287  N     
10   N        -1.2807   44.8079    3.2960  N     
11   C        -3.7319   43.9524    2.3782  C     
12   N        -4.9390   43.5147    1.9431  N     
13   C        -3.2762   43.6331    3.6783  C     
14   C        -3.8618   42.9530    4.7395  C     
15   C        -2.9494   42.9893    5.7865  C     
16   C        -1.8368   43.6916    5.3386  C     
17   N        -2.0621   44.0815    4.0739  N     
18   C        -5.5900   43.8436    0.8077  C     
19   C        -5.3019   44.7390   -0.2245  C     
20   C        -6.3722   44.6873   -1.1023  C     
21   N        -7.2373   43.7983   -0.5908  N     
22   N        -6.7885   43.3097    0.5141  N     
23   C         1.9102   47.0154   -1.6723  C     
24   O         2.9815   47.4750   -1.2653  O     
25   C         1.7544   47.1123   -3.1379  C     
26   C         1.9019   48.5464   -3.7350  C     
27   C         0.7382   49.4650   -3.5940  C     
28   C        -0.4195   49.3080   -4.4052  C     
29   C        -1.4599   50.2468   -4.3788  C     
30   C        -1.3696   51.3975   -3.5551  C     
31   C        -0.2179   51.5886   -2.7558  C     
32   C         0.8093   50.6329   -2.7691  C     
33   H        -6.4815   46.5312   -2.1206  H     
34   H        -7.5285   45.2570   -2.7794  H     
35   H        -5.7754   45.1936   -3.0592  H     
36   H         1.8060   45.0978    0.7828  H     
37   H         2.4154   46.7279    0.9085  H     
38   H         0.6946   46.2316    2.6165  H     
39   H         0.2488   47.5958    1.5992  H     
40   H        -2.1260   45.6163   -0.5103  H     
41   H        -1.3800   47.1924   -0.3506  H     
42   H        -0.4270   45.7648   -2.1435  H     
43   H         0.0617   44.5382   -0.9609  H     
44   H        -5.3963   42.8861    2.5259  H     
45   H        -4.7921   42.5312    4.7655  H     
46   H        -3.0842   42.5993    6.7214  H     
47   H        -1.0000   43.9029    5.8927  H     
48   H        -4.4851   45.3473   -0.3156  H     
49   H        -8.0847   43.5687   -0.9895  H     
50   H         2.5584   46.4975   -3.5678  H     
51   H         0.8241   46.6956   -3.5182  H     
52   H         2.8048   49.0241   -3.3180  H     
53   H         2.0948   48.4455   -4.8061  H     
54   H        -0.4933   48.5232   -5.0626  H     
55   H        -2.2794   50.1329   -4.9858  H     
56   H        -2.1047   52.0933   -3.5659  H     
57   H        -0.1375   52.4176   -2.1765  H     
58   H         1.6309   50.7765   -2.1697  H     
@<TRIPOS>BOND
     1    1   20 1
     2    2    3 1
     3    2    7 1
     4    2   23 am
     5    3    4 1
     6    4    5 1
     7    5    6 1
     8    5    8 1
     9    6    7 1
    10    8    9 1
    11    8   10 2
    12    9   11 2
    13   10   17 1
    14   11   12 1
    15   11   13 1
    16   12   18 1
    17   13   14 2
    18   13   17 1
    19   14   15 1
    20   15   16 2
    21   16   17 1
    22   18   19 1
    23   18   22 2
    24   19   20 2
    25   20   21 1
    26   21   22 1
    27   23   24 2
    28   23   25 1
    29   25   26 1
    30   26   27 1
    31   27   28 2
    32   27   32 1
    33   28   29 1
    34   29   30 2
    35   30   31 1
    36   31   32 2
    37    1   33 1
    38    1   34 1
    39    1   35 1
    40    3   36 1
    41    3   37 1
    42    4   38 1
    43    4   39 1
    44    6   40 1
    45    6   41 1
    46    7   42 1
    47    7   43 1
    48   12   44 1
    49   14   45 1
    50   15   46 1
    51   16   47 1
    52   19   48 1
    53   21   49 1
    54   25   50 1
    55   25   51 1
    56   26   52 1
    57   26   53 1
    58   28   54 1
    59   29   55 1
    60   30   56 1
    61   31   57 1
    62   32   58 1
@<TRIPOS>PROPERTY_DATA
  Total_Score	| 10.9010
  Crash		| -0.5037
  Polar		| 2.7890
  FragIndex	| 1
  FragRMSD	| 0.413

