@<TRIPOS>MOLECULE
BindingDB_50337349
 58 62 0 0 0
SMALL
NO_CHARGES


@<TRIPOS>ATOM
1    C        -6.6603   45.4386   -2.3246  C     
2    N         1.0771   46.1261   -0.5681  N     
3    C        -0.2643   45.7033   -0.9342  C     
4    C        -1.3081   46.3720   -0.0034  C     
5    N        -0.9723   46.0261    1.3686  N     
6    C         0.3460   46.4616    1.7942  C     
7    C         1.4159   45.8697    0.8380  C     
8    C        -1.7753   45.2274    2.1450  C     
9    N        -2.9692   44.7465    1.6790  N     
10   N        -1.4114   44.8224    3.3949  N     
11   C        -3.7921   43.9197    2.3787  C     
12   N        -4.9633   43.4317    1.8915  N     
13   C        -3.3626   43.5645    3.6763  C     
14   C        -3.9370   42.8006    4.6843  C     
15   C        -3.0372   42.7957    5.7438  C     
16   C        -1.9490   43.5736    5.3606  C     
17   N        -2.1723   44.0276    4.1152  N     
18   C        -5.6063   43.7514    0.7526  C     
19   C        -5.3556   44.6882   -0.2530  C     
20   C        -6.4253   44.6168   -1.1319  C     
21   N        -7.2429   43.6638   -0.6550  N     
22   N        -6.7768   43.1585    0.4410  N     
23   C         1.9677   46.6730   -1.4279  C     
24   O         3.1256   46.8232   -1.0574  O     
25   C         1.7217   47.0899   -2.8164  C     
26   C         1.2564   48.5121   -2.9074  C     
27   C         0.2435   48.9604   -2.0176  C     
28   C        -0.2519   50.2763   -2.0545  C     
29   C         0.2444   51.1832   -3.0013  C     
30   C         1.2362   50.7650   -3.9033  C     
31   C         1.7514   49.4434   -3.8797  C     
32   C         2.7876   49.0983   -4.9029  C     
33   H        -6.6566   46.4958   -2.0496  H     
34   H        -7.6261   45.1943   -2.7705  H     
35   H        -5.8754   45.2560   -3.0614  H     
36   H        -0.5497   45.9145   -1.9622  H     
37   H        -0.3425   44.6162   -0.7995  H     
38   H        -1.2783   47.4593   -0.1224  H     
39   H        -2.3045   46.0548   -0.3073  H     
40   H         0.3951   47.5553    1.7637  H     
41   H         0.5969   46.1630    2.8180  H     
42   H         1.4686   44.7901    1.0020  H     
43   H         2.3838   46.2765    1.1424  H     
44   H        -5.3938   42.7639    2.4519  H     
45   H        -4.8490   42.3419    4.6672  H     
46   H        -3.1608   42.3175    6.6373  H     
47   H        -1.1255   43.7636    5.9360  H     
48   H        -4.5779   45.3453   -0.3149  H     
49   H        -8.0869   43.4076   -1.0479  H     
50   H         2.6420   46.9824   -3.4026  H     
51   H         1.0194   46.4118   -3.3095  H     
52   H        -0.1663   48.3291   -1.3389  H     
53   H        -0.9814   50.5753   -1.4050  H     
54   H        -0.1160   52.1386   -3.0476  H     
55   H         1.5630   51.4406   -4.5989  H     
56   H         3.7179   48.8164   -4.4096  H     
57   H         3.0199   49.9401   -5.5647  H     
58   H         2.4382   48.2752   -5.5303  H     
@<TRIPOS>BOND
     1    1   20 1
     2    2    3 1
     3    2    7 1
     4    2   23 am
     5    3    4 1
     6    4    5 1
     7    5    6 1
     8    5    8 1
     9    6    7 1
    10    8    9 1
    11    8   10 2
    12    9   11 2
    13   10   17 1
    14   11   12 1
    15   11   13 1
    16   12   18 1
    17   13   14 2
    18   13   17 1
    19   14   15 1
    20   15   16 2
    21   16   17 1
    22   18   19 1
    23   18   22 2
    24   19   20 2
    25   20   21 1
    26   21   22 1
    27   23   24 2
    28   23   25 1
    29   25   26 1
    30   26   27 2
    31   26   31 1
    32   27   28 1
    33   28   29 2
    34   29   30 1
    35   30   31 2
    36   31   32 1
    37    1   33 1
    38    1   34 1
    39    1   35 1
    40    3   36 1
    41    3   37 1
    42    4   38 1
    43    4   39 1
    44    6   40 1
    45    6   41 1
    46    7   42 1
    47    7   43 1
    48   12   44 1
    49   14   45 1
    50   15   46 1
    51   16   47 1
    52   19   48 1
    53   21   49 1
    54   25   50 1
    55   25   51 1
    56   27   52 1
    57   28   53 1
    58   29   54 1
    59   30   55 1
    60   32   56 1
    61   32   57 1
    62   32   58 1
@<TRIPOS>PROPERTY_DATA
  Total_Score	| 10.0398
  Crash		| -1.0500
  Polar		| 2.8380
  FragIndex	| 1
  FragRMSD	| 0.791

