@<TRIPOS>MOLECULE
BindingDB_50337332
 55 59 0 0 0
SMALL
NO_CHARGES


@<TRIPOS>ATOM
1    C        -6.6194   45.4579   -2.3866  C     
2    N         1.4522   46.2319   -0.5346  N     
3    C         1.6222   45.9104    0.8770  C     
4    C         0.3817   46.4120    1.6488  C     
5    N        -0.8136   45.7754    1.1282  N     
6    C        -1.0148   45.9564   -0.3064  C     
7    C         0.2680   45.6239   -1.1297  C     
8    C        -1.6716   45.0618    1.9311  C     
9    N        -2.8818   44.6018    1.4890  N     
10   N        -1.3728   44.7913    3.2343  N     
11   C        -3.7660   43.9057    2.2585  C     
12   N        -4.9777   43.4747    1.8438  N     
13   C        -3.3737   43.6382    3.5914  C     
14   C        -3.9891   42.9707    4.6537  C     
15   C        -3.1195   43.0498    5.7337  C     
16   C        -2.0045   43.7701    5.3073  C     
17   N        -2.1820   44.1047    4.0155  N     
18   C        -5.6398   43.7910    0.7098  C     
19   C        -5.3258   44.6677   -0.3227  C     
20   C        -6.4287   44.6641   -1.1653  C     
21   N        -7.3201   43.8124   -0.6384  N     
22   N        -6.8686   43.3017    0.4619  N     
23   C         2.3119   47.0495   -1.1813  C     
24   O         3.2842   47.5028   -0.5928  O     
25   C         2.2057   47.4898   -2.5609  C     
26   C         1.1700   48.5497   -2.7528  C     
27   C         0.1134   48.3692   -3.6862  C     
28   C        -0.8153   49.4058   -3.9498  C     
29   C        -0.6743   50.6579   -3.3096  C     
30   C         0.3657   50.8597   -2.3754  C     
31   C         1.2791   49.8140   -2.0971  C     
32   Cl       -1.7011   51.9514   -3.7186  Cl    
33   H        -6.5147   46.5212   -2.1579  H     
34   H        -7.6191   45.2857   -2.7957  H     
35   H        -5.8677   45.1756   -3.1324  H     
36   H         1.7056   44.8276    0.9917  H     
37   H         2.5033   46.3480    1.3472  H     
38   H         0.5452   46.2444    2.7159  H     
39   H         0.3060   47.4941    1.5041  H     
40   H        -1.8332   45.3408   -0.6925  H     
41   H        -1.2652   47.0011   -0.4960  H     
42   H         0.0943   45.9009   -2.1680  H     
43   H         0.4176   44.5372   -1.1272  H     
44   H        -5.4465   42.8824    2.4556  H     
45   H        -4.9045   42.5157    4.6434  H     
46   H        -3.2716   42.6575    6.6680  H     
47   H        -1.1884   44.0010    5.8798  H     
48   H        -4.4843   45.2297   -0.4214  H     
49   H        -8.1961   43.6148   -1.0086  H     
50   H         3.1565   47.9107   -2.9176  H     
51   H         2.0128   46.6065   -3.1801  H     
52   H         0.0130   47.4918   -4.2109  H     
53   H        -1.5540   49.2574   -4.6519  H     
54   H         0.4790   51.7751   -1.9280  H     
55   H         2.0451   49.9960   -1.4374  H     
@<TRIPOS>BOND
     1    1   20 1
     2    2    3 1
     3    2    7 1
     4    2   23 am
     5    3    4 1
     6    4    5 1
     7    5    6 1
     8    5    8 1
     9    6    7 1
    10    8    9 1
    11    8   10 2
    12    9   11 2
    13   10   17 1
    14   11   12 1
    15   11   13 1
    16   12   18 1
    17   13   14 2
    18   13   17 1
    19   14   15 1
    20   15   16 2
    21   16   17 1
    22   18   19 1
    23   18   22 2
    24   19   20 2
    25   20   21 1
    26   21   22 1
    27   23   24 2
    28   23   25 1
    29   25   26 1
    30   26   27 2
    31   26   31 1
    32   27   28 1
    33   28   29 2
    34   29   30 1
    35   29   32 1
    36   30   31 2
    37    1   33 1
    38    1   34 1
    39    1   35 1
    40    3   36 1
    41    3   37 1
    42    4   38 1
    43    4   39 1
    44    6   40 1
    45    6   41 1
    46    7   42 1
    47    7   43 1
    48   12   44 1
    49   14   45 1
    50   15   46 1
    51   16   47 1
    52   19   48 1
    53   21   49 1
    54   25   50 1
    55   25   51 1
    56   27   52 1
    57   28   53 1
    58   30   54 1
    59   31   55 1
@<TRIPOS>PROPERTY_DATA
  Total_Score	| 9.4871
  Crash		| -0.8704
  Polar		| 2.6654
  FragIndex	| 1
  FragRMSD	| 0.293

