@<TRIPOS>MOLECULE
BindingDB_50337347
 55 59 0 0 0
SMALL
NO_CHARGES


@<TRIPOS>ATOM
1    C        -6.4083   45.5244   -2.3913  C     
2    N         1.3528   46.4157   -0.8359  N     
3    C         0.0048   46.0787   -1.2577  C     
4    C        -0.7326   45.0052   -0.4224  C     
5    N        -0.5308   45.1305    1.0055  N     
6    C         0.7506   45.5990    1.4821  C     
7    C         1.8405   45.8139    0.3954  C     
8    C        -1.4822   44.6866    1.8955  C     
9    N        -2.7429   44.3393    1.4963  N     
10   N        -1.2049   44.5323    3.2216  N     
11   C        -3.7028   43.8412    2.3190  C     
12   N        -4.9535   43.5256    1.9120  N     
13   C        -3.3233   43.6432    3.6647  C     
14   C        -3.9856   43.1157    4.7701  C     
15   C        -3.1035   43.2061    5.8430  C     
16   C        -1.9285   43.7753    5.3613  C     
17   N        -2.0896   44.0332    4.0522  N     
18   C        -5.5789   43.8701    0.7652  C     
19   C        -5.2061   44.7191   -0.2804  C     
20   C        -6.2837   44.7448   -1.1525  C     
21   N        -7.2251   43.9427   -0.6257  N     
22   N        -6.8255   43.4390    0.4956  N     
23   C         2.1615   47.1859   -1.5995  C     
24   O         3.3199   47.3926   -1.2452  O     
25   C         1.8054   47.7891   -2.8908  C     
26   C         0.7812   48.8805   -2.9365  C     
27   C         0.9466   50.1169   -2.2456  C     
28   C        -0.0316   51.1215   -2.3299  C     
29   C        -1.1677   50.9432   -3.1445  C     
30   C        -1.3507   49.7336   -3.8454  C     
31   C        -0.3828   48.7143   -3.7463  C     
32   F        -0.5910   47.6055   -4.4228  F     
33   H        -6.2958   46.5861   -2.1655  H     
34   H        -7.3944   45.3739   -2.8428  H     
35   H        -5.6313   45.2238   -3.1022  H     
36   H        -0.6092   46.9818   -1.2317  H     
37   H         0.0111   45.7137   -2.2827  H     
38   H        -1.7818   45.0548   -0.7119  H     
39   H        -0.3609   44.0175   -0.7135  H     
40   H         0.5845   46.5506    2.0034  H     
41   H         1.1570   44.8823    2.2069  H     
42   H         2.2621   44.8428    0.1345  H     
43   H         2.6443   46.3839    0.8664  H     
44   H        -5.4870   43.0156    2.5458  H     
45   H        -4.9323   42.7372    4.7939  H     
46   H        -3.2938   42.9223    6.8094  H     
47   H        -1.0855   43.9579    5.9090  H     
48   H        -4.3436   45.2618   -0.3798  H     
49   H        -8.0933   43.7796   -1.0174  H     
50   H         2.6960   48.1882   -3.3736  H     
51   H         1.4734   46.9759   -3.5289  H     
52   H         1.7734   50.2798   -1.6626  H     
53   H         0.0841   51.9929   -1.7929  H     
54   H        -1.8667   51.6865   -3.2227  H     
55   H        -2.1922   49.6146   -4.4259  H     
@<TRIPOS>BOND
     1    1   20 1
     2    2    3 1
     3    2    7 1
     4    2   23 am
     5    3    4 1
     6    4    5 1
     7    5    6 1
     8    5    8 1
     9    6    7 1
    10    8    9 1
    11    8   10 2
    12    9   11 2
    13   10   17 1
    14   11   12 1
    15   11   13 1
    16   12   18 1
    17   13   14 2
    18   13   17 1
    19   14   15 1
    20   15   16 2
    21   16   17 1
    22   18   19 1
    23   18   22 2
    24   19   20 2
    25   20   21 1
    26   21   22 1
    27   23   24 2
    28   23   25 1
    29   25   26 1
    30   26   27 2
    31   26   31 1
    32   27   28 1
    33   28   29 2
    34   29   30 1
    35   30   31 2
    36   31   32 1
    37    1   33 1
    38    1   34 1
    39    1   35 1
    40    3   36 1
    41    3   37 1
    42    4   38 1
    43    4   39 1
    44    6   40 1
    45    6   41 1
    46    7   42 1
    47    7   43 1
    48   12   44 1
    49   14   45 1
    50   15   46 1
    51   16   47 1
    52   19   48 1
    53   21   49 1
    54   25   50 1
    55   25   51 1
    56   27   52 1
    57   28   53 1
    58   29   54 1
    59   30   55 1
@<TRIPOS>PROPERTY_DATA
  Total_Score	| 9.5995
  Crash		| -0.9305
  Polar		| 2.5189
  FragIndex	| 1
  FragRMSD	| 0.573

