@<TRIPOS>MOLECULE
BindingDB_50337334
 55 59 0 0 0
SMALL
NO_CHARGES


@<TRIPOS>ATOM
1    C        -6.4832   45.4618   -2.3258  C     
2    N         1.2843   46.4692   -0.5357  N     
3    C        -0.0644   46.3003   -1.0454  C     
4    C        -1.0335   45.4429   -0.1823  C     
5    N        -0.8366   45.5096    1.2525  N     
6    C         0.3088   46.2364    1.7490  C     
7    C         1.5416   46.0402    0.8309  C     
8    C        -1.7052   44.8550    2.0878  C     
9    N        -2.8981   44.3784    1.6241  N     
10   N        -1.4496   44.6479    3.4123  N     
11   C        -3.8190   43.7191    2.3753  C     
12   N        -5.0096   43.2934    1.8915  N     
13   C        -3.4662   43.4985    3.7261  C     
14   C        -4.1204   42.8735    4.7834  C     
15   C        -3.2866   42.9846    5.8882  C     
16   C        -2.1533   43.6809    5.4816  C     
17   N        -2.2900   43.9851    4.1790  N     
18   C        -5.6133   43.6480    0.7321  C     
19   C        -5.2769   44.5738   -0.2535  C     
20   C        -6.3346   44.5951   -1.1494  C     
21   N        -7.2236   43.6967   -0.7030  N     
22   N        -6.8153   43.1497    0.3967  N     
23   C         2.2457   47.0583   -1.2826  C     
24   O         3.3660   47.2231   -0.8090  O     
25   C         2.1063   47.5114   -2.6741  C     
26   C         1.1191   48.6180   -2.9046  C     
27   C         1.2278   49.8481   -2.1990  C     
28   C         0.3466   50.9135   -2.4550  C     
29   C        -0.6752   50.7724   -3.4122  C     
30   C        -0.8316   49.5507   -4.0912  C     
31   C         0.0620   48.4877   -3.8508  C     
32   Cl       -1.6724   52.0962   -3.7631  Cl    
33   F        -0.0920   47.4021   -4.5635  F     
34   F         2.1705   50.0443   -1.3103  F     
35   H        -6.4515   46.5077   -2.0160  H     
36   H        -7.4380   45.2714   -2.8202  H     
37   H        -5.6717   45.2700   -3.0291  H     
38   H        -0.5086   47.2948   -1.1275  H     
39   H        -0.0435   45.8520   -2.0438  H     
40   H        -2.0531   45.7474   -0.4382  H     
41   H        -0.9105   44.3966   -0.4796  H     
42   H         0.0522   47.3017    1.7682  H     
43   H         0.5927   45.9486    2.7658  H     
44   H         1.8121   44.9807    0.8177  H     
45   H         2.3696   46.5838    1.2966  H     
46   H        -5.5087   42.6891    2.4648  H     
47   H        -5.0383   42.4280    4.7625  H     
48   H        -3.4766   42.6307    6.8279  H     
49   H        -1.3615   43.9265    6.0783  H     
50   H        -4.4560   45.1767   -0.2934  H     
51   H        -8.0811   43.5118   -1.1134  H     
52   H         3.0666   47.8766   -3.0566  H     
53   H         1.8738   46.6303   -3.2773  H     
54   H         0.4871   51.8088   -1.9815  H     
55   H        -1.5781   49.4443   -4.7849  H     
@<TRIPOS>BOND
     1    1   20 1
     2    2    3 1
     3    2    7 1
     4    2   23 am
     5    3    4 1
     6    4    5 1
     7    5    6 1
     8    5    8 1
     9    6    7 1
    10    8    9 1
    11    8   10 2
    12    9   11 2
    13   10   17 1
    14   11   12 1
    15   11   13 1
    16   12   18 1
    17   13   14 2
    18   13   17 1
    19   14   15 1
    20   15   16 2
    21   16   17 1
    22   18   19 1
    23   18   22 2
    24   19   20 2
    25   20   21 1
    26   21   22 1
    27   23   24 2
    28   23   25 1
    29   25   26 1
    30   26   27 2
    31   26   31 1
    32   27   28 1
    33   27   34 1
    34   28   29 2
    35   29   30 1
    36   29   32 1
    37   30   31 2
    38   31   33 1
    39    1   35 1
    40    1   36 1
    41    1   37 1
    42    3   38 1
    43    3   39 1
    44    4   40 1
    45    4   41 1
    46    6   42 1
    47    6   43 1
    48    7   44 1
    49    7   45 1
    50   12   46 1
    51   14   47 1
    52   15   48 1
    53   16   49 1
    54   19   50 1
    55   21   51 1
    56   25   52 1
    57   25   53 1
    58   28   54 1
    59   30   55 1
@<TRIPOS>PROPERTY_DATA
  Total_Score	| 9.8175
  Crash		| -0.7091
  Polar		| 2.8187
  FragIndex	| 1
  FragRMSD	| 0.374

