@<TRIPOS>MOLECULE
BindingDB_50337343
 55 59 0 0 0
SMALL
NO_CHARGES


@<TRIPOS>ATOM
1    C        -6.4583   45.7111   -2.1311  C     
2    C         1.1578   48.9788   -2.5803  C     
3    C        -0.0499   49.2527   -1.8885  C     
4    C        -0.6844   50.5024   -2.0079  C     
5    C        -0.1303   51.4924   -2.8420  C     
6    C         1.0592   51.2297   -3.5438  C     
7    C         1.7043   49.9899   -3.4020  C     
8    C         1.7982   47.6365   -2.5119  C     
9    C         2.0508   47.1744   -1.1442  C     
10   N         1.2894   46.3051   -0.4422  N     
11   O         3.0682   47.6421   -0.6459  O     
12   C         1.6687   45.8352    0.8769  C     
13   C         0.4796   45.8666    1.8708  C     
14   N        -0.7228   45.2359    1.3692  N     
15   C        -0.8134   44.9093   -0.0418  C     
16   C         0.0494   45.7862   -0.9824  C     
17   C        -1.6690   44.7394    2.2241  C     
18   N        -2.8805   44.3162    1.7622  N     
19   N        -1.4412   44.5790    3.5610  N     
20   C        -3.8370   43.7208    2.5179  C     
21   N        -5.0376   43.3548    2.0093  N     
22   C        -3.4877   43.4809    3.8713  C     
23   C        -4.1165   42.8005    4.9106  C     
24   C        -3.2810   42.8892    6.0150  C     
25   C        -2.1632   43.6207    5.6260  C     
26   N        -2.3087   43.9564    4.3308  N     
27   C        -5.6214   43.7632    0.8548  C     
28   C        -5.2945   44.7688   -0.0541  C     
29   C        -6.3138   44.7932   -0.9933  C     
30   N        -7.1761   43.8326   -0.6359  N     
31   N        -6.7900   43.2411    0.4471  N     
32   H        -6.4723   46.7435   -1.7671  H     
33   H        -7.3927   45.5112   -2.6737  H     
34   H        -5.6100   45.5764   -2.8169  H     
35   H        -0.4786   48.5472   -1.2864  H     
36   H        -1.5579   50.6840   -1.5057  H     
37   H        -0.5969   52.3971   -2.9471  H     
38   H         1.4491   51.9295   -4.1783  H     
39   H         2.5597   49.8213   -3.9405  H     
40   H         1.1561   46.9600   -3.0725  H     
41   H         2.7536   47.6282   -3.0445  H     
42   H         2.0120   44.8005    0.7818  H     
43   H         2.4893   46.4017    1.3251  H     
44   H         0.8285   45.3871    2.7904  H     
45   H         0.2445   46.9088    2.1062  H     
46   H        -0.4990   43.8669   -0.1518  H     
47   H        -1.8420   44.9825   -0.4057  H     
48   H        -0.5792   46.6292   -1.2785  H     
49   H         0.2652   45.1909   -1.8756  H     
50   H        -5.5527   42.7303    2.5480  H     
51   H        -4.9986   42.2907    4.8674  H     
52   H        -3.4465   42.4730    6.9357  H     
53   H        -1.3510   43.8222    6.2127  H     
54   H        -4.5126   45.4226   -0.0077  H     
55   H        -8.0122   43.6422   -1.0870  H     
@<TRIPOS>BOND
     1    1   29 1
     2    2    3 2
     3    2    7 1
     4    2    8 1
     5    3    4 1
     6    4    5 2
     7    5    6 1
     8    6    7 2
     9    8    9 1
    10    9   10 am
    11    9   11 2
    12   10   12 1
    13   10   16 1
    14   12   13 1
    15   13   14 1
    16   14   15 1
    17   14   17 1
    18   15   16 1
    19   17   18 1
    20   17   19 2
    21   18   20 2
    22   19   26 1
    23   20   21 1
    24   20   22 1
    25   21   27 1
    26   22   23 2
    27   22   26 1
    28   23   24 1
    29   24   25 2
    30   25   26 1
    31   27   28 1
    32   27   31 2
    33   28   29 2
    34   29   30 1
    35   30   31 1
    36    1   32 1
    37    1   33 1
    38    1   34 1
    39    3   35 1
    40    4   36 1
    41    5   37 1
    42    6   38 1
    43    7   39 1
    44    8   40 1
    45    8   41 1
    46   12   42 1
    47   12   43 1
    48   13   44 1
    49   13   45 1
    50   15   46 1
    51   15   47 1
    52   16   48 1
    53   16   49 1
    54   21   50 1
    55   23   51 1
    56   24   52 1
    57   25   53 1
    58   28   54 1
    59   30   55 1
@<TRIPOS>PROPERTY_DATA
  Total_Score	| 9.6815
  Crash		| -0.9286
  Polar		| 2.7777
  FragIndex	| 1
  FragRMSD	| 0.764

