@<TRIPOS>MOLECULE
BindingDB_50351572
 31 33 0 0 0
SMALL
NO_CHARGES


@<TRIPOS>ATOM
1    C         2.7844    3.3619    8.3307  C     
2    N         3.8826    2.9706    9.0008  N     
3    O        -0.6473    3.1122    8.6222  O     
4    C         0.4356    3.4377    8.1606  C     
5    N         1.5438    3.0581    8.7982  N     
6    O         2.2905    6.4275    3.0927  O     
7    C         0.5232    4.1507    6.9724  C     
8    N         2.9069    4.0639    7.1734  N     
9    O         2.1061    8.8467    1.5204  O     
10   C         1.8112    4.4568    6.4872  C     
11   N         1.9258    5.1286    5.3242  N     
12   C         0.8602    5.5346    4.5739  C     
13   N        -0.5478    4.5467    6.2461  N     
14   C        -0.4313    5.2201    5.0757  C     
15   N         0.1391    6.5681    2.5617  N     
16   C         1.1228    6.2108    3.3841  C     
17   C         0.1902    7.2525    1.2997  C     
18   C         1.5125    7.7947    0.9035  C     
19   C         2.4358    7.1861    0.0583  C     
20   C         3.6198    7.8944    0.1841  C     
21   C         3.3800    8.9242    1.0858  C     
22   H         4.7649    3.1703    8.6404  H     
23   H         3.7999    2.5146    9.8590  H     
24   H         1.4733    2.5389    9.6146  H     
25   H        -1.2834    5.4850    4.5840  H     
26   H        -0.7485    6.2982    2.8382  H     
27   H        -0.1602    6.5545    0.5351  H     
28   H        -0.5136    8.0815    1.3485  H     
29   H         2.3063    6.3225   -0.4642  H     
30   H         4.5214    7.6496   -0.2328  H     
31   H         4.0817    9.5727    1.4438  H     
@<TRIPOS>BOND
     1    1    2 1
     2    1    5 1
     3    1    8 2
     4    3    4 2
     5    4    5 1
     6    4    7 1
     7    6   16 2
     8    7   10 1
     9    7   13 2
    10    8   10 1
    11    9   18 1
    12    9   21 1
    13   10   11 2
    14   11   12 1
    15   12   14 2
    16   12   16 1
    17   13   14 1
    18   15   16 am
    19   15   17 1
    20   17   18 1
    21   18   19 2
    22   19   20 1
    23   20   21 2
    24    2   22 1
    25    2   23 1
    26    5   24 1
    27   14   25 1
    28   15   26 1
    29   17   27 1
    30   17   28 1
    31   19   29 1
    32   20   30 1
    33   21   31 1
@<TRIPOS>PROPERTY_DATA
  Total_Score	| 7.0105
  Crash		| -1.8008
  Polar		| 5.5263
  FragIndex	| 1
  FragRMSD	| 0.158

