@<TRIPOS>MOLECULE
BindingDB_50351577
 22 23 0 0 0
SMALL
NO_CHARGES


@<TRIPOS>ATOM
1    N         1.6240    3.1162    8.8615  N     
2    C         2.8566    3.4656    8.4114  C     
3    N         2.9664    4.1715    7.2622  N     
4    C         0.5106    3.4617    8.2196  C     
5    C         0.5735    4.1730    7.0327  C     
6    C         1.8561    4.5179    6.5480  C     
7    N         1.9548    5.1898    5.3740  N     
8    C         0.8812    5.5600    4.6209  C     
9    C        -0.3966    5.2076    5.1244  C     
10   N        -0.5124    4.5361    6.3011  N     
11   O        -0.5686    3.0985    8.6735  O     
12   N         3.9509    3.1117    9.1017  N     
13   C         1.1041    6.2443    3.4314  C     
14   O         2.2589    6.4178    3.0569  O     
15   C         0.0406    6.7754    2.5938  C     
16   H         1.5577    2.5893    9.6754  H     
17   H        -1.2560    5.4426    4.6174  H     
18   H         4.8326    3.3127    8.7474  H     
19   H         3.8673    2.6587    9.9650  H     
20   H        -0.5962    5.9799    2.2331  H     
21   H         0.4571    7.3006    1.7173  H     
22   H        -0.5514    7.4960    3.1614  H     
@<TRIPOS>BOND
     1    1    2 1
     2    1    4 1
     3    2    3 2
     4    2   12 1
     5    3    6 1
     6    4    5 1
     7    4   11 2
     8    5    6 2
     9    5   10 1
    10    6    7 1
    11    7    8 2
    12    8    9 1
    13    8   13 1
    14    9   10 2
    15   13   14 2
    16   13   15 1
    17    1   16 1
    18    9   17 1
    19   12   18 1
    20   12   19 1
    21   15   20 1
    22   15   21 1
    23   15   22 1
@<TRIPOS>PROPERTY_DATA
  Total_Score	| 6.5679
  Crash		| -1.7719
  Polar		| 5.5960
  FragIndex	| 1
  FragRMSD	| 0.171

