@<TRIPOS>MOLECULE
BindingDB_50351574
 39 41 0 0 0
SMALL
NO_CHARGES


@<TRIPOS>ATOM
1    N         1.5077    3.0373    8.7666  N     
2    C         2.7517    3.3473    8.3195  C     
3    N         2.9027    4.0532    7.1704  N     
4    C         0.4127    3.4172    8.1098  C     
5    C         0.5205    4.1255    6.9151  C     
6    C         1.8149    4.4500    6.4507  C     
7    N         1.9376    5.1265    5.2798  N     
8    C         0.8772    5.5008    4.5045  C     
9    C        -0.4111    5.1284    4.9670  C     
10   N        -0.5418    4.4720    6.1477  N     
11   O        -0.6773    3.0917    8.5506  O     
12   N         3.8441    2.9845    9.0032  N     
13   C         1.1097    6.2328    3.3301  C     
14   O         2.2608    6.5022    3.0117  O     
15   N         0.1071    6.6137    2.5409  N     
16   C         0.1430    7.3484    1.3073  C     
17   C        -0.6720    8.6724    1.3374  C     
18   N        -1.9254    8.4968    2.0213  N     
19   C        -2.1799    8.8478    3.3060  C     
20   C        -2.0504   10.1591    3.8326  C     
21   C        -2.2664   10.4078    5.2021  C     
22   C        -2.5331    9.3436    6.0781  C     
23   C        -2.6184    8.0345    5.5764  C     
24   C        -2.5263    7.7993    4.1906  C     
25   H         1.4109    2.5171    9.5794  H     
26   H        -1.2625    5.3385    4.4368  H     
27   H         4.7203    3.2032    8.6469  H     
28   H         3.7592    2.5657    9.8798  H     
29   H        -0.7591    6.2572    2.7780  H     
30   H         1.1735    7.5618    0.9991  H     
31   H        -0.2912    6.6934    0.5530  H     
32   H        -0.0680    9.4614    1.7943  H     
33   H        -0.8724    8.9894    0.3083  H     
34   H        -2.5152    7.8199    1.6419  H     
35   H        -1.8481   10.9507    3.2213  H     
36   H        -2.2545   11.3691    5.5547  H     
37   H        -2.7057    9.5241    7.0705  H     
38   H        -2.7734    7.2508    6.2191  H     
39   H        -2.6484    6.8438    3.8407  H     
@<TRIPOS>BOND
     1    1    2 1
     2    1    4 1
     3    2    3 2
     4    2   12 1
     5    3    6 1
     6    4    5 1
     7    4   11 2
     8    5    6 2
     9    5   10 1
    10    6    7 1
    11    7    8 2
    12    8    9 1
    13    8   13 1
    14    9   10 2
    15   13   14 2
    16   13   15 am
    17   15   16 1
    18   16   17 1
    19   17   18 1
    20   18   19 1
    21   19   20 2
    22   19   24 1
    23   20   21 1
    24   21   22 2
    25   22   23 1
    26   23   24 2
    27    1   25 1
    28    9   26 1
    29   12   27 1
    30   12   28 1
    31   15   29 1
    32   16   30 1
    33   16   31 1
    34   17   32 1
    35   17   33 1
    36   18   34 1
    37   20   35 1
    38   21   36 1
    39   22   37 1
    40   23   38 1
    41   24   39 1
@<TRIPOS>PROPERTY_DATA
  Total_Score	| 8.3871
  Crash		| -2.0100
  Polar		| 6.5547
  FragIndex	| 1
  FragRMSD	| 0.196

