@<TRIPOS>MOLECULE
BindingDB_50351569
 19 20 0 0 0
SMALL
NO_CHARGES


@<TRIPOS>ATOM
1    C         2.7643    3.1870    8.4255  C     
2    N         3.8565    2.7943    9.1035  N     
3    O        -0.6735    3.0887    8.7265  O     
4    C         0.4220    3.3568    8.2617  C     
5    N         1.5114    2.9560    8.9095  N     
6    O         0.1194    6.6896    2.7696  O     
7    C         0.5345    4.0514    7.0661  C     
8    N         2.9175    3.8308    7.2362  N     
9    O         2.3946    6.3604    3.0391  O     
10   C         1.8342    4.2823    6.5531  C     
11   N         1.9644    4.9755    5.3956  N     
12   C         0.9038    5.4609    4.6916  C     
13   N        -0.5336    4.5233    6.3695  N     
14   C        -0.3920    5.2134    5.2048  C     
15   C         1.1364    6.1831    3.5048  C     
16   H         4.7351    2.9669    8.7234  H     
17   H         3.7753    2.3894    9.9809  H     
18   H         3.8132    3.9841    6.8870  H     
19   H        -1.2320    5.5392    4.7232  H     
@<TRIPOS>BOND
     1    1    2 1
     2    1    5 2
     3    1    8 1
     4    3    4 2
     5    4    5 1
     6    4    7 1
     7    6   15 1
     8    7   10 1
     9    7   13 2
    10    8   10 1
    11    9   15 2
    12   10   11 2
    13   11   12 1
    14   12   14 2
    15   12   15 1
    16   13   14 1
    17    2   16 1
    18    2   17 1
    19    8   18 1
    20   14   19 1
@<TRIPOS>PROPERTY_DATA
  Total_Score	| 10.5000
  Crash		| -0.4191
  Polar		| 8.0040
  FragIndex	| 1
  FragRMSD	| 0.012

