@<TRIPOS>MOLECULE
BindingDB_50351573
 34 36 0 0 0
SMALL
NO_CHARGES


@<TRIPOS>ATOM
1    N         2.0474    3.2917    9.0938  N     
2    C         3.1831    3.8687    8.6278  C     
3    N         3.1609    4.5596    7.4590  N     
4    C         0.8895    3.3849    8.4402  C     
5    C         0.8118    4.0771    7.2339  C     
6    C         2.0048    4.6554    6.7451  C     
7    N         1.9771    5.2942    5.5518  N     
8    C         0.8585    5.4277    4.7835  C     
9    C        -0.3394    4.8728    5.3028  C     
10   N        -0.3239    4.2204    6.4983  N     
11   O        -0.0853    2.8166    8.9045  O     
12   N         4.3150    3.7518    9.3351  N     
13   C         0.9604    6.0843    3.5642  C     
14   O         2.0786    6.4482    3.2099  O     
15   N        -0.0975    6.2964    2.7840  N     
16   C        -0.1824    6.9784    1.5161  C     
17   C         1.0382    7.7099    1.0717  C     
18   C         1.9156    7.1533    0.1127  C     
19   C         3.1644    7.7513   -0.1499  C     
20   C         3.5448    8.9189    0.5343  C     
21   C         2.6564    9.5134    1.4493  C     
22   C         1.4094    8.9140    1.7133  C     
23   F         4.7203    9.4438    0.3300  F     
24   H         2.0982    2.7996    9.9292  H     
25   H        -1.2269    4.9341    4.7945  H     
26   H         5.1343    4.1449    9.0030  H     
27   H         4.3162    3.2731   10.1815  H     
28   H        -0.9328    5.9149    3.0954  H     
29   H        -0.4851    6.2387    0.7697  H     
30   H        -1.0030    7.7021    1.5834  H     
31   H         1.6799    6.2778   -0.3603  H     
32   H         3.8102    7.3087   -0.8090  H     
33   H         2.9323   10.3535    1.9629  H     
34   H         0.7947    9.3386    2.4113  H     
@<TRIPOS>BOND
     1    1    2 1
     2    1    4 1
     3    2    3 2
     4    2   12 1
     5    3    6 1
     6    4    5 1
     7    4   11 2
     8    5    6 2
     9    5   10 1
    10    6    7 1
    11    7    8 2
    12    8    9 1
    13    8   13 1
    14    9   10 2
    15   13   14 2
    16   13   15 am
    17   15   16 1
    18   16   17 1
    19   17   18 2
    20   17   22 1
    21   18   19 1
    22   19   20 2
    23   20   21 1
    24   20   23 1
    25   21   22 2
    26    1   24 1
    27    9   25 1
    28   12   26 1
    29   12   27 1
    30   15   28 1
    31   16   29 1
    32   16   30 1
    33   18   31 1
    34   19   32 1
    35   21   33 1
    36   22   34 1
@<TRIPOS>PROPERTY_DATA
  Total_Score	| 7.3279
  Crash		| -1.9505
  Polar		| 4.8640
  FragIndex	| 1
  FragRMSD	| 0.788

