@<TRIPOS>MOLECULE
BindingDB_50351575
 23 24 0 0 0
SMALL
NO_CHARGES


@<TRIPOS>ATOM
1    N         1.6077    3.1235    8.8636  N     
2    C         2.8377    3.4636    8.4030  C     
3    N         2.9410    4.1624    7.2370  N     
4    C         0.4929    3.4545    8.2236  C     
5    C         0.5529    4.1513    7.0257  C     
6    C         1.8319    4.4974    6.5298  C     
7    N         1.9085    5.1562    5.3386  N     
8    C         0.8188    5.4989    4.6006  C     
9    C        -0.4578    5.1375    5.1207  C     
10   N        -0.5396    4.4870    6.3060  N     
11   O        -0.5854    3.0971    8.6717  O     
12   N         3.9333    3.1157    9.0948  N     
13   C         1.0002    6.1770    3.4005  C     
14   O         2.1503    6.4215    3.0417  O     
15   N        -0.0053    6.5557    2.6247  N     
16   N         0.1066    7.1743    1.5294  N     
17   H         1.5442    2.6049    9.6764  H     
18   H        -1.3249    5.3500    4.6355  H     
19   H         4.8090    3.3155    8.7256  H     
20   H         3.8447    2.6830    9.9630  H     
21   H        -0.9030    6.3447    2.9156  H     
22   H        -0.6626    7.4048    1.0503  H     
23   H         0.9477    7.4050    1.1924  H     
@<TRIPOS>BOND
     1    1    2 1
     2    1    4 1
     3    2    3 2
     4    2   12 1
     5    3    6 1
     6    4    5 1
     7    4   11 2
     8    5    6 2
     9    5   10 1
    10    6    7 1
    11    7    8 2
    12    8    9 1
    13    8   13 1
    14    9   10 2
    15   13   14 2
    16   13   15 am
    17   15   16 1
    18    1   17 1
    19    9   18 1
    20   12   19 1
    21   12   20 1
    22   15   21 1
    23   16   22 1
    24   16   23 1
@<TRIPOS>PROPERTY_DATA
  Total_Score	| 6.1844
  Crash		| -1.7759
  Polar		| 5.5646
  FragIndex	| 1
  FragRMSD	| 0.606

