@<TRIPOS>MOLECULE
BindingDB_50351570
 24 25 0 0 0
SMALL
NO_CHARGES


@<TRIPOS>ATOM
1    N         1.5868    3.1509    8.8529  N     
2    C         2.8183    3.4656    8.3794  C     
3    N         2.9348    4.1514    7.2152  N     
4    C         0.4713    3.4968    8.2168  C     
5    C         0.5414    4.1971    7.0247  C     
6    C         1.8225    4.5202    6.5199  C     
7    N         1.8974    5.1783    5.3305  N     
8    C         0.8051    5.5451    4.6006  C     
9    C        -0.4679    5.2141    5.1289  C     
10   N        -0.5511    4.5564    6.3110  N     
11   O        -0.6116    3.1614    8.6677  O     
12   N         3.9120    3.0984    9.0570  N     
13   C         1.0019    6.2196    3.3980  C     
14   O         2.1489    6.4473    3.0306  O     
15   N        -0.0113    6.6206    2.6389  N     
16   C         0.0824    7.3295    1.4020  C     
17   H         1.5095    2.6357    9.6711  H     
18   H        -1.3400    5.4536    4.6487  H     
19   H         4.7903    3.2825    8.6850  H     
20   H         3.8283    2.6653    9.9274  H     
21   H        -0.9079    6.4149    2.9497  H     
22   H         0.5762    8.2913    1.5362  H     
23   H        -0.9263    7.5049    1.0441  H     
24   H         0.6205    6.7482    0.6537  H     
@<TRIPOS>BOND
     1    1    2 1
     2    1    4 1
     3    2    3 2
     4    2   12 1
     5    3    6 1
     6    4    5 1
     7    4   11 2
     8    5    6 2
     9    5   10 1
    10    6    7 1
    11    7    8 2
    12    8    9 1
    13    8   13 1
    14    9   10 2
    15   13   14 2
    16   13   15 am
    17   15   16 1
    18    1   17 1
    19    9   18 1
    20   12   19 1
    21   12   20 1
    22   15   21 1
    23   16   22 1
    24   16   23 1
    25   16   24 1
@<TRIPOS>PROPERTY_DATA
  Total_Score	| 5.9372
  Crash		| -1.8935
  Polar		| 5.5622
  FragIndex	| 1
  FragRMSD	| 0.606

