@<TRIPOS>MOLECULE
BindingDB_50351576
 25 26 0 0 0
SMALL
NO_CHARGES


@<TRIPOS>ATOM
1    N         1.5610    3.0385    8.8082  N     
2    C         2.7950    3.4228    8.3734  C     
3    N         2.8987    4.1847    7.2532  N     
4    C         0.4429    3.3867    8.1682  C     
5    C         0.5048    4.1379    7.0026  C     
6    C         1.7876    4.5284    6.5524  C     
7    N         1.8806    5.2206    5.3941  N     
8    C         0.8154    5.5780    4.6251  C     
9    C        -0.4651    5.1776    5.0910  C     
10   N        -0.5729    4.4845    6.2560  N     
11   O        -0.6325    2.9957    8.6032  O     
12   N         3.9011    3.0621    9.0405  N     
13   C         1.0562    6.2956    3.4583  C     
14   O         2.2159    6.4620    3.1042  O     
15   C        -0.0015    6.8603    2.6298  C     
16   C         0.4477    7.7287    1.4173  C     
17   H         1.4941    2.4692    9.5942  H     
18   H        -1.3187    5.3811    4.5782  H     
19   H         4.7620    3.3144    8.6783  H     
20   H         3.8461    2.5703    9.8809  H     
21   H        -0.6178    6.0446    2.2418  H     
22   H        -0.6418    7.4939    3.2573  H     
23   H         0.9849    8.6215    1.7632  H     
24   H        -0.4284    8.0466    0.8510  H     
25   H         1.1045    7.1525    0.7571  H     
@<TRIPOS>BOND
     1    1    2 1
     2    1    4 1
     3    2    3 2
     4    2   12 1
     5    3    6 1
     6    4    5 1
     7    4   11 2
     8    5    6 2
     9    5   10 1
    10    6    7 1
    11    7    8 2
    12    8    9 1
    13    8   13 1
    14    9   10 2
    15   13   14 2
    16   13   15 1
    17   15   16 1
    18    1   17 1
    19    9   18 1
    20   12   19 1
    21   12   20 1
    22   15   21 1
    23   15   22 1
    24   16   23 1
    25   16   24 1
    26   16   25 1
@<TRIPOS>PROPERTY_DATA
  Total_Score	| 6.5561
  Crash		| -1.5749
  Polar		| 5.3423
  FragIndex	| 1
  FragRMSD	| 0.645

