@<TRIPOS>MOLECULE
BindingDB_50351571
 33 35 0 0 0
SMALL
NO_CHARGES


@<TRIPOS>ATOM
1    N         1.5426    3.0686    8.8283  N     
2    C         2.7875    3.4086    8.3962  C     
3    N         2.9216    4.1299    7.2499  N     
4    C         0.4444    3.4249    8.1739  C     
5    C         0.5318    4.1484    6.9888  C     
6    C         1.8264    4.4864    6.5342  C     
7    N         1.9523    5.1560    5.3639  N     
8    C         0.8918    5.5363    4.5892  C     
9    C        -0.3974    5.1942    5.0647  C     
10   N        -0.5352    4.5193    6.2380  N     
11   O        -0.6431    3.0795    8.6145  O     
12   N         3.8736    3.0452    9.0922  N     
13   C         1.1450    6.2065    3.4042  C     
14   O         2.3234    6.3582    3.0983  O     
15   N         0.1579    6.6330    2.6036  N     
16   C         0.2059    7.2836    1.3224  C     
17   C         1.4712    7.9456    0.9084  C     
18   C         2.4248    7.2685    0.1066  C     
19   C         3.7023    7.8321   -0.0571  C     
20   C         4.0134    9.0626    0.5497  C     
21   C         3.0278    9.7063    1.3214  C     
22   N         1.8159    9.1166    1.5017  N     
23   H         1.4685    2.5439    9.6353  H     
24   H        -1.2397    5.4358    4.5400  H     
25   H         4.7539    3.2683    8.7395  H     
26   H         3.7835    2.5898    9.9468  H     
27   H        -0.7345    6.4194    2.9110  H     
28   H        -0.1118    6.5586    0.5762  H     
29   H        -0.5708    8.0605    1.3358  H     
30   H         2.2120    6.3594   -0.3121  H     
31   H         4.4122    7.3404   -0.6007  H     
32   H         4.9425    9.4730    0.4476  H     
33   H         3.2229   10.6069    1.7667  H     
@<TRIPOS>BOND
     1    1    2 1
     2    1    4 1
     3    2    3 2
     4    2   12 1
     5    3    6 1
     6    4    5 1
     7    4   11 2
     8    5    6 2
     9    5   10 1
    10    6    7 1
    11    7    8 2
    12    8    9 1
    13    8   13 1
    14    9   10 2
    15   13   14 2
    16   13   15 am
    17   15   16 1
    18   16   17 1
    19   17   18 2
    20   17   22 1
    21   18   19 1
    22   19   20 2
    23   20   21 1
    24   21   22 2
    25    1   23 1
    26    9   24 1
    27   12   25 1
    28   12   26 1
    29   15   27 1
    30   16   28 1
    31   16   29 1
    32   18   30 1
    33   19   31 1
    34   20   32 1
    35   21   33 1
@<TRIPOS>PROPERTY_DATA
  Total_Score	| 7.6019
  Crash		| -1.7381
  Polar		| 5.5638
  FragIndex	| 1
  FragRMSD	| 0.170

