@<TRIPOS>MOLECULE
BindingDB_50173539
 61 65 0 0 0
SMALL
NO_CHARGES


@<TRIPOS>ATOM
1    N        -5.5413   25.8271   -1.1437  N     
2    C        -5.2498   24.5207   -1.3344  C     
3    C        -6.8248   26.4346   -1.4485  C     
4    N        -3.9932   24.0969   -1.1947  N     
5    C        -4.5291   26.6673   -0.7645  C     
6    O        -7.8910   25.5623   -1.8669  O     
7    C        -7.4796   27.2044   -0.2813  C     
8    C        -3.2675   26.2308   -0.6144  C     
9    C        -3.0070   24.9250   -0.8635  C     
10   C        -8.4130   27.3064   -5.4652  C     
11   C        -9.1228   26.3090   -1.7918  C     
12   O        -8.5097   27.1021   -4.0230  O     
13   C        -8.8651   27.5183   -0.8569  C     
14   O        -6.0605   23.6702   -1.6760  O     
15   C        -9.6170   26.6531   -3.2238  C     
16   O        -1.8646   24.4987   -0.8165  O     
17   C        -9.3193   26.3625   -6.2533  C     
18   C        -8.7859   28.7317   -5.8350  C     
19   C        -6.9210   27.0279   -5.6079  C     
20   O        -9.8464   27.6598    0.1703  O     
21   C        -5.9528   27.9910   -6.0109  C     
22   C        -6.4172   25.7507   -5.2233  C     
23   C        -9.0304   29.7358   -4.8594  C     
24   C        -8.8683   29.1208   -7.2009  C     
25   C       -10.7344   26.4615   -6.1194  C     
26   C        -8.8374   25.4145   -7.2017  C     
27   C        -9.2158   30.4318   -7.5705  C     
28   C        -4.5755   27.7011   -6.0225  C     
29   C        -5.0437   25.4496   -5.2434  C     
30   C       -11.6141   25.5954   -6.7965  C     
31   C        -9.7106   24.5499   -7.8907  C     
32   C        -9.3708   31.0515   -5.2283  C     
33   C       -11.0969   24.6253   -7.6691  C     
34   C        -4.1195   26.4310   -5.6351  C     
35   C        -9.4771   31.3970   -6.5845  C     
36   H        -6.6353   27.1357   -2.2755  H     
37   H        -3.7793   23.1677   -1.3611  H     
38   H        -4.6963   27.6341   -0.6215  H     
39   H        -7.5562   26.5619    0.6039  H     
40   H        -6.9418   28.1214   -0.0237  H     
41   H        -2.5489   26.8553   -0.3397  H     
42   H        -9.8646   25.6521   -1.3304  H     
43   H        -8.8212   28.4503   -1.4298  H     
44   H       -10.0302   25.7396   -3.6518  H     
45   H       -10.3975   27.4136   -3.1789  H     
46   H        -9.5720   28.4506    0.6836  H     
47   H        -6.2298   28.9356   -6.2762  H     
48   H        -7.0622   25.0202   -4.9095  H     
49   H        -8.9499   29.5270   -3.8614  H     
50   H        -8.6655   28.4430   -7.9420  H     
51   H       -11.1437   27.1715   -5.5132  H     
52   H        -7.8422   25.3394   -7.4163  H     
53   H        -9.2817   30.6875   -8.5579  H     
54   H        -3.9006   28.4174   -6.3064  H     
55   H        -4.7131   24.5216   -4.9682  H     
56   H       -12.6284   25.6687   -6.6536  H     
57   H        -9.3393   23.8697   -8.5594  H     
58   H        -9.5515   31.7554   -4.5090  H     
59   H       -11.7316   23.9969   -8.1698  H     
60   H        -3.1178   26.2219   -5.6414  H     
61   H        -9.7321   32.3469   -6.8579  H     
@<TRIPOS>BOND
     1    1    2 1
     2    1    3 1
     3    1    5 1
     4    2    4 1
     5    2   14 2
     6    3    6 1
     7    3    7 1
     8    4    9 1
     9    5    8 2
    10    6   11 1
    11    7   13 1
    12    8    9 1
    13    9   16 2
    14   10   12 1
    15   10   17 1
    16   10   18 1
    17   10   19 1
    18   11   13 1
    19   11   15 1
    20   12   15 1
    21   13   20 1
    22   17   25 2
    23   17   26 1
    24   18   23 2
    25   18   24 1
    26   19   21 2
    27   19   22 1
    28   21   28 1
    29   22   29 2
    30   23   32 1
    31   24   27 2
    32   25   30 1
    33   26   31 2
    34   27   35 1
    35   28   34 2
    36   29   34 1
    37   30   33 2
    38   31   33 1
    39   32   35 2
    40    3   36 1
    41    4   37 1
    42    5   38 1
    43    7   39 1
    44    7   40 1
    45    8   41 1
    46   11   42 1
    47   13   43 1
    48   15   44 1
    49   15   45 1
    50   20   46 1
    51   21   47 1
    52   22   48 1
    53   23   49 1
    54   24   50 1
    55   25   51 1
    56   26   52 1
    57   27   53 1
    58   28   54 1
    59   29   55 1
    60   30   56 1
    61   31   57 1
    62   32   58 1
    63   33   59 1
    64   34   60 1
    65   35   61 1
@<TRIPOS>PROPERTY_DATA
  Total_Score	| 5.3520
  Crash		| -1.6001
  Polar		| 0.9028
  FragIndex	| 1
  FragRMSD	| 0.783

