@<TRIPOS>MOLECULE
BindingDB_50173559
 30 31 0 0 0
SMALL
NO_CHARGES


@<TRIPOS>ATOM
1    N        -5.5639   26.0174   -0.6470  N     
2    C        -5.3132   24.7223   -0.9702  C     
3    C        -6.8716   26.6539   -0.4658  C     
4    N        -4.0635   24.2961   -1.1073  N     
5    C        -4.4788   26.8398   -0.4506  C     
6    O        -7.0671   27.7022   -1.4484  O     
7    C        -8.1929   25.8442   -0.4580  C     
8    C        -3.2157   26.4018   -0.5924  C     
9    C        -3.0112   25.0970   -0.9157  C     
10   C        -8.1719   27.3428   -2.2853  C     
11   C        -9.1544   26.6470   -1.3370  C     
12   O        -6.1387   23.8486   -1.1908  O     
13   O        -1.8879   24.6434   -1.0748  O     
14   O       -10.0821   25.8327   -2.0559  O     
15   N        -9.3314   28.2380   -4.3127  N     
16   C        -8.7607   28.5856   -3.0011  C     
17   H        -6.8070   27.1614    0.5116  H     
18   H        -3.8819   23.3767   -1.3707  H     
19   H        -4.6010   27.8050   -0.2150  H     
20   H        -8.0862   24.8788   -0.9249  H     
21   H        -8.5740   25.7367    0.5652  H     
22   H        -2.4582   27.0264   -0.5019  H     
23   H        -7.8240   26.6328   -3.0498  H     
24   H        -9.6975   27.3798   -0.7256  H     
25   H       -10.0875   24.9810   -1.5761  H     
26   H        -8.5817   27.9558   -4.9464  H     
27   H        -9.8173   29.0459   -4.7003  H     
28   H        -9.9929   27.4670   -4.2042  H     
29   H        -9.5355   29.0365   -2.3778  H     
30   H        -7.9684   29.3196   -3.1483  H     
@<TRIPOS>BOND
     1    1    2 1
     2    1    3 1
     3    1    5 1
     4    2    4 1
     5    2   12 2
     6    3    6 1
     7    3    7 1
     8    4    9 1
     9    5    8 2
    10    6   10 1
    11    7   11 1
    12    8    9 1
    13    9   13 2
    14   10   11 1
    15   10   16 1
    16   11   14 1
    17   15   16 1
    18    3   17 1
    19    4   18 1
    20    5   19 1
    21    7   20 1
    22    7   21 1
    23    8   22 1
    24   10   23 1
    25   11   24 1
    26   14   25 1
    27   15   26 1
    28   15   27 1
    29   15   28 1
    30   16   29 1
    31   16   30 1
@<TRIPOS>PROPERTY_DATA
  Total_Score	| 2.1779
  Crash		| -1.6043
  Polar		| 2.0424
  FragIndex	| 1
  FragRMSD	| 1.322

