@<TRIPOS>MOLECULE
BindingDB_50173569
 55 59 0 0 0
SMALL
NO_CHARGES


@<TRIPOS>ATOM
1    N        -5.5364   26.0759   -0.5677  N     
2    C        -5.3949   24.9637   -1.3394  C     
3    C        -6.7911   26.8120   -0.4182  C     
4    C        -9.8458   26.6617   -6.4713  C     
5    N        -4.1677   24.4982   -1.5786  N     
6    C        -4.4038   26.6676   -0.0496  C     
7    O        -6.9827   27.5669   -1.6234  O     
8    C        -8.0857   26.0119   -0.1177  C     
9    C        -3.1802   26.1938   -0.3198  C     
10   C        -3.0686   25.0700   -1.0875  C     
11   C       -10.1251   25.2631   -7.0805  C     
12   C        -9.2510   26.7104   -5.1531  C     
13   C       -10.6726   25.8459   -8.3996  C     
14   C        -8.1468   27.0688   -2.2530  C     
15   C       -11.2688   27.3103   -6.5685  C     
16   C        -8.8951   27.2612   -7.5671  C     
17   C        -9.4708   26.6973   -8.8900  C     
18   C       -11.8398   26.7574   -7.9075  C     
19   C        -9.0795   26.6426   -1.1109  C     
20   N        -9.3413   27.8270   -4.4363  N     
21   O        -6.3136   24.3817   -1.8924  O     
22   C        -8.6889   28.1722   -3.2086  C     
23   O        -8.7481   25.6802   -4.6882  O     
24   O        -1.9876   24.5980   -1.3802  O     
25   O       -10.1062   25.7496   -1.5612  O     
26   C       -12.2504   27.8299   -8.9618  C     
27   C        -9.8654   27.7611   -9.9522  C     
28   C       -11.0604   28.6588   -9.5169  C     
29   H        -6.7117   27.5849    0.3746  H     
30   H        -4.0601   23.7373   -2.1849  H     
31   H        -4.4670   27.5049    0.5072  H     
32   H        -7.9451   24.9509   -0.3089  H     
33   H        -8.4164   26.1232    0.9159  H     
34   H        -2.3706   26.6517    0.0471  H     
35   H        -9.2233   24.6549   -7.2269  H     
36   H       -10.8691   24.6743   -6.5219  H     
37   H       -10.9930   25.0717   -9.1100  H     
38   H        -7.8521   26.2013   -2.8265  H     
39   H       -11.9008   26.9716   -5.7375  H     
40   H       -11.2273   28.4021   -6.5416  H     
41   H        -8.8750   28.3509   -7.5310  H     
42   H        -7.8782   26.8990   -7.4289  H     
43   H        -8.7308   26.0293   -9.3504  H     
44   H       -12.7169   26.1355   -7.6976  H     
45   H        -9.5524   27.5065   -0.6559  H     
46   H        -9.7802   28.5571   -4.8906  H     
47   H        -9.4053   28.8122   -2.6619  H     
48   H        -7.8625   28.8270   -3.5085  H     
49   H        -9.6413   24.9608   -1.8998  H     
50   H       -12.7269   27.3144   -9.8035  H     
51   H       -12.9898   28.5047   -8.5297  H     
52   H        -9.0087   28.3895  -10.1780  H     
53   H       -10.1504   27.2446  -10.8753  H     
54   H       -11.3977   29.2469  -10.3726  H     
55   H       -10.7239   29.3718   -8.7510  H     
@<TRIPOS>BOND
     1    1    2 1
     2    1    3 1
     3    1    6 1
     4    2    5 1
     5    2   21 2
     6    3    7 1
     7    3    8 1
     8    4   11 1
     9    4   12 1
    10    4   15 1
    11    4   16 1
    12    5   10 1
    13    6    9 2
    14    7   14 1
    15    8   19 1
    16    9   10 1
    17   10   24 2
    18   11   13 1
    19   12   20 am
    20   12   23 2
    21   13   17 1
    22   13   18 1
    23   14   19 1
    24   14   22 1
    25   15   18 1
    26   16   17 1
    27   17   27 1
    28   18   26 1
    29   19   25 1
    30   20   22 1
    31   26   28 1
    32   27   28 1
    33    3   29 1
    34    5   30 1
    35    6   31 1
    36    8   32 1
    37    8   33 1
    38    9   34 1
    39   11   35 1
    40   11   36 1
    41   13   37 1
    42   14   38 1
    43   15   39 1
    44   15   40 1
    45   16   41 1
    46   16   42 1
    47   17   43 1
    48   18   44 1
    49   19   45 1
    50   20   46 1
    51   22   47 1
    52   22   48 1
    53   25   49 1
    54   26   50 1
    55   26   51 1
    56   27   52 1
    57   27   53 1
    58   28   54 1
    59   28   55 1
@<TRIPOS>PROPERTY_DATA
  Total_Score	| 2.7213
  Crash		| -1.9174
  Polar		| 2.0685
  FragIndex	| 1
  FragRMSD	| 1.253

