@<TRIPOS>MOLECULE
BindingDB_50173563
 62 66 0 0 0
SMALL
NO_CHARGES


@<TRIPOS>ATOM
1    N        -5.2992   26.1217   -0.6851  N     
2    C        -4.9778   24.9307   -1.2544  C     
3    C        -6.6199   26.5304   -0.2023  C     
4    N        -3.7887   24.7682   -1.8453  N     
5    C        -4.3422   27.1015   -0.6857  C     
6    O        -7.1259   27.5290   -1.1131  O     
7    C        -7.8038   25.5443   -0.0670  C     
8    C        -3.1612   26.9415   -1.3045  C     
9    C        -2.8977   25.7506   -1.8966  C     
10   C        -9.0235   27.0158   -5.5899  C     
11   C        -7.8093   26.7994   -2.1514  C     
12   N        -9.4024   26.9655   -4.1278  N     
13   C        -8.5726   25.6818   -1.4006  C     
14   O        -5.7309   23.9736   -1.3662  O     
15   C        -8.6918   27.7137   -3.0476  C     
16   C        -9.6401   25.8204   -6.3150  C     
17   C        -9.6445   28.3193   -6.1314  C     
18   C        -7.5081   26.8221   -5.6954  C     
19   O        -1.8472   25.5743   -2.4961  O     
20   F        -8.5621   24.5158   -2.1315  F     
21   C        -9.0531   29.5938   -5.8952  C     
22   C       -10.9058   28.3539   -6.8095  C     
23   C        -6.9326   25.5921   -5.2663  C     
24   C        -6.6074   27.7749   -6.2581  C     
25   C       -10.7395   25.0683   -5.8098  C     
26   C        -9.2038   25.4884   -7.6282  C     
27   C        -5.2142   27.5566   -6.2789  C     
28   C        -9.6185   30.7952   -6.3639  C     
29   C       -11.4738   29.5472   -7.2971  C     
30   C       -11.3010   23.9966   -6.5325  C     
31   C        -9.7585   24.4163   -8.3530  C     
32   C        -5.5467   25.3506   -5.3220  C     
33   C       -10.8020   23.6605   -7.7991  C     
34   C       -10.8189   30.7700   -7.0890  C     
35   C        -4.6777   26.3505   -5.7953  C     
36   H        -6.4873   27.0006    0.7861  H     
37   H        -3.5873   23.9260   -2.2902  H     
38   H        -4.5207   27.9846   -0.2588  H     
39   H        -7.4792   24.5290    0.1626  H     
40   H        -8.4468   25.8675    0.7575  H     
41   H        -2.5141   27.6927   -1.3337  H     
42   H        -7.0466   26.3339   -2.7986  H     
43   H       -10.3823   27.2375   -4.0713  H     
44   H        -9.3658   25.9819   -3.8531  H     
45   H        -9.6116   25.9686   -1.2040  H     
46   H        -9.4480   28.2058   -2.4281  H     
47   H        -8.0397   28.4888   -3.4492  H     
48   H        -8.1728   29.6760   -5.3968  H     
49   H       -11.4538   27.5082   -6.9672  H     
50   H        -7.5333   24.8430   -4.9237  H     
51   H        -6.9385   28.6308   -6.6994  H     
52   H       -11.1703   25.2933   -4.9104  H     
53   H        -8.4648   26.0330   -8.0763  H     
54   H        -4.5870   28.2733   -6.6590  H     
55   H        -9.1537   31.6853   -6.1776  H     
56   H       -12.3661   29.5261   -7.7978  H     
57   H       -12.0751   23.4568   -6.1379  H     
58   H        -9.4001   24.1917   -9.2861  H     
59   H        -5.1660   24.4531   -5.0115  H     
60   H       -11.1930   22.8683   -8.3181  H     
61   H       -11.2268   31.6425   -7.4401  H     
62   H        -3.6681   26.1894   -5.8169  H     
@<TRIPOS>BOND
     1    1    2 1
     2    1    3 1
     3    1    5 1
     4    2    4 1
     5    2   14 2
     6    3    6 1
     7    3    7 1
     8    4    9 1
     9    5    8 2
    10    6   11 1
    11    7   13 1
    12    8    9 1
    13    9   19 2
    14   10   12 1
    15   10   16 1
    16   10   17 1
    17   10   18 1
    18   11   13 1
    19   11   15 1
    20   12   15 1
    21   13   20 1
    22   16   25 2
    23   16   26 1
    24   17   21 2
    25   17   22 1
    26   18   23 2
    27   18   24 1
    28   21   28 1
    29   22   29 2
    30   23   32 1
    31   24   27 2
    32   25   30 1
    33   26   31 2
    34   27   35 1
    35   28   34 2
    36   29   34 1
    37   30   33 2
    38   31   33 1
    39   32   35 2
    40    3   36 1
    41    4   37 1
    42    5   38 1
    43    7   39 1
    44    7   40 1
    45    8   41 1
    46   11   42 1
    47   12   43 1
    48   12   44 1
    49   13   45 1
    50   15   46 1
    51   15   47 1
    52   21   48 1
    53   22   49 1
    54   23   50 1
    55   24   51 1
    56   25   52 1
    57   26   53 1
    58   27   54 1
    59   28   55 1
    60   29   56 1
    61   30   57 1
    62   31   58 1
    63   32   59 1
    64   33   60 1
    65   34   61 1
    66   35   62 1
@<TRIPOS>PROPERTY_DATA
  Total_Score	| 6.1546
  Crash		| -2.2634
  Polar		| 2.5913
  FragIndex	| 1
  FragRMSD	| 1.008

