@<TRIPOS>MOLECULE
BindingDB_50173538
 43 44 0 0 0
SMALL
NO_CHARGES


@<TRIPOS>ATOM
1    N        -5.6663   25.5503   -1.4705  N     
2    C        -5.1749   24.2842   -1.4577  C     
3    C        -6.9761   25.8723   -2.0342  C     
4    N        -3.9013   24.0700   -1.1168  N     
5    C        -4.8749   26.5503   -0.9669  C     
6    O        -7.9866   25.8588   -1.0055  O     
7    C        -7.0930   27.2388   -2.7764  C     
8    C        -3.5848   26.3320   -0.6378  C     
9    C        -3.0931   25.0687   -0.7556  C     
10   C        -8.9837   26.8411   -1.3304  C     
11   C        -8.2061   27.9886   -2.0149  C     
12   O        -5.8362   23.2969   -1.7624  O     
13   C        -9.8188   26.6143   -4.6144  C     
14   N        -9.7859   25.8809   -3.5015  N     
15   C       -10.1689   26.2857   -2.1870  C     
16   O        -1.9166   24.8371   -0.5102  O     
17   O       -10.2470   27.7660   -4.6036  O     
18   O        -7.6430   28.8702   -1.0433  O     
19   C        -9.3072   26.0828   -5.8581  C     
20   C       -10.3800   25.2741   -6.6392  C     
21   C        -9.8217   24.5436   -7.8937  C     
22   C        -9.7838   25.4051   -9.1813  C     
23   H        -7.2565   25.0962   -2.7586  H     
24   H        -3.5443   23.1659   -1.1464  H     
25   H        -5.2339   27.4755   -0.8754  H     
26   H        -6.1508   27.8080   -2.7812  H     
27   H        -7.3961   27.0837   -3.8236  H     
28   H        -3.0146   27.0782   -0.2908  H     
29   H        -9.4213   27.2086   -0.3958  H     
30   H        -8.8295   28.5773   -2.6999  H     
31   H        -9.4130   24.9896   -3.5815  H     
32   H       -10.5744   25.4060   -1.6849  H     
33   H       -10.9665   27.0372   -2.2121  H     
34   H        -8.3889   29.1269   -0.4589  H     
35   H        -8.9514   26.9118   -6.4706  H     
36   H        -8.4457   25.4355   -5.6685  H     
37   H       -10.8025   24.5183   -5.9696  H     
38   H       -11.1996   25.9317   -6.9460  H     
39   H        -8.8112   24.1803   -7.6827  H     
40   H       -10.4465   23.6678   -8.0967  H     
41   H       -10.7864   25.7581   -9.4289  H     
42   H        -9.4168   24.8047  -10.0131  H     
43   H        -9.1239   26.2662   -9.0583  H     
@<TRIPOS>BOND
     1    1    2 1
     2    1    3 1
     3    1    5 1
     4    2    4 1
     5    2   12 2
     6    3    6 1
     7    3    7 1
     8    4    9 1
     9    5    8 2
    10    6   10 1
    11    7   11 1
    12    8    9 1
    13    9   16 2
    14   10   11 1
    15   10   15 1
    16   11   18 1
    17   13   14 am
    18   13   17 2
    19   13   19 1
    20   14   15 1
    21   19   20 1
    22   20   21 1
    23   21   22 1
    24    3   23 1
    25    4   24 1
    26    5   25 1
    27    7   26 1
    28    7   27 1
    29    8   28 1
    30   10   29 1
    31   11   30 1
    32   14   31 1
    33   15   32 1
    34   15   33 1
    35   18   34 1
    36   19   35 1
    37   19   36 1
    38   20   37 1
    39   20   38 1
    40   21   39 1
    41   21   40 1
    42   22   41 1
    43   22   42 1
    44   22   43 1
@<TRIPOS>PROPERTY_DATA
  Total_Score	| 3.2645
  Crash		| -1.2511
  Polar		| 2.0318
  FragIndex	| 1
  FragRMSD	| 1.321

