@<TRIPOS>MOLECULE
BindingDB_50173536
 84 88 0 0 0
SMALL
NO_CHARGES


@<TRIPOS>ATOM
1    N        -5.6495   26.0788   -0.8133  N     
2    C        -5.4531   24.7376   -0.7864  C     
3    C        -6.9540   26.6879   -0.5508  C     
4    N        -4.2219   24.2431   -0.9200  N     
5    C        -4.5345   26.8891   -0.9172  C     
6    O        -7.1148   27.9830   -1.1812  O     
7    C        -8.2183   25.9003   -0.9860  C     
8    C        -9.2868   27.0054   -1.1653  C     
9    C        -3.2975   26.3810   -1.0275  C     
10   C        -3.1511   25.0298   -1.0010  C     
11   C        -8.8013   27.0323   -5.6340  C     
12   C        -8.4196   28.1335   -1.7747  C     
13   N        -9.0081   27.1497   -4.1366  N     
14   O        -9.8008   27.3665    0.1339  O     
15   S       -11.0020   28.5772    0.2682  S     
16   O        -6.3436   23.9067   -0.6453  O     
17   C       -10.6092   29.5603    1.7702  C     
18   C        -8.3056   28.2036   -3.3371  C     
19   C        -9.4309   28.1768   -6.4128  C     
20   C        -9.5471   25.8182   -6.1915  C     
21   C        -7.2868   26.8688   -5.7472  C     
22   O        -2.0395   24.5299   -1.0108  O     
23   C       -11.2711   29.6002   -1.2084  C     
24   C       -12.5841   27.7061    0.4263  C     
25   C       -11.8176   29.5546    2.7573  C     
26   C       -10.2828   31.0325    1.3730  C     
27   C        -9.3566   28.9521    2.4862  C     
28   C        -6.6879   25.6152   -5.4477  C     
29   C        -6.4081   27.9593   -6.0058  C     
30   C        -9.1217   25.1866   -7.3865  C     
31   C       -10.7720   25.3676   -5.6194  C     
32   C        -8.9556   28.5180   -7.7050  C     
33   C       -10.6009   28.8668   -5.9613  C     
34   C       -11.5202   24.3399   -6.2252  C     
35   C        -5.2948   25.4384   -5.4788  C     
36   C        -5.0130   27.7836   -6.0473  C     
37   C        -9.5355   29.5337   -8.4919  C     
38   C       -11.1974   29.8851   -6.7529  C     
39   C        -9.8693   24.1556   -7.9890  C     
40   C       -10.6572   30.2314   -7.9979  C     
41   C        -4.4549   26.5228   -5.7764  C     
42   C       -11.0677   23.7311   -7.4042  C     
43   H        -7.0326   26.8620    0.5334  H     
44   H        -4.1007   23.2846   -0.8796  H     
45   H        -4.6170   27.8814   -0.9131  H     
46   H        -8.0264   25.3697   -1.9286  H     
47   H        -8.5215   25.1691   -0.2269  H     
48   H       -10.1056   26.6730   -1.8100  H     
49   H        -2.5041   26.9833   -1.0832  H     
50   H        -8.7822   29.0986   -1.4154  H     
51   H       -10.0053   27.3019   -3.9746  H     
52   H        -8.7650   26.2441   -3.7302  H     
53   H        -8.6790   29.1734   -3.6564  H     
54   H        -7.2418   28.2176   -3.5765  H     
55   H       -11.5484   28.9815   -2.0642  H     
56   H       -12.0889   30.2937   -1.0160  H     
57   H       -10.3649   30.1526   -1.4673  H     
58   H       -12.5834   27.0892    1.3276  H     
59   H       -12.7516   27.0687   -0.4480  H     
60   H       -13.4050   28.4268    0.4889  H     
61   H       -12.0122   28.5458    3.1300  H     
62   H       -11.6060   30.1877    3.6190  H     
63   H       -12.7279   29.9311    2.2801  H     
64   H       -11.1696   31.5418    0.9797  H     
65   H        -9.9387   31.5879    2.2475  H     
66   H        -9.4953   31.0658    0.6103  H     
67   H        -9.2614   29.3669    3.4981  H     
68   H        -8.4469   29.1981    1.9246  H     
69   H        -9.4362   27.8600    2.5625  H     
70   H        -7.2691   24.8075   -5.2126  H     
71   H        -6.7727   28.9038   -6.1567  H     
72   H        -8.2594   25.4729   -7.8538  H     
73   H       -11.1504   25.7935   -4.7735  H     
74   H        -8.1525   28.0222   -8.0973  H     
75   H       -11.0667   28.6096   -5.0998  H     
76   H       -12.4116   24.0512   -5.8158  H     
77   H        -4.8965   24.5236   -5.2609  H     
78   H        -4.4028   28.5805   -6.2461  H     
79   H        -9.1426   29.7614   -9.4053  H     
80   H       -12.0445   30.3581   -6.4280  H     
81   H        -9.5320   23.7334   -8.8537  H     
82   H       -11.1067   30.9400   -8.5871  H     
83   H        -3.4400   26.3990   -5.7727  H     
84   H       -11.6299   23.0079   -7.8610  H     
@<TRIPOS>BOND
     1    2    1 1
     2    3    1 1
     3    4    2 1
     4    5    1 1
     5    6    3 1
     6    7    3 1
     7    8    7 1
     8    9    5 2
     9   10    9 1
    10   11   13 1
    11   12    6 1
    12   13   18 1
    13   14    8 1
    14   15   14 1
    15   16    2 2
    16   17   15 1
    17   18   12 1
    18   19   11 1
    19   20   11 1
    20   21   11 1
    21   22   10 2
    22   23   15 1
    23   24   15 1
    24   25   17 1
    25   26   17 1
    26   27   17 1
    27   28   21 2
    28   29   21 1
    29   30   20 2
    30   31   20 1
    31   32   19 2
    32   33   19 1
    33   34   31 2
    34   35   28 1
    35   36   29 2
    36   37   32 1
    37   38   33 2
    38   39   30 1
    39   40   38 1
    40   41   36 1
    41   42   34 1
    42    4   10 1
    43   12    8 1
    44   35   41 2
    45   39   42 2
    46   37   40 2
    47    3   43 1
    48    4   44 1
    49    5   45 1
    50    7   46 1
    51    7   47 1
    52    8   48 1
    53    9   49 1
    54   12   50 1
    55   13   51 1
    56   13   52 1
    57   18   53 1
    58   18   54 1
    59   23   55 1
    60   23   56 1
    61   23   57 1
    62   24   58 1
    63   24   59 1
    64   24   60 1
    65   25   61 1
    66   25   62 1
    67   25   63 1
    68   26   64 1
    69   26   65 1
    70   26   66 1
    71   27   67 1
    72   27   68 1
    73   27   69 1
    74   28   70 1
    75   29   71 1
    76   30   72 1
    77   31   73 1
    78   32   74 1
    79   33   75 1
    80   34   76 1
    81   35   77 1
    82   36   78 1
    83   37   79 1
    84   38   80 1
    85   39   81 1
    86   40   82 1
    87   41   83 1
    88   42   84 1
@<TRIPOS>PROPERTY_DATA
  Total_Score	| 5.4286
  Crash		| -2.6018
  Polar		| 1.2094
  FragIndex	| 1
  FragRMSD	| 0.794

