@<TRIPOS>MOLECULE
BindingDB_50173577
 63 67 0 0 0
SMALL
NO_CHARGES


@<TRIPOS>ATOM
1    N        -5.4175   26.1399   -0.7005  N     
2    C        -5.2373   25.0444   -1.4770  C     
3    C        -6.6857   26.8627   -0.6246  C     
4    N        -4.0164   24.5225   -1.6312  N     
5    C        -4.3242   26.6503   -0.0544  C     
6    O        -6.9349   27.5592   -1.8665  O     
7    C        -7.9602   26.0587   -0.2625  C     
8    C        -3.0904   26.1195   -0.2157  C     
9    C        -2.9578   25.0592   -1.0493  C     
10   C        -9.0141   27.2166   -6.0101  C     
11   C        -8.1449   27.0346   -2.4433  C     
12   N        -9.5112   27.2727   -4.5785  N     
13   C        -8.9946   26.6835   -1.2112  C     
14   O        -6.1252   24.4723   -2.0866  O     
15   C        -8.7999   28.0067   -3.4731  C     
16   C        -9.7955   26.0738   -6.6783  C     
17   C        -9.3485   28.4536   -6.8309  C     
18   C        -7.5059   26.9790   -5.9334  C     
19   O        -1.8554   24.5445   -1.2297  O     
20   O       -10.0872   25.8240   -1.5174  O     
21   C        -6.9964   25.7094   -5.5451  C     
22   C        -6.5631   28.0226   -6.1160  C     
23   C        -9.7228   29.6948   -6.2506  C     
24   C        -9.1430   28.4450   -8.2468  C     
25   C       -11.2045   25.9449   -6.5029  C     
26   C        -9.1860   25.1141   -7.5375  C     
27   C        -9.3053   29.6038   -9.0195  C     
28   C        -5.6133   25.4861   -5.4130  C     
29   C        -5.1738   27.8092   -5.9607  C     
30   C       -11.9316   24.8582   -7.0481  C     
31   C        -9.8998   24.0323   -8.0853  C     
32   C        -9.8682   30.8602   -7.0229  C     
33   C       -11.2720   23.8890   -7.8155  C     
34   C        -4.7053   26.5363   -5.6233  C     
35   C        -9.6408   30.8244   -8.4093  C     
36   H        -6.6286   27.6579    0.1279  H     
37   H        -3.9034   23.7487   -2.2145  H     
38   H        -4.4060   27.4173    0.5674  H     
39   H        -7.8543   24.9939   -0.4636  H     
40   H        -8.2618   26.1801    0.7797  H     
41   H        -2.3150   26.4951    0.2685  H     
42   H        -7.8852   26.1125   -2.9620  H     
43   H       -10.4635   27.6662   -4.6128  H     
44   H        -9.6132   26.3055   -4.2628  H     
45   H        -9.3893   27.6012   -0.7626  H     
46   H        -9.5216   28.6472   -2.9647  H     
47   H        -8.0383   28.6670   -3.8823  H     
48   H        -9.6897   25.0113   -1.8963  H     
49   H        -7.6331   24.9385   -5.3367  H     
50   H        -6.8521   28.9811   -6.3161  H     
51   H        -9.8690   29.7848   -5.2459  H     
52   H        -8.8380   27.5924   -8.7155  H     
53   H       -11.7337   26.6322   -5.9664  H     
54   H        -8.1982   25.1915   -7.7768  H     
55   H        -9.1397   29.5690  -10.0294  H     
56   H        -5.2697   24.5663   -5.1445  H     
57   H        -4.5264   28.5862   -6.0798  H     
58   H       -12.9373   24.7806   -6.8802  H     
59   H        -9.4263   23.3508   -8.6786  H     
60   H       -10.1162   31.7482   -6.5764  H     
61   H       -11.7931   23.0930   -8.2013  H     
62   H        -3.6998   26.3718   -5.5191  H     
63   H        -9.7653   31.6709   -8.9734  H     
@<TRIPOS>BOND
     1    1    2 1
     2    1    3 1
     3    1    5 1
     4    2    4 1
     5    2   14 2
     6    3    6 1
     7    3    7 1
     8    4    9 1
     9    5    8 2
    10    6   11 1
    11    7   13 1
    12    8    9 1
    13    9   19 2
    14   10   12 1
    15   10   16 1
    16   10   17 1
    17   10   18 1
    18   11   13 1
    19   11   15 1
    20   12   15 1
    21   13   20 1
    22   16   25 2
    23   16   26 1
    24   17   23 2
    25   17   24 1
    26   18   21 2
    27   18   22 1
    28   21   28 1
    29   22   29 2
    30   23   32 1
    31   24   27 2
    32   25   30 1
    33   26   31 2
    34   27   35 1
    35   28   34 2
    36   29   34 1
    37   30   33 2
    38   31   33 1
    39   32   35 2
    40    3   36 1
    41    4   37 1
    42    5   38 1
    43    7   39 1
    44    7   40 1
    45    8   41 1
    46   11   42 1
    47   12   43 1
    48   12   44 1
    49   13   45 1
    50   15   46 1
    51   15   47 1
    52   20   48 1
    53   21   49 1
    54   22   50 1
    55   23   51 1
    56   24   52 1
    57   25   53 1
    58   26   54 1
    59   27   55 1
    60   28   56 1
    61   29   57 1
    62   30   58 1
    63   31   59 1
    64   32   60 1
    65   33   61 1
    66   34   62 1
    67   35   63 1
@<TRIPOS>PROPERTY_DATA
  Total_Score	| 6.0924
  Crash		| -2.4150
  Polar		| 1.9969
  FragIndex	| 1
  FragRMSD	| 1.063

