@<TRIPOS>MOLECULE
BindingDB_50190543
 63 67 0 0 0
SMALL
NO_CHARGES


@<TRIPOS>ATOM
1    C       -10.7727   30.1364   -6.1662  C     
2    C       -10.1686   29.0444   -5.5160  C     
3    C        -9.2804   28.1651   -6.1989  C     
4    C        -9.0389   28.4467   -7.5744  C     
5    C        -9.6361   29.5396   -8.2280  C     
6    C       -10.5052   30.3870   -7.5236  C     
7    C        -8.6263   26.9611   -5.5310  C     
8    C        -9.4298   25.7910   -6.0857  C     
9    C        -7.1176   26.9241   -5.7667  C     
10   C       -10.6574   25.3873   -5.4912  C     
11   C       -11.4554   24.3712   -6.0501  C     
12   C       -11.0640   23.7451   -7.2440  C     
13   C        -9.8769   24.1428   -7.8769  C     
14   C        -9.0813   25.1540   -7.3084  C     
15   C        -6.3814   25.7115   -5.6599  C     
16   C        -4.9751   25.6861   -5.6874  C     
17   C        -4.2581   26.8867   -5.8133  C     
18   C        -4.9496   28.1044   -5.9200  C     
19   C        -6.3565   28.1198   -5.8843  C     
20   N        -8.7487   27.0559   -4.0249  N     
21   C        -7.9811   26.1330   -3.1454  C     
22   C        -8.5182   26.0662   -1.6942  C     
23   C        -8.2506   27.3065   -0.8065  C     
24   C        -7.6948   26.6738    0.4764  C     
25   C        -6.9517   25.4292   -0.0631  C     
26   O        -7.9038   24.9474   -1.0292  O     
27   O        -9.4292   28.0735   -0.5604  O     
28   N        -5.6151   25.5323   -0.6590  N     
29   C        -5.0678   24.4573   -1.2769  C     
30   N        -3.8777   24.5522   -1.8709  N     
31   C        -3.1728   25.6802   -1.8463  C     
32   C        -3.6540   26.7680   -1.1891  C     
33   C        -4.8660   26.6808   -0.6090  C     
34   O        -2.1071   25.7362   -2.4418  O     
35   O        -5.6225   23.3684   -1.3603  O     
36   H       -11.4104   30.7481   -5.6507  H     
37   H       -10.4040   28.9009   -4.5317  H     
38   H        -8.4023   27.8601   -8.1170  H     
39   H        -9.4348   29.7198   -9.2159  H     
40   H       -10.9426   31.1806   -7.9970  H     
41   H       -11.0009   25.8398   -4.6433  H     
42   H       -12.3294   24.0981   -5.5959  H     
43   H       -11.6461   23.0119   -7.6556  H     
44   H        -9.5925   23.7003   -8.7547  H     
45   H        -8.2372   25.4283   -7.8116  H     
46   H        -6.8669   24.8290   -5.5009  H     
47   H        -4.4739   24.7985   -5.5893  H     
48   H        -3.2350   26.8760   -5.8172  H     
49   H        -4.4283   28.9817   -5.9958  H     
50   H        -6.8217   29.0292   -5.9182  H     
51   H        -8.4855   28.0080   -3.7567  H     
52   H        -9.7323   26.9412   -3.7783  H     
53   H        -8.0049   25.1222   -3.5588  H     
54   H        -6.9428   26.4625   -3.1079  H     
55   H        -9.5929   25.8639   -1.7341  H     
56   H        -7.4952   27.9590   -1.2544  H     
57   H        -7.0738   27.3570    1.0563  H     
58   H        -8.5206   26.3495    1.1182  H     
59   H        -6.8912   24.6950    0.7467  H     
60   H        -9.1383   28.8173    0.0107  H     
61   H        -3.5309   23.7900   -2.3626  H     
62   H        -3.1252   27.6103   -1.1380  H     
63   H        -5.1907   27.4884   -0.1390  H     
@<TRIPOS>BOND
     1    1    2 2
     2    1    6 1
     3    2    3 1
     4    3    4 2
     5    3    7 1
     6    4    5 1
     7    5    6 2
     8    7    8 1
     9    7    9 1
    10    7   20 1
    11    8   10 2
    12    8   14 1
    13    9   15 2
    14    9   19 1
    15   10   11 1
    16   11   12 2
    17   12   13 1
    18   13   14 2
    19   15   16 1
    20   16   17 2
    21   17   18 1
    22   18   19 2
    23   20   21 1
    24   22   21 1
    25   22   23 1
    26   22   26 1
    27   23   24 1
    28   23   27 1
    29   24   25 1
    30   25   26 1
    31   25   28 1
    32   28   29 1
    33   28   33 1
    34   29   30 1
    35   29   35 2
    36   30   31 1
    37   31   32 1
    38   31   34 2
    39   32   33 2
    40    1   36 1
    41    2   37 1
    42    4   38 1
    43    5   39 1
    44    6   40 1
    45   10   41 1
    46   11   42 1
    47   12   43 1
    48   13   44 1
    49   14   45 1
    50   15   46 1
    51   16   47 1
    52   17   48 1
    53   18   49 1
    54   19   50 1
    55   20   51 1
    56   20   52 1
    57   21   53 1
    58   21   54 1
    59   22   55 1
    60   23   56 1
    61   24   57 1
    62   24   58 1
    63   25   59 1
    64   27   60 1
    65   30   61 1
    66   32   62 1
    67   33   63 1
@<TRIPOS>PROPERTY_DATA
  Total_Score	| 7.5486
  Crash		| -1.3681
  Polar		| 3.0741
  FragIndex	| 1
  FragRMSD	| 0.652

