@<TRIPOS>MOLECULE
BindingDB_50173572
 41 43 0 0 0
SMALL
NO_CHARGES


@<TRIPOS>ATOM
1    N        -5.4812   26.1366   -0.7919  N     
2    C        -5.2705   25.0083   -1.5193  C     
3    C        -6.7867   26.7705   -0.5766  C     
4    N        -4.0376   24.5235   -1.6663  N     
5    C        -4.3831   26.7435   -0.2397  C     
6    O        -7.1027   27.7331   -1.5961  O     
7    C        -8.0088   25.8367   -0.4633  C     
8    C        -3.1439   26.2426   -0.3801  C     
9    C        -2.9849   25.1135   -1.1113  C     
10   C        -7.8836   27.0622   -2.5843  C     
11   C        -8.9543   26.6127   -5.4725  C     
12   C        -8.7232   26.0134   -1.8118  C     
13   N        -9.4615   27.2981   -4.4484  N     
14   O        -6.1432   24.3505   -2.0729  O     
15   C        -8.7201   28.0298   -3.4605  C     
16   O        -1.8743   24.6394   -1.2843  O     
17   O        -7.7617   26.7548   -5.7346  O     
18   C        -9.7226   25.7111   -6.2269  C     
19   O        -8.7515   24.7922   -2.5353  O     
20   C        -9.2008   25.1093   -7.4046  C     
21   C       -11.0269   25.3176   -5.8214  C     
22   C       -11.7709   24.3741   -6.5556  C     
23   C        -9.9438   24.1685   -8.1418  C     
24   C       -11.2295   23.7990   -7.7158  C     
25   H        -6.7753   27.3502    0.3540  H     
26   H        -3.8988   23.7259   -2.2045  H     
27   H        -4.4711   27.5866    0.2796  H     
28   H        -7.7100   24.8055   -0.2759  H     
29   H        -8.6669   26.1510    0.3492  H     
30   H        -2.3689   26.6922    0.0487  H     
31   H        -7.1741   26.5755   -3.2563  H     
32   H        -9.7502   26.3551   -1.6518  H     
33   H       -10.4201   27.2441   -4.3100  H     
34   H        -9.4244   28.5752   -2.8280  H     
35   H        -8.0705   28.7663   -3.9421  H     
36   H        -9.4756   24.2667   -2.1445  H     
37   H        -8.2660   25.3469   -7.7437  H     
38   H       -11.4511   25.6932   -4.9716  H     
39   H       -12.7050   24.1008   -6.2399  H     
40   H        -9.5469   23.7516   -8.9867  H     
41   H       -11.7693   23.1130   -8.2480  H     
@<TRIPOS>BOND
     1    1    2 1
     2    1    3 1
     3    1    5 1
     4    2    4 1
     5    2   14 2
     6    3    6 1
     7    3    7 1
     8    4    9 1
     9    5    8 2
    10    6   10 1
    11    7   12 1
    12    8    9 1
    13    9   16 2
    14   10   12 1
    15   10   15 1
    16   11   13 am
    17   11   17 2
    18   11   18 1
    19   12   19 1
    20   13   15 1
    21   18   20 2
    22   18   21 1
    23   20   23 1
    24   21   22 2
    25   22   24 1
    26   23   24 2
    27    3   25 1
    28    4   26 1
    29    5   27 1
    30    7   28 1
    31    7   29 1
    32    8   30 1
    33   10   31 1
    34   12   32 1
    35   13   33 1
    36   15   34 1
    37   15   35 1
    38   19   36 1
    39   20   37 1
    40   21   38 1
    41   22   39 1
    42   23   40 1
    43   24   41 1
@<TRIPOS>PROPERTY_DATA
  Total_Score	| 3.9363
  Crash		| -1.0905
  Polar		| 2.8955
  FragIndex	| 1
  FragRMSD	| 1.316

