@<TRIPOS>MOLECULE
BindingDB_50173547
 35 36 0 0 0
SMALL
NO_CHARGES


@<TRIPOS>ATOM
1    N        -5.7070   25.5805   -0.7349  N     
2    C        -5.3226   24.3940   -1.2634  C     
3    C        -7.1246   25.9323   -0.6165  C     
4    N        -4.0300   24.1155   -1.4322  N     
5    S        -8.6004   28.7200   -4.9651  S     
6    C        -4.7164   26.4217   -0.2907  C     
7    O        -7.8939   25.4457   -1.7330  O     
8    C        -7.5008   27.4320   -0.5902  C     
9    C        -3.4103   26.1346   -0.4491  C     
10   C        -3.0780   24.9572   -1.0422  C     
11   C        -9.0911   26.2312   -1.9033  C     
12   C        -8.9679   27.4843   -1.0025  C     
13   N        -8.2907   27.4305   -3.9232  N     
14   C        -9.2764   26.5332   -3.4158  C     
15   O        -6.1024   23.5279   -1.6361  O     
16   O       -10.0812   28.6753   -5.5456  O     
17   O        -8.5071   30.0725   -4.1327  O     
18   O        -1.9081   24.6613   -1.2350  O     
19   C        -7.4500   28.8178   -6.3484  C     
20   O        -9.8146   27.4287    0.1428  O     
21   H        -7.5111   25.4636    0.2934  H     
22   H        -3.7748   23.2951   -1.8850  H     
23   H        -4.9367   27.2651    0.1834  H     
24   H        -7.3209   27.8947    0.3836  H     
25   H        -6.9451   27.9506   -1.3606  H     
26   H        -2.7093   26.7583   -0.1149  H     
27   H        -9.9451   25.6338   -1.5711  H     
28   H        -9.1956   28.4127   -1.5340  H     
29   H        -7.3985   27.3699   -3.5481  H     
30   H        -9.1648   25.5964   -3.9651  H     
31   H       -10.2890   26.8945   -3.6034  H     
32   H        -6.4292   28.9058   -5.9726  H     
33   H        -7.6862   29.6924   -6.9572  H     
34   H        -7.5336   27.9153   -6.9549  H     
35   H        -9.7013   28.2943    0.5898  H     
@<TRIPOS>BOND
     1    1    2 1
     2    1    3 1
     3    1    6 1
     4    2    4 1
     5    2   15 2
     6    3    7 1
     7    3    8 1
     8    4   10 1
     9    5   13 1
    10    5   16 2
    11    5   17 2
    12    5   19 1
    13    6    9 2
    14    7   11 1
    15    8   12 1
    16    9   10 1
    17   10   18 2
    18   11   12 1
    19   11   14 1
    20   12   20 1
    21   13   14 1
    22    3   21 1
    23    4   22 1
    24    6   23 1
    25    8   24 1
    26    8   25 1
    27    9   26 1
    28   11   27 1
    29   12   28 1
    30   13   29 1
    31   14   30 1
    32   14   31 1
    33   19   32 1
    34   19   33 1
    35   19   34 1
    36   20   35 1
@<TRIPOS>PROPERTY_DATA
  Total_Score	| 2.0697
  Crash		| -0.8546
  Polar		| 1.4834
  FragIndex	| 1
  FragRMSD	| 0.764

