@<TRIPOS>MOLECULE
BindingDB_50173564
 34 35 0 0 0
SMALL
NO_CHARGES


@<TRIPOS>ATOM
1    N        -5.5446   26.0768   -0.6504  N     
2    C        -5.3561   24.9303   -1.3521  C     
3    C        -6.8318   26.7207   -0.3758  C     
4    N        -4.1216   24.4791   -1.5851  N     
5    C        -4.4291   26.7476   -0.2214  C     
6    O        -7.0762   27.7512   -1.3531  O     
7    C        -8.1382   25.8977   -0.3204  C     
8    C        -3.1889   26.2740   -0.4333  C     
9    C        -3.0482   25.1188   -1.1309  C     
10   C        -7.8545   27.1463   -2.3929  C     
11   C        -8.8314   26.2003   -1.6600  C     
12   O        -6.2502   24.2567   -1.8447  O     
13   C        -8.6821   26.8455   -5.3297  C     
14   N        -9.2429   27.5877   -4.3830  N     
15   C        -8.5669   28.2031   -3.2787  C     
16   O        -1.9384   24.6690   -1.3731  O     
17   O        -7.4634   26.6993   -5.4011  O     
18   O        -9.0659   25.0480   -2.4579  O     
19   C        -9.5313   26.1949   -6.3006  C     
20   H        -6.7694   27.2250    0.5982  H     
21   H        -3.9939   23.6823   -2.1290  H     
22   H        -4.5091   27.6130    0.2652  H     
23   H        -7.9566   24.8357   -0.1597  H     
24   H        -8.7685   26.2518    0.4998  H     
25   H        -2.4016   26.7669   -0.0885  H     
26   H        -7.1697   26.5726   -3.0304  H     
27   H        -9.7899   26.6915   -1.4696  H     
28   H       -10.2142   27.6819   -4.4099  H     
29   H        -9.3089   28.7332   -2.6751  H     
30   H        -7.8502   28.9456   -3.6381  H     
31   H        -9.7830   24.5574   -2.0088  H     
32   H       -10.1815   25.4781   -5.7950  H     
33   H        -8.9440   25.6591   -7.0519  H     
34   H       -10.1488   26.9378   -6.8131  H     
@<TRIPOS>BOND
     1    1    2 1
     2    1    3 1
     3    1    5 1
     4    2    4 1
     5    2   12 2
     6    3    6 1
     7    3    7 1
     8    4    9 1
     9    5    8 2
    10    6   10 1
    11    7   11 1
    12    8    9 1
    13    9   16 2
    14   10   11 1
    15   10   15 1
    16   11   18 1
    17   13   14 am
    18   13   17 2
    19   13   19 1
    20   14   15 1
    21    3   20 1
    22    4   21 1
    23    5   22 1
    24    7   23 1
    25    7   24 1
    26    8   25 1
    27   10   26 1
    28   11   27 1
    29   14   28 1
    30   15   29 1
    31   15   30 1
    32   18   31 1
    33   19   32 1
    34   19   33 1
    35   19   34 1
@<TRIPOS>PROPERTY_DATA
  Total_Score	| 2.2216
  Crash		| -1.2425
  Polar		| 2.8228
  FragIndex	| 1
  FragRMSD	| 1.412

