@<TRIPOS>MOLECULE
BindingDB_16412
 85 87 0 0 0
SMALL
NO_CHARGES


@<TRIPOS>ATOM
1    C        28.4667   42.8592    0.4191  C     
2    C        29.4502   43.7846    0.8632  C     
3    C        30.7313   43.3802    1.3454  C     
4    C        31.0278   41.9959    1.3368  C     
5    C        30.1086   41.0397    0.8514  C     
6    C        28.8341   41.4882    0.4157  C     
7    C        31.6662   44.3221    1.8041  C     
8    O        31.7406   45.4141    1.2492  O     
9    N        32.4331   44.0881    2.8743  N     
10   C        33.4009   44.9686    3.4841  C     
11   C        30.4527   39.6979    0.7623  C     
12   O        30.3991   39.1322   -0.3256  O     
13   N        30.8461   39.0561    1.8549  N     
14   C        31.4319   37.7484    1.9293  C     
15   C        29.3795   36.0814    1.9330  C     
16   C        32.8973   37.8852    2.4609  C     
17   C        30.5020   36.7976    2.7711  C     
18   O        31.2495   35.7681    3.4324  O     
19   N        27.1849   43.2677    0.0138  N     
20   C        24.6743   44.8543    0.5032  C     
21   S        26.4657   44.6433    0.6911  S     
22   O        26.6889   44.6578    2.2631  O     
23   O        27.1030   45.9525    0.0558  O     
24   C        34.7766   44.2607    3.5644  C     
25   C        33.7478   38.8945    1.7551  C     
26   C        33.7003   39.0228    0.3448  C     
27   C        34.4815   39.9769   -0.3279  C     
28   C        35.3756   40.7861    0.3948  C     
29   C        35.4664   40.6488    1.7902  C     
30   C        34.6460   39.7289    2.4691  C     
31   C        32.9273   45.4116    4.8297  C     
32   C        32.4512   44.4836    5.7875  C     
33   C        32.9484   46.7825    5.1815  C     
34   C        32.4977   47.2138    6.4455  C     
35   C        32.0126   46.2814    7.3767  C     
36   C        31.9971   44.9148    7.0494  C     
37   F        31.5869   46.6830    8.5450  F     
38   N        27.9922   36.4863    2.3000  N     
39   C        26.9296   35.4485    2.5110  C     
40   C        25.5810   36.2184    2.6775  C     
41   C        26.7715   34.4579    1.3111  C     
42   C        27.2289   34.6590    3.8231  C     
43   C        26.3855   42.4727   -0.8933  C     
44   H        29.2344   44.7838    0.8504  H     
45   H        31.9567   41.6837    1.6234  H     
46   H        28.1443   40.7861    0.1276  H     
47   H        32.2567   43.2522    3.3434  H     
48   H        33.5597   45.8388    2.8389  H     
49   H        30.7794   39.5456    2.6928  H     
50   H        31.5321   37.3164    0.9344  H     
51   H        29.4861   36.2860    0.8642  H     
52   H        29.5083   35.0029    2.0351  H     
53   H        32.8626   38.1101    3.5310  H     
54   H        33.4038   36.9239    2.3456  H     
55   H        30.0478   37.3806    3.5815  H     
56   H        31.7946   36.2209    4.1108  H     
57   H        24.4118   44.9677   -0.5481  H     
58   H        24.3592   45.7500    1.0370  H     
59   H        24.1533   43.9963    0.9204  H     
60   H        34.7072   43.3257    4.1283  H     
61   H        35.5109   44.9093    4.0479  H     
62   H        35.1322   44.0417    2.5541  H     
63   H        33.0830   38.4279   -0.2098  H     
64   H        34.4136   40.0636   -1.3436  H     
65   H        35.9647   41.4568   -0.0959  H     
66   H        36.1425   41.2104    2.3084  H     
67   H        34.7171   39.6557    3.4905  H     
68   H        32.4285   43.4836    5.5743  H     
69   H        33.2999   47.4826    4.5251  H     
70   H        32.5218   48.2114    6.6792  H     
71   H        31.6493   44.2326    7.7255  H     
72   H        28.0264   37.0353    3.1588  H     
73   H        27.6743   37.1180    1.5590  H     
74   H        25.6426   36.9515    3.4854  H     
75   H        24.7654   35.5261    2.9061  H     
76   H        25.3284   36.7496    1.7564  H     
77   H        26.6575   35.0136    0.3775  H     
78   H        25.8891   33.8258    1.4495  H     
79   H        27.6349   33.7970    1.2184  H     
80   H        28.1787   34.1304    3.7488  H     
81   H        26.4478   33.9199    4.0127  H     
82   H        27.2852   35.3356    4.6798  H     
83   H        26.9868   42.1078   -1.7289  H     
84   H        25.5320   43.0186   -1.3279  H     
85   H        25.9693   41.6222   -0.3489  H     
@<TRIPOS>BOND
     1    1    2 1
     2    1    6 2
     3    1   19 1
     4    2    3 2
     5    3    4 1
     6    3    7 1
     7    4    5 2
     8    5    6 1
     9    5   11 1
    10    7    8 2
    11    7    9 am
    12    9   10 1
    13   10   24 1
    14   10   31 1
    15   11   12 2
    16   11   13 am
    17   13   14 1
    18   14   16 1
    19   14   17 1
    20   15   17 1
    21   15   38 1
    22   16   25 1
    23   17   18 1
    24   19   21 1
    25   19   43 1
    26   20   21 1
    27   21   22 2
    28   21   23 2
    29   25   26 2
    30   25   30 1
    31   26   27 1
    32   27   28 2
    33   28   29 1
    34   29   30 2
    35   31   32 1
    36   31   33 2
    37   32   36 2
    38   33   34 1
    39   34   35 2
    40   35   36 1
    41   35   37 1
    42   38   39 1
    43   39   40 1
    44   39   41 1
    45   39   42 1
    46    2   44 1
    47    4   45 1
    48    6   46 1
    49    9   47 1
    50   10   48 1
    51   13   49 1
    52   14   50 1
    53   15   51 1
    54   15   52 1
    55   16   53 1
    56   16   54 1
    57   17   55 1
    58   18   56 1
    59   20   57 1
    60   20   58 1
    61   20   59 1
    62   24   60 1
    63   24   61 1
    64   24   62 1
    65   26   63 1
    66   27   64 1
    67   28   65 1
    68   29   66 1
    69   30   67 1
    70   32   68 1
    71   33   69 1
    72   34   70 1
    73   36   71 1
    74   38   72 1
    75   38   73 1
    76   40   74 1
    77   40   75 1
    78   40   76 1
    79   41   77 1
    80   41   78 1
    81   41   79 1
    82   42   80 1
    83   42   81 1
    84   42   82 1
    85   43   83 1
    86   43   84 1
    87   43   85 1
@<TRIPOS>PROPERTY_DATA
  Total_Score	| 19.7408
  Crash		| -3.1166
  Polar		| 8.4785
  FragIndex	| 1
  FragRMSD	| 0.787

