@<TRIPOS>MOLECULE
BindingDB_16411
 79 81 0 0 0
SMALL
NO_CHARGES


@<TRIPOS>ATOM
1    C        28.4326   42.9150    0.4522  C     
2    C        29.3798   43.8384    0.9759  C     
3    C        30.6473   43.4377    1.5109  C     
4    C        30.9650   42.0614    1.4278  C     
5    C        30.0922   41.0963    0.8744  C     
6    C        28.8282   41.5485    0.3933  C     
7    C        31.5411   44.3680    2.0753  C     
8    O        31.3172   45.5645    1.9325  O     
9    N        32.6232   44.0142    2.7797  N     
10   C        33.5608   44.9042    3.4149  C     
11   C        30.4565   39.7580    0.7863  C     
12   O        30.2099   39.1400   -0.2412  O     
13   N        31.0036   39.1686    1.8385  N     
14   C        31.5719   37.8554    1.8962  C     
15   C        29.3855   36.4767    2.0860  C     
16   C        33.0618   37.9760    2.3447  C     
17   C        30.6625   36.9731    2.8275  C     
18   O        31.3396   35.8109    3.3355  O     
19   N        27.1565   43.3181   -0.0008  N     
20   C        24.5819   44.7835    0.4797  C     
21   S        26.3822   44.6794    0.6566  S     
22   O        26.6096   44.7478    2.2223  O     
23   O        26.9160   46.0269   -0.0018  O     
24   C        34.9410   44.2172    3.5489  C     
25   C        33.8982   38.9862    1.6058  C     
26   C        33.7897   39.1724    0.2035  C     
27   C        34.5578   40.1443   -0.4705  C     
28   C        35.4931   40.9149    0.2311  C     
29   C        35.6526   40.7207    1.6148  C     
30   C        34.8565   39.7812    2.2945  C     
31   C        33.0348   45.3554    4.7379  C     
32   C        33.0128   46.7298    5.0792  C     
33   C        32.5382   44.4208    5.6810  C     
34   C        32.0450   44.8462    6.9288  C     
35   C        32.0401   46.2125    7.2563  C     
36   C        32.5237   47.1559    6.3288  C     
37   F        31.6000   46.6052    8.4171  F     
38   N        28.4393   35.8270    3.0248  N     
39   C        27.1062   35.4594    2.4938  C     
40   C        26.0872   36.6235    2.4975  C     
41   C        26.3945   42.5503   -0.9530  C     
42   H        29.1585   44.8298    0.9839  H     
43   H        31.8881   41.7398    1.7449  H     
44   H        28.1729   40.8410    0.0387  H     
45   H        32.7477   43.0637    2.9463  H     
46   H        33.7279   45.7537    2.7520  H     
47   H        31.0676   39.6994    2.6460  H     
48   H        31.5805   37.3764    0.9207  H     
49   H        28.9064   37.3339    1.6131  H     
50   H        29.6750   35.7668    1.2973  H     
51   H        33.0670   38.2118    3.4098  H     
52   H        33.5509   37.0057    2.2271  H     
53   H        30.3466   37.5688    3.6940  H     
54   H        31.8629   36.1633    4.1016  H     
55   H        24.2819   44.8196   -0.5654  H     
56   H        24.2226   45.6965    0.9565  H     
57   H        24.1057   43.9322    0.9578  H     
58   H        34.8775   43.3212    4.1725  H     
59   H        35.6748   44.8987    3.9889  H     
60   H        35.3030   43.9290    2.5605  H     
61   H        33.1270   38.6189   -0.3422  H     
62   H        34.4382   40.2777   -1.4731  H     
63   H        36.0671   41.5936   -0.2610  H     
64   H        36.3534   41.2598    2.1233  H     
65   H        34.9835   39.6647    3.3042  H     
66   H        33.3582   47.4332    4.4198  H     
67   H        32.5268   43.4194    5.4603  H     
68   H        31.6892   44.1558    7.5946  H     
69   H        32.5211   48.1528    6.5597  H     
70   H        28.8899   34.9773    3.3847  H     
71   H        28.3047   36.4608    3.8058  H     
72   H        27.1913   35.0443    1.4878  H     
73   H        26.7169   34.6774    3.1426  H     
74   H        25.8567   36.9233    3.5241  H     
75   H        25.1574   36.3095    2.0129  H     
76   H        26.4692   37.4958    1.9620  H     
77   H        27.0383   42.0314   -1.6696  H     
78   H        25.7059   43.1788   -1.5372  H     
79   H        25.7595   41.8312   -0.4298  H     
@<TRIPOS>BOND
     1    1    2 1
     2    1    6 2
     3    1   19 1
     4    2    3 2
     5    3    4 1
     6    3    7 1
     7    4    5 2
     8    5    6 1
     9    5   11 1
    10    7    8 2
    11    7    9 am
    12    9   10 1
    13   10   24 1
    14   10   31 1
    15   11   12 2
    16   11   13 am
    17   13   14 1
    18   14   16 1
    19   14   17 1
    20   15   17 1
    21   15   38 1
    22   16   25 1
    23   17   18 1
    24   19   21 1
    25   19   41 1
    26   20   21 1
    27   21   22 2
    28   21   23 2
    29   25   26 2
    30   25   30 1
    31   26   27 1
    32   27   28 2
    33   28   29 1
    34   29   30 2
    35   31   32 1
    36   31   33 2
    37   32   36 2
    38   33   34 1
    39   34   35 2
    40   35   36 1
    41   35   37 1
    42   38   39 1
    43   39   40 1
    44    2   42 1
    45    4   43 1
    46    6   44 1
    47    9   45 1
    48   10   46 1
    49   13   47 1
    50   14   48 1
    51   15   49 1
    52   15   50 1
    53   16   51 1
    54   16   52 1
    55   17   53 1
    56   18   54 1
    57   20   55 1
    58   20   56 1
    59   20   57 1
    60   24   58 1
    61   24   59 1
    62   24   60 1
    63   26   61 1
    64   27   62 1
    65   28   63 1
    66   29   64 1
    67   30   65 1
    68   32   66 1
    69   33   67 1
    70   34   68 1
    71   36   69 1
    72   38   70 1
    73   38   71 1
    74   39   72 1
    75   39   73 1
    76   40   74 1
    77   40   75 1
    78   40   76 1
    79   41   77 1
    80   41   78 1
    81   41   79 1
@<TRIPOS>PROPERTY_DATA
  Total_Score	| 18.0816
  Crash		| -2.5363
  Polar		| 8.3235
  FragIndex	| 1
  FragRMSD	| 0.656

