@<TRIPOS>MOLECULE
BindingDB_16408
 77 80 0 0 0
SMALL
NO_CHARGES


@<TRIPOS>ATOM
1    C        28.6853   43.1323    0.3822  C     
2    C        29.6728   44.0183    0.8745  C     
3    C        30.9228   43.5536    1.3464  C     
4    C        31.1603   42.1578    1.3093  C     
5    C        30.2148   41.2485    0.7791  C     
6    C        28.9864   41.7593    0.2930  C     
7    C        31.8842   44.4449    1.8259  C     
8    O        32.0693   45.5040    1.2350  O     
9    N        32.5649   44.1845    2.9374  N     
10   C        33.5753   44.9953    3.5629  C     
11   C        30.4985   39.8787    0.7191  C     
12   O        30.1917   39.2296   -0.2765  O     
13   N        31.0792   39.2879    1.7605  N     
14   C        31.6002   37.9535    1.8270  C     
15   C        29.4082   36.5966    1.9807  C     
16   C        33.0905   38.0273    2.2994  C     
17   C        30.6668   37.0947    2.7437  C     
18   O        31.3361   35.9418    3.2720  O     
19   N        27.4356   43.5288    0.0004  N     
20   C        24.8206   44.6686    0.3506  C     
21   S        26.5745   44.7826    0.7325  S     
22   O        26.7126   44.6884    2.3151  O     
23   O        27.0562   46.2043    0.2038  O     
24   C        34.9060   44.2089    3.6496  C     
25   C        33.9484   39.0255    1.5796  C     
26   C        34.8947   39.8091    2.2831  C     
27   C        35.6999   40.7421    1.6071  C     
28   C        35.5409   40.9474    0.2266  C     
29   C        34.5959   40.1844   -0.4853  C     
30   C        33.8271   39.2155    0.1815  C     
31   N        28.4781   35.8931    2.8857  N     
32   C        27.2200   35.4895    2.2273  C     
33   C        27.1247   34.0661    1.6611  C     
34   C        26.4074   34.4222    2.9723  C     
35   C        33.0884   45.4399    4.9054  C     
36   C        32.9898   46.8184    5.2256  C     
37   C        32.6825   44.5015    5.8930  C     
38   C        32.1849   44.9282    7.1407  C     
39   C        32.0906   46.2986    7.4311  C     
40   C        32.4957   47.2462    6.4714  C     
41   F        31.6173   46.6937    8.5794  F     
42   H        29.4595   45.0171    0.8969  H     
43   H        32.0664   41.7975    1.6260  H     
44   H        28.2827   41.1129   -0.0747  H     
45   H        32.3053   43.3821    3.4183  H     
46   H        33.7928   45.8704    2.9449  H     
47   H        31.1896   39.8259    2.5611  H     
48   H        31.6175   37.4777    0.8506  H     
49   H        28.8844   37.4526    1.5374  H     
50   H        29.7180   35.9208    1.1692  H     
51   H        33.1010   38.2231    3.3851  H     
52   H        33.5551   37.0430    2.1566  H     
53   H        30.3246   37.7005    3.5985  H     
54   H        31.8628   36.2914    4.0275  H     
55   H        26.9190   42.9165   -0.5434  H     
56   H        24.6875   44.6825   -0.7326  H     
57   H        24.2951   45.5153    0.7938  H     
58   H        24.4120   43.7429    0.7532  H     
59   H        34.7865   43.2883    4.2251  H     
60   H        35.6828   44.8123    4.1165  H     
61   H        35.2402   43.9489    2.6465  H     
62   H        35.0119   39.6956    3.2893  H     
63   H        36.4051   41.2744    2.1189  H     
64   H        36.1179   41.6367   -0.2626  H     
65   H        34.4821   40.3320   -1.4889  H     
66   H        33.1601   38.6672   -0.3673  H     
67   H        28.9392   35.0657    3.2778  H     
68   H        28.2485   36.5279    3.6494  H     
69   H        26.6029   36.2452    1.7303  H     
70   H        26.4893   33.9572    0.7815  H     
71   H        28.0303   33.4630    1.7491  H     
72   H        26.8556   34.0436    3.8938  H     
73   H        25.3257   34.5486    2.9141  H     
74   H        33.2645   47.5303    4.5450  H     
75   H        32.7239   43.4949    5.6975  H     
76   H        31.8883   44.2356    7.8295  H     
77   H        32.4289   48.2490    6.6779  H     
@<TRIPOS>BOND
     1    1    2 1
     2    1    6 2
     3    1   19 1
     4    2    3 2
     5    3    4 1
     6    3    7 1
     7    4    5 2
     8    5    6 1
     9    5   11 1
    10    7    8 2
    11    7    9 am
    12    9   10 1
    13   10   24 1
    14   10   35 1
    15   11   12 2
    16   11   13 am
    17   13   14 1
    18   14   16 1
    19   14   17 1
    20   15   17 1
    21   15   31 1
    22   16   25 1
    23   17   18 1
    24   19   21 1
    25   20   21 1
    26   21   22 2
    27   21   23 2
    28   25   26 2
    29   25   30 1
    30   26   27 1
    31   27   28 2
    32   28   29 1
    33   29   30 2
    34   31   32 1
    35   32   33 1
    36   32   34 1
    37   33   34 1
    38   35   36 1
    39   35   37 2
    40   36   40 2
    41   37   38 1
    42   38   39 2
    43   39   40 1
    44   39   41 1
    45    2   42 1
    46    4   43 1
    47    6   44 1
    48    9   45 1
    49   10   46 1
    50   13   47 1
    51   14   48 1
    52   15   49 1
    53   15   50 1
    54   16   51 1
    55   16   52 1
    56   17   53 1
    57   18   54 1
    58   19   55 1
    59   20   56 1
    60   20   57 1
    61   20   58 1
    62   24   59 1
    63   24   60 1
    64   24   61 1
    65   26   62 1
    66   27   63 1
    67   28   64 1
    68   29   65 1
    69   30   66 1
    70   31   67 1
    71   31   68 1
    72   32   69 1
    73   33   70 1
    74   33   71 1
    75   34   72 1
    76   34   73 1
    77   36   74 1
    78   37   75 1
    79   38   76 1
    80   40   77 1
@<TRIPOS>PROPERTY_DATA
  Total_Score	| 19.6106
  Crash		| -1.8270
  Polar		| 9.4722
  FragIndex	| 1
  FragRMSD	| 0.778

