@<TRIPOS>MOLECULE
BindingDB_16029
 71 73 0 0 0
SMALL
NO_CHARGES


@<TRIPOS>ATOM
1    C        28.3412   42.9903    0.3331  C     
2    C        28.5509   41.5912    0.3802  C     
3    C        29.7682   41.0461    0.8586  C     
4    C        30.7628   41.9263    1.3329  C     
5    C        30.6060   43.3253    1.2385  C     
6    C        29.3955   43.8436    0.7145  C     
7    N        27.1422   43.5091   -0.1096  N     
8    C        26.6140   43.1244   -1.3887  C     
9    C        26.5280   46.3527    0.2958  C     
10   S        26.3084   44.6484    0.8271  S     
11   O        24.7488   44.2906    0.8328  O     
12   O        26.6854   44.5496    2.3655  O     
13   C        31.5891   44.1891    1.6988  C     
14   O        31.8066   45.2217    1.0913  O     
15   C        29.9876   39.6804    0.8138  C     
16   N        32.1470   43.9281    2.8698  N     
17   C        33.1956   44.6272    3.5663  C     
18   C        33.0604   46.2076    3.4815  C     
19   C        33.1175   46.9099    4.8711  C     
20   N        31.8493   46.7029    5.5916  N     
21   C        31.6602   47.6835    6.6769  C     
22   C        30.8684   47.1694    7.8782  C     
23   C        32.3739   47.4044    8.0031  C     
24   O        34.0228   46.8402    2.6426  O     
25   C        34.6326   44.0704    3.2442  C     
26   C        34.6899   42.6543    2.7973  C     
27   C        34.0747   41.6375    3.5452  C     
28   C        35.3629   42.3013    1.5877  C     
29   C        35.4165   40.9652    1.1666  C     
30   C        34.7921   39.9582    1.9267  C     
31   C        34.1118   40.2906    3.1053  C     
32   C        29.9780   38.8224    1.9948  C     
33   C        28.8076   37.8071    1.9171  C     
34   C        31.3303   38.0867    2.1824  C     
35   O        30.0255   39.1527   -0.3020  O     
36   H        27.8054   40.9597    0.0844  H     
37   H        31.6483   41.5423    1.6900  H     
38   H        29.2679   44.8572    0.6527  H     
39   H        27.3717   43.2625   -2.1626  H     
40   H        25.7417   43.7142   -1.6760  H     
41   H        26.3115   42.0775   -1.3761  H     
42   H        27.5839   46.6192    0.3615  H     
43   H        25.9464   47.0180    0.9367  H     
44   H        26.1921   46.4578   -0.7366  H     
45   H        31.8956   43.0715    3.2753  H     
46   H        33.0099   44.3418    4.6000  H     
47   H        32.0950   46.4667    3.0669  H     
48   H        33.9587   46.5183    5.4300  H     
49   H        33.2501   47.9775    4.7163  H     
50   H        31.0798   46.7926    4.9237  H     
51   H        31.8286   45.7603    5.9856  H     
52   H        31.4737   48.7355    6.4376  H     
53   H        30.2465   47.8870    8.4192  H     
54   H        30.5651   46.1231    7.8322  H     
55   H        32.9897   46.5031    8.0501  H     
56   H        32.6847   48.2923    8.5593  H     
57   H        34.8216   46.9381    3.2082  H     
58   H        35.1010   44.6695    2.4719  H     
59   H        35.2561   44.1780    4.1368  H     
60   H        33.5695   41.8595    4.4070  H     
61   H        35.7978   43.0189    1.0059  H     
62   H        35.9077   40.7223    0.3040  H     
63   H        34.8412   38.9841    1.6219  H     
64   H        33.6554   39.5718    3.6663  H     
65   H        29.8176   39.4413    2.8917  H     
66   H        27.8496   38.3248    1.8048  H     
67   H        28.7632   37.2036    2.8283  H     
68   H        28.9305   37.1280    1.0646  H     
69   H        31.5161   37.3936    1.3572  H     
70   H        31.3256   37.5212    3.1168  H     
71   H        32.1513   38.8030    2.2233  H     
@<TRIPOS>BOND
     1    1    2 1
     2    1    6 2
     3    1    7 1
     4    2    3 2
     5    3    4 1
     6    3   15 1
     7    4    5 2
     8    5    6 1
     9    5   13 1
    10    7    8 1
    11    7   10 1
    12    9   10 1
    13   10   11 2
    14   10   12 2
    15   13   14 2
    16   13   16 am
    17   15   32 1
    18   15   35 2
    19   16   17 1
    20   17   18 1
    21   17   25 1
    22   18   19 1
    23   18   24 1
    24   19   20 1
    25   20   21 1
    26   21   22 1
    27   21   23 1
    28   22   23 1
    29   25   26 1
    30   26   27 1
    31   26   28 2
    32   27   31 2
    33   28   29 1
    34   29   30 2
    35   30   31 1
    36   32   33 1
    37   32   34 1
    38    2   36 1
    39    4   37 1
    40    6   38 1
    41    8   39 1
    42    8   40 1
    43    8   41 1
    44    9   42 1
    45    9   43 1
    46    9   44 1
    47   16   45 1
    48   17   46 1
    49   18   47 1
    50   19   48 1
    51   19   49 1
    52   20   50 1
    53   20   51 1
    54   21   52 1
    55   22   53 1
    56   22   54 1
    57   23   55 1
    58   23   56 1
    59   24   57 1
    60   25   58 1
    61   25   59 1
    62   27   60 1
    63   28   61 1
    64   29   62 1
    65   30   63 1
    66   31   64 1
    67   32   65 1
    68   33   66 1
    69   33   67 1
    70   33   68 1
    71   34   69 1
    72   34   70 1
    73   34   71 1
@<TRIPOS>PROPERTY_DATA
  Total_Score	| 12.6571
  Crash		| -3.8865
  Polar		| 6.4002
  FragIndex	| 1
  FragRMSD	| 0.564

