@<TRIPOS>MOLECULE
BindingDB_16027
 73 76 0 0 0
SMALL
NO_CHARGES


@<TRIPOS>ATOM
1    C        28.6175   43.2342    0.3237  C     
2    C        29.5893   44.1472    0.7999  C     
3    C        30.8511   43.7144    1.2838  C     
4    C        31.1221   42.3318    1.2924  C     
5    C        30.1919   41.3849    0.7912  C     
6    C        28.9511   41.8619    0.3042  C     
7    N        27.3805   43.6633   -0.1151  N     
8    C        26.8525   43.2384   -1.3936  C     
9    C        26.5593   46.4517    0.3073  C     
10   S        26.4565   44.7293    0.8171  S     
11   O        24.9285   44.2648    0.8394  O     
12   O        26.7708   44.6110    2.3690  O     
13   C        30.5025   40.0290    0.7432  C     
14   O        30.2136   39.3802   -0.2582  O     
15   C        31.8662   44.6971    1.7505  C     
16   N        31.0936   39.4397    1.7771  N     
17   C        31.6400   38.1083    1.8158  C     
18   C        30.7390   37.1785    2.6949  C     
19   C        29.4074   36.8162    1.9881  C     
20   N        28.5481   35.9506    2.8286  N     
21   C        27.3514   35.4597    2.1199  C     
22   C        26.4540   34.5124    2.9359  C     
23   C        25.9652   35.9313    2.5985  C     
24   O        31.4071   35.9459    2.9854  O     
25   C        33.1266   38.1712    2.2944  C     
26   C        33.9871   39.1322    1.5414  C     
27   C        33.8735   39.2646    0.1343  C     
28   C        34.9286   39.9537    2.2130  C     
29   C        35.6939   40.8985    1.5118  C     
30   C        35.5358   41.0492    0.1221  C     
31   C        34.6210   40.2278   -0.5674  C     
32   C        31.9238   44.9909    3.2087  C     
33   C        31.2449   44.6084    5.5506  C     
34   C        31.1900   44.2693    4.1819  C     
35   C        32.7155   46.0808    3.6607  C     
36   C        32.7672   46.4304    5.0231  C     
37   C        32.0380   45.6903    5.9720  C     
38   H        29.3721   45.1444    0.7956  H     
39   H        32.0253   42.0109    1.6529  H     
40   H        28.2686   41.1805   -0.0527  H     
41   H        27.6134   43.3341   -2.1739  H     
42   H        25.9872   43.8303   -1.7123  H     
43   H        26.5305   42.1963   -1.3473  H     
44   H        27.5961   46.8049    0.3694  H     
45   H        25.9251   47.0641    0.9551  H     
46   H        26.2167   46.5382   -0.7284  H     
47   H        32.8500   44.3452    1.4328  H     
48   H        31.7119   45.6569    1.2551  H     
49   H        31.2123   39.9757    2.5817  H     
50   H        31.6640   37.6731    0.8183  H     
51   H        30.5137   37.6734    3.6442  H     
52   H        28.8440   37.7311    1.7650  H     
53   H        29.6304   36.3111    1.0392  H     
54   H        29.0814   35.1413    3.1586  H     
55   H        28.2644   36.4985    3.6425  H     
56   H        27.4251   35.1735    1.0685  H     
57   H        25.9906   33.7030    2.3696  H     
58   H        26.7747   34.3366    3.9607  H     
59   H        25.9523   36.6361    3.4302  H     
60   H        25.1977   35.9946    1.8270  H     
61   H        31.9627   36.1418    3.7741  H     
62   H        33.1330   38.4191    3.3645  H     
63   H        33.5791   37.1852    2.1954  H     
64   H        33.2180   38.6833   -0.3903  H     
65   H        35.0506   39.8707    3.2267  H     
66   H        36.3670   41.4902    2.0120  H     
67   H        36.0820   41.7433   -0.3877  H     
68   H        34.5025   40.3340   -1.5756  H     
69   H        30.7040   44.0744    6.2322  H     
70   H        30.5955   43.4903    3.9057  H     
71   H        33.2608   46.6349    2.9941  H     
72   H        33.3284   47.2266    5.3273  H     
73   H        32.0730   45.9396    6.9627  H     
@<TRIPOS>BOND
     1    1    2 1
     2    1    6 2
     3    1    7 1
     4    2    3 2
     5    3    4 1
     6    3   15 1
     7    4    5 2
     8    5    6 1
     9    5   13 1
    10    7    8 1
    11    7   10 1
    12    9   10 1
    13   10   11 2
    14   10   12 2
    15   13   14 2
    16   13   16 am
    17   15   32 1
    18   16   17 1
    19   17   18 1
    20   17   25 1
    21   18   19 1
    22   18   24 1
    23   19   20 1
    24   20   21 1
    25   21   22 1
    26   21   23 1
    27   22   23 1
    28   25   26 1
    29   26   27 1
    30   26   28 2
    31   27   31 2
    32   28   29 1
    33   29   30 2
    34   30   31 1
    35   32   34 1
    36   32   35 2
    37   33   34 2
    38   33   37 1
    39   35   36 1
    40   36   37 2
    41    2   38 1
    42    4   39 1
    43    6   40 1
    44    8   41 1
    45    8   42 1
    46    8   43 1
    47    9   44 1
    48    9   45 1
    49    9   46 1
    50   15   47 1
    51   15   48 1
    52   16   49 1
    53   17   50 1
    54   18   51 1
    55   19   52 1
    56   19   53 1
    57   20   54 1
    58   20   55 1
    59   21   56 1
    60   22   57 1
    61   22   58 1
    62   23   59 1
    63   23   60 1
    64   24   61 1
    65   25   62 1
    66   25   63 1
    67   27   64 1
    68   28   65 1
    69   29   66 1
    70   30   67 1
    71   31   68 1
    72   33   69 1
    73   34   70 1
    74   35   71 1
    75   36   72 1
    76   37   73 1
@<TRIPOS>PROPERTY_DATA
  Total_Score	| 16.9468
  Crash		| -1.7571
  Polar		| 7.5688
  FragIndex	| 1
  FragRMSD	| 0.291

