@<TRIPOS>MOLECULE
BindingDB_16410
 73 75 0 0 0
SMALL
NO_CHARGES


@<TRIPOS>ATOM
1    C        28.5933   43.0507    0.4074  C     
2    C        29.5211   43.9191    1.0254  C     
3    C        30.7407   43.4821    1.5965  C     
4    C        31.0304   42.0966    1.4948  C     
5    C        30.1406   41.1835    0.8696  C     
6    C        28.9331   41.6831    0.3267  C     
7    C        31.6100   44.3877    2.2225  C     
8    O        31.3415   45.5873    2.2128  O     
9    N        32.7275   44.0224    2.8478  N     
10   C        33.6750   44.8981    3.5006  C     
11   C        30.4677   39.8270    0.7817  C     
12   O        30.2311   39.2002   -0.2482  O     
13   N        31.0165   39.2086    1.8199  N     
14   C        31.5937   37.8958    1.8719  C     
15   C        29.4078   36.5063    2.0467  C     
16   C        33.0708   38.0360    2.3461  C     
17   C        30.6886   36.9947    2.7722  C     
18   O        31.3859   35.8298    3.2198  O     
19   N        27.4133   43.5457   -0.1265  N     
20   C        24.7511   44.7519    0.4135  C     
21   S        26.5347   44.7639    0.6712  S     
22   O        26.7022   44.6223    2.2503  O     
23   O        27.0784   46.2061    0.2808  O     
24   C        35.0535   44.2026    3.6163  C     
25   C        33.9042   39.0415    1.6147  C     
26   C        34.8379   39.8456    2.3142  C     
27   C        35.6483   40.7764    1.6377  C     
28   C        35.5214   40.9442    0.2480  C     
29   C        34.5992   40.1614   -0.4651  C     
30   C        33.8144   39.2051    0.2087  C     
31   N        28.5108   35.8123    2.9600  N     
32   C        33.1513   45.3547    4.8253  C     
33   C        32.7118   44.4248    5.7988  C     
34   C        33.0651   46.7336    5.1342  C     
35   C        32.5663   47.1670    6.3800  C     
36   C        32.1391   46.2305    7.3354  C     
37   C        32.2127   44.8567    7.0414  C     
38   F        31.6790   46.6302    8.4907  F     
39   C        26.9938   43.1460   -1.4438  C     
40   H        29.2959   44.9154    1.0420  H     
41   H        31.9291   41.7449    1.8513  H     
42   H        28.2710   41.0403   -0.1001  H     
43   H        32.9470   43.0728    2.8510  H     
44   H        33.8422   45.7544    2.8381  H     
45   H        31.0795   39.7169    2.6465  H     
46   H        31.6213   37.4380    0.8785  H     
47   H        28.8619   37.3462    1.5944  H     
48   H        29.6900   35.8134    1.2373  H     
49   H        33.0507   38.2781    3.4173  H     
50   H        33.5747   37.0756    2.2492  H     
51   H        30.3763   37.5549    3.6664  H     
52   H        31.8830   36.1285    4.0139  H     
53   H        24.5302   45.0228   -0.6171  H     
54   H        24.2590   45.4532    1.0838  H     
55   H        24.3745   43.7586    0.6080  H     
56   H        34.9941   43.3025    4.2291  H     
57   H        35.7820   44.8818    4.0579  H     
58   H        35.4059   43.9267    2.6230  H     
59   H        34.9372   39.7566    3.3273  H     
60   H        36.3332   41.3331    2.1568  H     
61   H        36.1050   41.6244   -0.2423  H     
62   H        34.4914   40.2953   -1.4760  H     
63   H        33.1586   38.6454   -0.3421  H     
64   H        28.9950   35.0314    3.4171  H     
65   H        27.6969   35.4619    2.4557  H     
66   H        28.2038   36.4766    3.6766  H     
67   H        32.7466   43.4198    5.6054  H     
68   H        33.3624   47.4379    4.4586  H     
69   H        32.5116   48.1684    6.5856  H     
70   H        31.9030   44.1678    7.7339  H     
71   H        27.8392   43.1777   -2.1346  H     
72   H        26.2156   43.7889   -1.8597  H     
73   H        26.6131   42.1209   -1.4184  H     
@<TRIPOS>BOND
     1    1    2 1
     2    1    6 2
     3    1   19 1
     4    2    3 2
     5    3    4 1
     6    3    7 1
     7    4    5 2
     8    5    6 1
     9    5   11 1
    10    7    8 2
    11    7    9 am
    12    9   10 1
    13   10   24 1
    14   10   32 1
    15   11   12 2
    16   11   13 am
    17   13   14 1
    18   14   16 1
    19   14   17 1
    20   15   17 1
    21   15   31 1
    22   16   25 1
    23   17   18 1
    24   19   21 1
    25   19   39 1
    26   20   21 1
    27   21   22 2
    28   21   23 2
    29   25   26 2
    30   25   30 1
    31   26   27 1
    32   27   28 2
    33   28   29 1
    34   29   30 2
    35   32   33 1
    36   32   34 2
    37   33   37 2
    38   34   35 1
    39   35   36 2
    40   36   37 1
    41   36   38 1
    42    2   40 1
    43    4   41 1
    44    6   42 1
    45    9   43 1
    46   10   44 1
    47   13   45 1
    48   14   46 1
    49   15   47 1
    50   15   48 1
    51   16   49 1
    52   16   50 1
    53   17   51 1
    54   18   52 1
    55   20   53 1
    56   20   54 1
    57   20   55 1
    58   24   56 1
    59   24   57 1
    60   24   58 1
    61   26   59 1
    62   27   60 1
    63   28   61 1
    64   29   62 1
    65   30   63 1
    66   31   64 1
    67   31   65 1
    68   31   66 1
    69   33   67 1
    70   34   68 1
    71   35   69 1
    72   37   70 1
    73   39   71 1
    74   39   72 1
    75   39   73 1
@<TRIPOS>PROPERTY_DATA
  Total_Score	| 16.4976
  Crash		| -2.1044
  Polar		| 7.9428
  FragIndex	| 1
  FragRMSD	| 0.644

