@<TRIPOS>MOLECULE
BindingDB_16414
 85 88 0 0 0
SMALL
NO_CHARGES


@<TRIPOS>ATOM
1    C        28.2175   42.8074    0.5256  C     
2    C        29.1672   43.7753    0.9421  C     
3    C        30.4686   43.4386    1.3902  C     
4    C        30.8359   42.0728    1.3562  C     
5    C        29.9592   41.0754    0.8642  C     
6    C        28.6615   41.4634    0.4640  C     
7    C        31.3593   44.4175    1.8456  C     
8    O        31.3471   45.5250    1.3209  O     
9    N        32.1670   44.1860    2.8800  N     
10   C        33.0998   45.0998    3.4892  C     
11   C        30.3762   39.7552    0.7614  C     
12   O        30.1426   39.1313   -0.2692  O     
13   N        31.0219   39.1880    1.7764  N     
14   C        31.6396   37.8961    1.7895  C     
15   C        29.4894   36.4719    1.8876  C     
16   C        33.1213   38.0291    2.2738  C     
17   C        30.7597   36.9340    2.6548  C     
18   O        31.4803   35.7581    3.0252  O     
19   N        26.9184   43.1506    0.1649  N     
20   S        26.1818   44.5612    0.7647  S     
21   O        24.6027   44.3878    0.8022  O     
22   O        26.5888   44.6946    2.2988  O     
23   C        34.4762   44.4049    3.6327  C     
24   C        33.9480   39.0418    1.5461  C     
25   C        34.8791   39.8442    2.2480  C     
26   C        35.6613   40.8044    1.5799  C     
27   C        35.5141   40.9922    0.1963  C     
28   C        34.6030   40.2000   -0.5223  C     
29   C        33.8414   39.2188    0.1446  C     
30   C        32.5935   45.5935    4.8109  C     
31   C        32.8370   46.9273    5.2248  C     
32   C        31.8817   44.7449    5.6966  C     
33   C        31.4081   45.2184    6.9353  C     
34   C        31.6619   46.5459    7.3248  C     
35   C        32.3831   47.3980    6.4700  C     
36   N        28.5248   35.8273    2.7975  N     
37   C        26.0611   47.1922    0.2670  C     
38   C        27.1352   45.7625   -1.4418  C     
39   C        26.1322   42.3247   -0.7216  C     
40   C        27.3153   35.3256    2.1157  C     
41   C        26.4215   34.4306    2.9859  C     
42   C        25.9532   35.8436    2.6040  C     
43   N        26.6402   45.9373   -0.1068  N     
44   H        28.8967   44.7576    0.9358  H     
45   H        31.7806   41.8004    1.6517  H     
46   H        28.0154   40.7388    0.1478  H     
47   H        32.0837   43.3195    3.3110  H     
48   H        33.2661   45.9558    2.8244  H     
49   H        31.0877   39.6993    2.5994  H     
50   H        31.6919   37.4779    0.7818  H     
51   H        29.0008   37.3359    1.4201  H     
52   H        29.7843   35.7656    1.1007  H     
53   H        33.1125   38.2512    3.3433  H     
54   H        33.6135   37.0622    2.1519  H     
55   H        30.4503   37.4440    3.5762  H     
56   H        32.0226   36.0265    3.7914  H     
57   H        34.4092   43.5165    4.2629  H     
58   H        35.1980   45.0924    4.0742  H     
59   H        34.8474   44.1073    2.6516  H     
60   H        35.0058   39.7252    3.2554  H     
61   H        36.3310   41.3745    2.1006  H     
62   H        36.0692   41.7022   -0.2840  H     
63   H        34.5010   40.3305   -1.5309  H     
64   H        33.1987   38.6408   -0.3995  H     
65   H        33.3593   47.5672    4.6236  H     
66   H        31.6940   43.7728    5.4409  H     
67   H        30.8853   44.5985    7.5582  H     
68   H        31.3223   46.8912    8.2268  H     
69   H        32.5749   48.3613    6.7575  H     
70   H        28.9861   35.0385    3.2687  H     
71   H        28.2525   36.5203    3.5013  H     
72   H        25.0607   47.2766   -0.1585  H     
73   H        26.6643   48.0272   -0.0955  H     
74   H        25.9935   47.2936    1.3498  H     
75   H        27.8993   44.9874   -1.4787  H     
76   H        27.5940   46.6740   -1.8243  H     
77   H        26.3182   45.4767   -2.1036  H     
78   H        26.7300   41.9795   -1.5690  H     
79   H        25.2700   42.8522   -1.1323  H     
80   H        25.7534   41.4605   -0.1777  H     
81   H        27.3757   34.9869    1.0783  H     
82   H        25.9434   33.6048    2.4558  H     
83   H        26.7586   34.2830    4.0132  H     
84   H        25.9896   36.6001    3.3903  H     
85   H        25.1880   35.9098    1.8294  H     
@<TRIPOS>BOND
     1    1    2 1
     2    1    6 2
     3    1   19 1
     4    2    3 2
     5    3    4 1
     6    3    7 1
     7    4    5 2
     8    5    6 1
     9    5   11 1
    10    7    8 2
    11    7    9 am
    12    9   10 1
    13   10   23 1
    14   10   30 1
    15   11   12 2
    16   11   13 am
    17   13   14 1
    18   14   16 1
    19   14   17 1
    20   15   17 1
    21   15   36 1
    22   16   24 1
    23   17   18 1
    24   19   20 1
    25   19   39 1
    26   20   21 2
    27   20   22 2
    28   20   43 1
    29   24   25 2
    30   24   29 1
    31   25   26 1
    32   26   27 2
    33   27   28 1
    34   28   29 2
    35   30   31 1
    36   30   32 2
    37   31   35 2
    38   32   33 1
    39   33   34 2
    40   34   35 1
    41   36   40 1
    42   37   43 1
    43   38   43 1
    44   40   41 1
    45   40   42 1
    46   41   42 1
    47    2   44 1
    48    4   45 1
    49    6   46 1
    50    9   47 1
    51   10   48 1
    52   13   49 1
    53   14   50 1
    54   15   51 1
    55   15   52 1
    56   16   53 1
    57   16   54 1
    58   17   55 1
    59   18   56 1
    60   23   57 1
    61   23   58 1
    62   23   59 1
    63   25   60 1
    64   26   61 1
    65   27   62 1
    66   28   63 1
    67   29   64 1
    68   31   65 1
    69   32   66 1
    70   33   67 1
    71   34   68 1
    72   35   69 1
    73   36   70 1
    74   36   71 1
    75   37   72 1
    76   37   73 1
    77   37   74 1
    78   38   75 1
    79   38   76 1
    80   38   77 1
    81   39   78 1
    82   39   79 1
    83   39   80 1
    84   40   81 1
    85   41   82 1
    86   41   83 1
    87   42   84 1
    88   42   85 1
@<TRIPOS>PROPERTY_DATA
  Total_Score	| 20.2244
  Crash		| -2.2679
  Polar		| 9.2141
  FragIndex	| 1
  FragRMSD	| 0.436

