@<TRIPOS>MOLECULE
BindingDB_16028
 78 81 0 0 0
SMALL
NO_CHARGES


@<TRIPOS>ATOM
1    C        28.1902   42.8399    0.3049  C     
2    C        29.1740   43.7758    0.7075  C     
3    C        30.4811   43.4087    1.1189  C     
4    C        30.8031   42.0363    1.0373  C     
5    C        29.8674   41.0521    0.6589  C     
6    C        28.5718   41.4721    0.2941  C     
7    N        26.8998   43.2400   -0.0087  N     
8    C        26.1024   42.5292   -0.9787  C     
9    C        26.2387   46.1262    0.0473  C     
10   S        26.1181   44.5015    0.8244  S     
11   O        24.5696   44.1637    0.9834  O     
12   O        26.5828   44.5980    2.3380  O     
13   C        30.2518   39.7149    0.6438  C     
14   O        29.9879   39.0185   -0.3308  O     
15   C        31.3969   44.3465    1.6190  C     
16   N        30.9104   39.2274    1.6923  N     
17   C        31.5482   37.9398    1.8056  C     
18   C        30.6733   36.9680    2.6722  C     
19   C        29.4070   36.5032    1.9122  C     
20   N        28.4766   35.7784    2.8079  N     
21   C        27.2629   35.2886    2.1144  C     
22   C        26.3633   34.3810    2.9682  C     
23   C        25.8901   35.7950    2.5977  C     
24   O        31.4274   35.8051    3.0374  O     
25   C        32.9998   38.1328    2.3670  C     
26   C        33.8614   39.1103    1.6293  C     
27   C        34.8245   39.9044    2.3165  C     
28   C        33.7611   39.2461    0.2226  C     
29   C        34.5674   40.1672   -0.4763  C     
30   C        35.5087   40.9488    0.2232  C     
31   C        35.6659   40.7959    1.6146  C     
32   C        32.3584   44.0372    2.6904  C     
33   C        34.2273   44.6792    4.9245  C     
34   C        34.7741   44.2268    3.5392  C     
35   C        33.7810   44.6153    2.4044  C     
36   C        31.8162   44.5125    4.0759  C     
37   C        32.8059   44.1211    5.2073  C     
38   O        31.2084   45.5319    1.3565  O     
39   H        28.9294   44.7653    0.7170  H     
40   H        31.7576   41.7284    1.2134  H     
41   H        27.8777   40.7624    0.0600  H     
42   H        26.7258   41.9711   -1.6902  H     
43   H        25.4861   43.2257   -1.5625  H     
44   H        25.4442   41.8300   -0.4462  H     
45   H        27.2849   46.4179   -0.0235  H     
46   H        25.6971   46.8582    0.6482  H     
47   H        25.8042   46.0819   -0.9505  H     
48   H        31.0290   39.8206    2.4544  H     
49   H        31.6526   37.4848    0.8140  H     
50   H        30.3679   37.4773    3.5973  H     
51   H        28.8745   37.3733    1.5109  H     
52   H        29.7033   35.8596    1.0758  H     
53   H        28.9569   34.9717    3.2294  H     
54   H        28.2043   36.4257    3.5541  H     
55   H        27.3249   34.9595    1.0686  H     
56   H        25.8607   33.5660    2.4362  H     
57   H        26.6942   34.2282    3.9974  H     
58   H        25.9122   36.5420    3.3958  H     
59   H        25.1323   35.8635    1.8115  H     
60   H        31.9461   36.0691    3.8238  H     
61   H        32.9218   38.4212    3.4259  H     
62   H        33.5164   37.1617    2.3260  H     
63   H        34.9360   39.8121    3.3272  H     
64   H        33.0786   38.6987   -0.3058  H     
65   H        34.4708   40.2628   -1.4901  H     
66   H        36.1155   41.5882   -0.2902  H     
67   H        36.3637   41.3479    2.1032  H     
68   H        32.4914   42.9591    2.7916  H     
69   H        34.8994   44.2888    5.6917  H     
70   H        34.1940   45.7809    4.9766  H     
71   H        35.7366   44.7296    3.3476  H     
72   H        34.9194   43.1410    3.5526  H     
73   H        34.1530   44.2070    1.4525  H     
74   H        33.7248   45.7063    2.3161  H     
75   H        31.6787   45.6054    4.0634  H     
76   H        30.8525   44.0260    4.2845  H     
77   H        32.8515   43.0215    5.2976  H     
78   H        32.4331   44.5316    6.1542  H     
@<TRIPOS>BOND
     1    1    2 1
     2    1    6 2
     3    1    7 1
     4    2    3 2
     5    3    4 1
     6    3   15 1
     7    4    5 2
     8    5    6 1
     9    5   13 1
    10    7    8 1
    11    7   10 1
    12    9   10 1
    13   10   11 2
    14   10   12 2
    15   13   14 2
    16   13   16 am
    17   15   32 1
    18   15   38 2
    19   16   17 1
    20   17   18 1
    21   17   25 1
    22   18   19 1
    23   18   24 1
    24   19   20 1
    25   20   21 1
    26   21   22 1
    27   21   23 1
    28   22   23 1
    29   25   26 1
    30   26   27 1
    31   26   28 2
    32   27   31 2
    33   28   29 1
    34   29   30 2
    35   30   31 1
    36   32   35 1
    37   32   36 1
    38   33   34 1
    39   33   37 1
    40   34   35 1
    41   36   37 1
    42    2   39 1
    43    4   40 1
    44    6   41 1
    45    8   42 1
    46    8   43 1
    47    8   44 1
    48    9   45 1
    49    9   46 1
    50    9   47 1
    51   16   48 1
    52   17   49 1
    53   18   50 1
    54   19   51 1
    55   19   52 1
    56   20   53 1
    57   20   54 1
    58   21   55 1
    59   22   56 1
    60   22   57 1
    61   23   58 1
    62   23   59 1
    63   24   60 1
    64   25   61 1
    65   25   62 1
    66   27   63 1
    67   28   64 1
    68   29   65 1
    69   30   66 1
    70   31   67 1
    71   32   68 1
    72   33   69 1
    73   33   70 1
    74   34   71 1
    75   34   72 1
    76   35   73 1
    77   35   74 1
    78   36   75 1
    79   36   76 1
    80   37   77 1
    81   37   78 1
@<TRIPOS>PROPERTY_DATA
  Total_Score	| 17.9291
  Crash		| -2.9507
  Polar		| 8.3947
  FragIndex	| 1
  FragRMSD	| 0.365

