@<TRIPOS>MOLECULE
BindingDB_16409
 80 83 0 0 0
SMALL
NO_CHARGES


@<TRIPOS>ATOM
1    C        28.5423   43.0881    0.3432  C     
2    C        29.4487   43.9812    0.9580  C     
3    C        30.6809   43.5566    1.5176  C     
4    C        30.9754   42.1685    1.4397  C     
5    C        30.0980   41.2352    0.8307  C     
6    C        28.8882   41.7193    0.2827  C     
7    C        31.5598   44.4707    2.1243  C     
8    O        31.2721   45.6675    2.1477  O     
9    N        32.7031   44.1044    2.7032  N     
10   C        33.6485   44.9612    3.3706  C     
11   C        30.4314   39.8825    0.7591  C     
12   O        30.1551   39.2436   -0.2529  O     
13   N        31.0060   39.2827    1.7937  N     
14   C        31.5759   37.9630    1.8294  C     
15   C        29.4501   36.4994    1.9105  C     
16   C        33.0520   38.0729    2.3269  C     
17   C        30.6837   37.0199    2.6962  C     
18   O        31.4251   35.8777    3.1293  O     
19   N        27.3548   43.5424   -0.1810  N     
20   C        26.4378   46.3080    0.1798  C     
21   S        26.3670   44.5889    0.7123  S     
22   O        24.8571   44.0911    0.6232  O     
23   O        26.7048   44.5499    2.2688  O     
24   C        35.0151   44.2393    3.5038  C     
25   C        33.9117   39.0512    1.5880  C     
26   C        34.8861   39.8154    2.2775  C     
27   C        35.7083   40.7304    1.5916  C     
28   C        35.5590   40.9108    0.2049  C     
29   C        34.5979   40.1627   -0.4971  C     
30   C        33.7939   39.2303    0.1877  C     
31   N        28.4963   35.8193    2.8090  N     
32   C        27.2887   35.3202    2.1249  C     
33   C        26.4048   34.4008    2.9801  C     
34   C        25.9238   35.8099    2.6199  C     
35   C        33.1266   45.4026    4.7003  C     
36   C        33.0169   46.7769    5.0229  C     
37   C        32.7154   44.4536    5.6704  C     
38   C        32.2300   44.8636    6.9247  C     
39   C        32.1367   46.2331    7.2314  C     
40   C        32.5272   47.1896    6.2760  C     
41   F        31.6887   46.6134    8.3969  F     
42   C        26.9716   43.1862   -1.5243  C     
43   H        29.2007   44.9743    0.9679  H     
44   H        31.8649   41.8233    1.8043  H     
45   H        28.2325   41.0608   -0.1447  H     
46   H        32.9353   43.1632    2.6678  H     
47   H        33.8347   45.8241    2.7221  H     
48   H        31.1041   39.8112    2.6013  H     
49   H        31.6224   37.5325    0.8282  H     
50   H        28.9373   37.3379    1.4275  H     
51   H        29.7878   35.8087    1.1303  H     
52   H        33.0277   38.3247    3.3923  H     
53   H        33.5339   37.0931    2.2384  H     
54   H        30.3344   37.5556    3.5872  H     
55   H        31.9283   36.1790    3.9166  H     
56   H        27.4490   46.6927    0.3090  H     
57   H        25.7491   46.9078    0.7772  H     
58   H        26.1536   46.3778   -0.8686  H     
59   H        34.9331   43.3318    4.1058  H     
60   H        35.7546   44.8971    3.9642  H     
61   H        35.3806   43.9615    2.5135  H     
62   H        35.0017   39.7113    3.2886  H     
63   H        36.4256   41.2553    2.0973  H     
64   H        36.1531   41.5746   -0.2945  H     
65   H        34.4776   40.3032   -1.5015  H     
66   H        33.1132   38.6917   -0.3533  H     
67   H        28.9627   35.0315    3.2685  H     
68   H        28.2236   36.4890    3.5301  H     
69   H        27.3529   34.9869    1.0859  H     
70   H        25.9168   33.5813    2.4469  H     
71   H        26.7488   34.2417    4.0060  H     
72   H        25.9495   36.5532    3.4216  H     
73   H        25.1470   35.8734    1.8565  H     
74   H        33.2904   47.4903    4.3455  H     
75   H        32.7675   43.4515    5.4680  H     
76   H        31.9407   44.1633    7.6132  H     
77   H        32.4567   48.1883    6.4931  H     
78   H        27.7749   43.4494   -2.2201  H     
79   H        26.0682   43.7072   -1.8494  H     
80   H        26.7801   42.1130   -1.5943  H     
@<TRIPOS>BOND
     1    1    2 1
     2    1    6 2
     3    1   19 1
     4    2    3 2
     5    3    4 1
     6    3    7 1
     7    4    5 2
     8    5    6 1
     9    5   11 1
    10    7    8 2
    11    7    9 am
    12    9   10 1
    13   10   24 1
    14   10   35 1
    15   11   12 2
    16   11   13 am
    17   13   14 1
    18   14   16 1
    19   14   17 1
    20   15   17 1
    21   15   31 1
    22   16   25 1
    23   17   18 1
    24   19   21 1
    25   19   42 1
    26   20   21 1
    27   21   22 2
    28   21   23 2
    29   25   26 2
    30   25   30 1
    31   26   27 1
    32   27   28 2
    33   28   29 1
    34   29   30 2
    35   31   32 1
    36   32   33 1
    37   32   34 1
    38   33   34 1
    39   35   36 1
    40   35   37 2
    41   36   40 2
    42   37   38 1
    43   38   39 2
    44   39   40 1
    45   39   41 1
    46    2   43 1
    47    4   44 1
    48    6   45 1
    49    9   46 1
    50   10   47 1
    51   13   48 1
    52   14   49 1
    53   15   50 1
    54   15   51 1
    55   16   52 1
    56   16   53 1
    57   17   54 1
    58   18   55 1
    59   20   56 1
    60   20   57 1
    61   20   58 1
    62   24   59 1
    63   24   60 1
    64   24   61 1
    65   26   62 1
    66   27   63 1
    67   28   64 1
    68   29   65 1
    69   30   66 1
    70   31   67 1
    71   31   68 1
    72   32   69 1
    73   33   70 1
    74   33   71 1
    75   34   72 1
    76   34   73 1
    77   36   74 1
    78   37   75 1
    79   38   76 1
    80   40   77 1
    81   42   78 1
    82   42   79 1
    83   42   80 1
@<TRIPOS>PROPERTY_DATA
  Total_Score	| 17.9135
  Crash		| -1.8561
  Polar		| 8.1331
  FragIndex	| 1
  FragRMSD	| 0.114

