@<TRIPOS>MOLECULE
BindingDB_16033
 73 76 0 0 0
SMALL
NO_CHARGES


@<TRIPOS>ATOM
1    C        28.3710   42.8643    0.4543  C     
2    C        29.3179   43.8241    0.9080  C     
3    C        30.6245   43.4717    1.3292  C     
4    C        31.0058   42.1155    1.2620  C     
5    C        30.1233   41.1312    0.7595  C     
6    C        28.8175   41.5196    0.3734  C     
7    N        27.0638   43.2132    0.1043  N     
8    C        26.2292   42.3446   -0.6974  C     
9    C        24.5511   44.8188    0.4864  C     
10   S        26.3417   44.6275    0.7059  S     
11   O        26.5724   44.7232    2.2781  O     
12   O        26.9997   45.8994    0.0163  O     
13   C        30.5204   39.8026    0.6800  C     
14   O        30.2670   39.1518   -0.3287  O     
15   N        31.1119   39.2453    1.7277  N     
16   C        31.6683   37.9293    1.8083  C     
17   C        30.7442   37.0492    2.7119  C     
18   C        29.4935   36.5358    1.9476  C     
19   N        28.5648   35.8358    2.8559  N     
20   C        27.3567   35.3250    2.1785  C     
21   C        26.4732   34.4211    3.0454  C     
22   C        25.9869   35.8240    2.6565  C     
23   O        31.4415   35.9026    3.1969  O     
24   C        33.1480   38.0420    2.2916  C     
25   C        33.9953   39.0496    1.5758  C     
26   C        34.9353   39.8351    2.2899  C     
27   C        33.8921   39.2470    0.1755  C     
28   C        34.6725   40.2204   -0.4787  C     
29   C        35.6016   40.9842    0.2466  C     
30   C        35.7398   40.7835    1.6309  C     
31   C        31.5871   44.5068    1.8205  C     
32   C        31.8328   44.4944    3.3601  C     
33   C        33.1242   43.7547    3.8019  C     
34   C        34.3009   44.5230    4.4359  C     
35   C        33.3668   43.6893    5.3205  C     
36   H        29.0476   44.8086    0.9452  H     
37   H        31.9482   41.8502    1.5610  H     
38   H        28.1653   40.7875    0.0743  H     
39   H        26.7865   41.9871   -1.5687  H     
40   H        25.3142   42.8130   -1.0843  H     
41   H        25.9252   41.4866   -0.0894  H     
42   H        24.2945   44.8387   -0.5804  H     
43   H        24.2267   45.7623    0.9379  H     
44   H        24.0215   43.9906    0.9701  H     
45   H        31.1991   39.7986    2.5178  H     
46   H        31.7020   37.4570    0.8265  H     
47   H        30.4136   37.6262    3.5826  H     
48   H        28.9654   37.3777    1.4896  H     
49   H        29.8171   35.8530    1.1552  H     
50   H        29.0474   35.0468    3.2941  H     
51   H        28.2951   36.4954    3.5891  H     
52   H        27.4228   34.9870    1.1414  H     
53   H        25.9885   33.5924    2.5274  H     
54   H        26.7814   34.2975    4.0853  H     
55   H        25.9882   36.5605    3.4628  H     
56   H        25.2018   35.8555    1.8996  H     
57   H        31.9252   36.2174    3.9867  H     
58   H        33.1370   38.2579    3.3648  H     
59   H        33.6346   37.0710    2.1678  H     
60   H        35.0510   39.7079    3.2975  H     
61   H        33.2360   38.6941   -0.3792  H     
62   H        34.5705   40.3663   -1.4861  H     
63   H        36.1841   41.6740   -0.2325  H     
64   H        36.4244   41.3295    2.1574  H     
65   H        32.5339   44.3955    1.2859  H     
66   H        31.2088   45.4974    1.5523  H     
67   H        31.8819   45.5272    3.7139  H     
68   H        30.9736   44.0319    3.8549  H     
69   H        33.3943   42.8289    3.2920  H     
70   H        35.2986   44.0924    4.3259  H     
71   H        34.2045   45.6006    4.5813  H     
72   H        32.7083   44.2741    5.9660  H     
73   H        33.7985   42.7623    5.6993  H     
@<TRIPOS>BOND
     1    1    2 1
     2    1    6 2
     3    1    7 1
     4    2    3 2
     5    3    4 1
     6    3   31 1
     7    4    5 2
     8    5    6 1
     9    5   13 1
    10    7    8 1
    11    7   10 1
    12    9   10 1
    13   10   11 2
    14   10   12 2
    15   13   14 2
    16   13   15 am
    17   15   16 1
    18   16   17 1
    19   16   24 1
    20   17   18 1
    21   17   23 1
    22   18   19 1
    23   19   20 1
    24   20   21 1
    25   20   22 1
    26   21   22 1
    27   24   25 1
    28   25   26 1
    29   25   27 2
    30   26   30 2
    31   27   28 1
    32   28   29 2
    33   29   30 1
    34   31   32 1
    35   32   33 1
    36   33   34 1
    37   33   35 1
    38   34   35 1
    39    2   36 1
    40    4   37 1
    41    6   38 1
    42    8   39 1
    43    8   40 1
    44    8   41 1
    45    9   42 1
    46    9   43 1
    47    9   44 1
    48   15   45 1
    49   16   46 1
    50   17   47 1
    51   18   48 1
    52   18   49 1
    53   19   50 1
    54   19   51 1
    55   20   52 1
    56   21   53 1
    57   21   54 1
    58   22   55 1
    59   22   56 1
    60   23   57 1
    61   24   58 1
    62   24   59 1
    63   26   60 1
    64   27   61 1
    65   28   62 1
    66   29   63 1
    67   30   64 1
    68   31   65 1
    69   31   66 1
    70   32   67 1
    71   32   68 1
    72   33   69 1
    73   34   70 1
    74   34   71 1
    75   35   72 1
    76   35   73 1
@<TRIPOS>PROPERTY_DATA
  Total_Score	| 18.4383
  Crash		| -2.2952
  Polar		| 8.2046
  FragIndex	| 1
  FragRMSD	| 0.741

