@<TRIPOS>MOLECULE
BindingDB_16021
 68 70 0 0 0
SMALL
NO_CHARGES


@<TRIPOS>ATOM
1    C        28.4692   42.9485    0.3707  C     
2    C        29.4188   43.8901    0.8429  C     
3    C        30.6863   43.4992    1.3518  C     
4    C        31.0197   42.1328    1.3511  C     
5    C        30.1408   41.1649    0.8171  C     
6    C        28.8757   41.5900    0.3399  C     
7    N        27.1781   43.3289   -0.0315  N     
8    C        26.3935   42.5336   -0.9428  C     
9    C        24.5994   44.7872    0.5335  C     
10   S        26.3921   44.6601    0.6879  S     
11   O        26.6369   44.6402    2.2574  O     
12   O        26.9662   46.0102    0.0637  O     
13   C        30.5099   39.8285    0.7503  C     
14   O        30.3020   39.1859   -0.2735  O     
15   C        31.5425   44.4308    1.8970  C     
16   O        31.9095   45.3833    1.2136  O     
17   N        31.0558   39.2391    1.8046  N     
18   C        31.6307   37.9242    1.8810  C     
19   C        30.7190   37.0173    2.7634  C     
20   C        29.4474   36.5504    2.0152  C     
21   N        28.4972   35.8803    2.9136  N     
22   C        27.2170   35.5772    2.2496  C     
23   C        26.3288   34.5347    2.9419  C     
24   C        27.0596   34.1792    1.6373  C     
25   O        31.4025   35.8332    3.2052  O     
26   C        33.1039   38.0505    2.3721  C     
27   C        33.9466   39.0309    1.6093  C     
28   C        34.9037   39.8408    2.2792  C     
29   C        33.8193   39.1753    0.2081  C     
30   C        34.5838   40.1181   -0.4956  C     
31   C        35.5205   40.9167    0.1800  C     
32   C        35.6829   40.7708    1.5678  C     
33   C        33.1999   43.9297    3.7013  C     
34   C        31.8074   44.4846    3.3286  C     
35   H        29.1804   44.8926    0.8542  H     
36   H        31.9439   41.8450    1.6998  H     
37   H        28.2177   40.8823    0.0266  H     
38   H        27.0212   42.0736   -1.7098  H     
39   H        25.6404   43.1280   -1.4737  H     
40   H        25.8765   41.7498   -0.3861  H     
41   H        24.3071   44.8784   -0.5098  H     
42   H        24.2499   45.6756    1.0660  H     
43   H        24.1203   43.9148    0.9727  H     
44   H        31.1029   39.7603    2.6333  H     
45   H        31.6671   37.4563    0.8899  H     
46   H        30.4025   37.5733    3.6606  H     
47   H        28.9503   37.4141    1.5442  H     
48   H        29.7570   35.8550    1.2142  H     
49   H        28.9175   35.0175    3.2813  H     
50   H        28.3193   36.5128    3.6947  H     
51   H        26.6568   36.3816    1.7610  H     
52   H        26.7309   34.0853    3.8541  H     
53   H        25.2509   34.6911    2.8431  H     
54   H        26.4464   34.1378    0.7377  H     
55   H        27.9321   33.5304    1.7287  H     
56   H        31.9112   36.1194    4.0024  H     
57   H        33.0768   38.3141    3.4356  H     
58   H        33.5911   37.0722    2.2903  H     
59   H        35.0330   39.7491    3.2922  H     
60   H        33.1447   38.6043   -0.3122  H     
61   H        34.4562   40.2277   -1.5059  H     
62   H        36.0861   41.5890   -0.3332  H     
63   H        36.3750   41.3405    2.0623  H     
64   H        33.2663   42.8678    3.4446  H     
65   H        33.3662   44.0395    4.7829  H     
66   H        33.9889   44.4787    3.1725  H     
67   H        31.7414   45.5310    3.6684  H     
68   H        31.0448   43.9297    3.8961  H     
@<TRIPOS>BOND
     1    1    2 1
     2    1    6 2
     3    1    7 1
     4    2    3 2
     5    3    4 1
     6    3   15 1
     7    4    5 2
     8    5    6 1
     9    5   13 1
    10    7    8 1
    11    7   10 1
    12    9   10 1
    13   10   11 2
    14   10   12 2
    15   13   14 2
    16   13   17 am
    17   15   16 2
    18   15   34 1
    19   17   18 1
    20   18   19 1
    21   18   26 1
    22   19   20 1
    23   19   25 1
    24   20   21 1
    25   21   22 1
    26   22   23 1
    27   22   24 1
    28   23   24 1
    29   26   27 1
    30   27   28 1
    31   27   29 2
    32   28   32 2
    33   29   30 1
    34   30   31 2
    35   31   32 1
    36   33   34 1
    37    2   35 1
    38    4   36 1
    39    6   37 1
    40    8   38 1
    41    8   39 1
    42    8   40 1
    43    9   41 1
    44    9   42 1
    45    9   43 1
    46   17   44 1
    47   18   45 1
    48   19   46 1
    49   20   47 1
    50   20   48 1
    51   21   49 1
    52   21   50 1
    53   22   51 1
    54   23   52 1
    55   23   53 1
    56   24   54 1
    57   24   55 1
    58   25   56 1
    59   26   57 1
    60   26   58 1
    61   28   59 1
    62   29   60 1
    63   30   61 1
    64   31   62 1
    65   32   63 1
    66   33   64 1
    67   33   65 1
    68   33   66 1
    69   34   67 1
    70   34   68 1
@<TRIPOS>PROPERTY_DATA
  Total_Score	| 16.4369
  Crash		| -2.1689
  Polar		| 8.8482
  FragIndex	| 1
  FragRMSD	| 0.836

