@<TRIPOS>MOLECULE
BindingDB_16022
 75 78 0 0 0
SMALL
NO_CHARGES


@<TRIPOS>ATOM
1    C        28.1149   42.9882    0.3249  C     
2    C        28.4393   41.6095    0.3030  C     
3    C        29.6782   41.1306    0.7860  C     
4    C        30.6018   42.0628    1.3116  C     
5    C        30.3472   43.4576    1.3039  C     
6    C        29.1009   43.8884    0.7828  C     
7    N        26.8743   43.4455   -0.0873  N     
8    C        26.1514   42.8229   -1.1643  C     
9    C        26.2463   46.3151    0.0299  C     
10   S        26.0831   44.6795    0.7701  S     
11   O        24.5290   44.3518    0.9195  O     
12   O        26.6032   44.7668    2.2739  O     
13   C        31.2950   44.3838    1.7356  C     
14   O        31.2183   45.5457    1.3405  O     
15   C        29.9930   39.7741    0.7336  C     
16   O        29.9141   39.1863   -0.3353  O     
17   N        32.2064   44.0672    2.6463  N     
18   C        33.2760   44.9078    3.1278  C     
19   C        34.4128   44.0345    3.7610  C     
20   C        35.0703   43.0345    2.7687  C     
21   N        34.3174   41.7616    2.6241  N     
22   C        34.0035   41.4074    1.2242  C     
23   C        35.0582   40.6072    0.4365  C     
24   C        33.7870   39.9109    0.9496  C     
25   O        35.4490   44.8786    4.2668  O     
26   C        32.7578   46.0553    4.0610  C     
27   C        32.2856   45.6653    5.4207  C     
28   C        31.4992   44.5063    5.6415  C     
29   C        32.6112   46.4696    6.5424  C     
30   C        32.2593   46.0748    7.8440  C     
31   C        31.5558   44.8758    8.0528  C     
32   C        31.1488   44.1085    6.9445  C     
33   C        30.2893   38.9966    1.9369  C     
34   C        29.7500   37.6038    1.9080  C     
35   C        30.6052   36.4867    2.0870  C     
36   C        30.0878   35.1759    2.0489  C     
37   C        28.7119   34.9652    1.8558  C     
38   C        27.8519   36.0651    1.6678  C     
39   C        28.3692   37.3746    1.6978  C     
40   H        27.7377   40.9401   -0.0228  H     
41   H        31.4998   41.7165    1.6693  H     
42   H        28.8932   44.8873    0.7520  H     
43   H        26.8254   42.3225   -1.8676  H     
44   H        25.5737   43.5602   -1.7378  H     
45   H        25.4560   42.0801   -0.7584  H     
46   H        27.2965   46.6066    0.0003  H     
47   H        25.6882   47.0361    0.6308  H     
48   H        25.8437   46.3019   -0.9868  H     
49   H        32.1501   43.1725    3.0170  H     
50   H        33.7140   45.3967    2.2514  H     
51   H        34.0149   43.4792    4.6141  H     
52   H        35.2072   43.5450    1.8096  H     
53   H        36.0681   42.7715    3.1286  H     
54   H        34.8848   41.0118    3.0252  H     
55   H        33.4455   41.8044    3.1532  H     
56   H        33.3518   42.0585    0.6328  H     
57   H        35.0933   40.8205   -0.6338  H     
58   H        35.9828   40.3824    0.9771  H     
59   H        33.9483   39.2307    1.7865  H     
60   H        33.0478   39.6657    0.1871  H     
61   H        35.8030   45.3477    3.4830  H     
62   H        33.5747   46.7760    4.1540  H     
63   H        31.9543   46.6078    3.5747  H     
64   H        31.1919   43.9265    4.8589  H     
65   H        33.1163   47.3521    6.4191  H     
66   H        32.5355   46.6496    8.6456  H     
67   H        31.3219   44.5769    9.0004  H     
68   H        30.6065   43.2534    7.0889  H     
69   H        31.3755   38.9807    2.0550  H     
70   H        29.8770   39.4907    2.8273  H     
71   H        31.6056   36.6173    2.2569  H     
72   H        30.7189   34.3788    2.1684  H     
73   H        28.3378   34.0101    1.8331  H     
74   H        26.8525   35.9109    1.5159  H     
75   H        27.7335   38.1622    1.5421  H     
@<TRIPOS>BOND
     1    1    2 1
     2    1    6 2
     3    1    7 1
     4    2    3 2
     5    3    4 1
     6    3   15 1
     7    4    5 2
     8    5    6 1
     9    5   13 1
    10    7    8 1
    11    7   10 1
    12    9   10 1
    13   10   11 2
    14   10   12 2
    15   13   14 2
    16   13   17 am
    17   15   16 2
    18   15   33 1
    19   17   18 1
    20   18   19 1
    21   18   26 1
    22   19   20 1
    23   19   25 1
    24   20   21 1
    25   21   22 1
    26   22   23 1
    27   22   24 1
    28   23   24 1
    29   26   27 1
    30   27   28 1
    31   27   29 2
    32   28   32 2
    33   29   30 1
    34   30   31 2
    35   31   32 1
    36   33   34 1
    37   34   35 2
    38   34   39 1
    39   35   36 1
    40   36   37 2
    41   37   38 1
    42   38   39 2
    43    2   40 1
    44    4   41 1
    45    6   42 1
    46    8   43 1
    47    8   44 1
    48    8   45 1
    49    9   46 1
    50    9   47 1
    51    9   48 1
    52   17   49 1
    53   18   50 1
    54   19   51 1
    55   20   52 1
    56   20   53 1
    57   21   54 1
    58   21   55 1
    59   22   56 1
    60   23   57 1
    61   23   58 1
    62   24   59 1
    63   24   60 1
    64   25   61 1
    65   26   62 1
    66   26   63 1
    67   28   64 1
    68   29   65 1
    69   30   66 1
    70   31   67 1
    71   32   68 1
    72   33   69 1
    73   33   70 1
    74   35   71 1
    75   36   72 1
    76   37   73 1
    77   38   74 1
    78   39   75 1
@<TRIPOS>PROPERTY_DATA
  Total_Score	| 12.1387
  Crash		| -2.8726
  Polar		| 5.8848
  FragIndex	| 1
  FragRMSD	| 0.577

