@<TRIPOS>MOLECULE
BindingDB_16413
 86 89 0 0 0
SMALL
NO_CHARGES


@<TRIPOS>ATOM
1    C        28.5702   43.2083    0.4227  C     
2    C        29.5130   44.0511    1.0452  C     
3    C        30.7425   43.6020    1.5751  C     
4    C        31.0010   42.2109    1.4706  C     
5    C        30.0934   41.3051    0.8675  C     
6    C        28.8906   41.8335    0.3375  C     
7    C        31.6634   44.4931    2.1623  C     
8    O        31.4538   45.7042    2.1098  O     
9    N        32.7611   44.0815    2.7930  N     
10   C        33.7321   44.9040    3.4603  C     
11   C        30.4037   39.9421    0.7777  C     
12   O        30.1229   39.3259   -0.2438  O     
13   N        30.9949   39.3207    1.7916  N     
14   C        31.5638   37.9999    1.8058  C     
15   C        29.4365   36.5374    1.8928  C     
16   C        33.0346   38.0989    2.3155  C     
17   C        30.6796   37.0420    2.6691  C     
18   O        31.4084   35.8768    3.0676  O     
19   N        27.3938   43.7018   -0.1113  N     
20   S        26.3782   44.7081    0.8059  S     
21   O        24.8864   44.1524    0.7382  O     
22   O        26.6903   44.5196    2.3546  O     
23   C        35.0758   44.1470    3.6039  C     
24   C        33.9116   39.0573    1.5769  C     
25   C        34.8931   39.8102    2.2673  C     
26   C        35.7292   40.7055    1.5767  C     
27   C        35.5794   40.8875    0.1908  C     
28   C        34.6071   40.1547   -0.5078  C     
29   C        33.7988   39.2282    0.1748  C     
30   C        33.1949   45.3496    4.7855  C     
31   C        32.7758   44.4038    5.7552  C     
32   C        33.0655   46.7250    5.0853  C     
33   C        32.5475   47.1457    6.3251  C     
34   C        32.1511   46.1961    7.2826  C     
35   C        32.2623   44.8247    6.9963  C     
36   N        28.4944   35.8416    2.7973  N     
37   C        26.3893   46.5036    0.5042  C     
38   C        27.8226   47.0224    0.2454  C     
39   C        25.4351   46.9081   -0.6466  C     
40   C        26.9709   43.3298   -1.4386  C     
41   C        27.3008   35.3130    2.1044  C     
42   C        26.3785   34.4258    2.9500  C     
43   C        25.9286   35.8356    2.5505  C     
44   H        29.2734   45.0805    1.1101  H     
45   H        31.8935   41.8410    1.8034  H     
46   H        28.2281   41.1910   -0.0946  H     
47   H        32.9026   43.1246    2.8564  H     
48   H        33.9511   45.7662    2.8170  H     
49   H        31.1171   39.8400    2.6002  H     
50   H        31.6064   37.5760    0.8023  H     
51   H        28.9175   37.3828    1.4325  H     
52   H        29.7663   35.8617    1.0968  H     
53   H        33.0035   38.3586    3.3799  H     
54   H        33.5087   37.1155    2.2421  H     
55   H        30.3520   37.5612    3.5769  H     
56   H        31.9334   36.1424    3.8512  H     
57   H        34.9750   43.2732    4.2458  H     
58   H        35.8365   44.8044    4.0203  H     
59   H        35.4156   43.8180    2.6230  H     
60   H        35.0052   39.7085    3.2781  H     
61   H        36.4522   41.2217    2.0804  H     
62   H        36.1811   41.5458   -0.3095  H     
63   H        34.4869   40.2930   -1.5139  H     
64   H        33.1118   38.7009   -0.3650  H     
65   H        32.8355   43.3998    5.5640  H     
66   H        33.3416   47.4328    4.4034  H     
67   H        32.4538   48.1439    6.5271  H     
68   H        31.7751   46.5015    8.1830  H     
69   H        31.9638   44.1341    7.6867  H     
70   H        28.9708   35.0647    3.2616  H     
71   H        28.2055   36.5105    3.5094  H     
72   H        26.0246   46.9826    1.4185  H     
73   H        28.4887   46.6943    1.0578  H     
74   H        27.8352   48.1117    0.2075  H     
75   H        28.2164   46.6348   -0.6932  H     
76   H        25.7889   46.4997   -1.5958  H     
77   H        25.3840   47.9985   -0.7334  H     
78   H        24.4265   46.5369   -0.4454  H     
79   H        27.7767   43.5090   -2.1553  H     
80   H        26.1016   43.8983   -1.7819  H     
81   H        26.7008   42.2719   -1.4686  H     
82   H        27.3835   34.9669    1.0702  H     
83   H        25.8992   33.6011    2.4166  H     
84   H        26.6868   34.2826    3.9877  H     
85   H        25.9253   36.5761    3.3531  H     
86   H        25.1741   35.8949    1.7629  H     
@<TRIPOS>BOND
     1    1    2 1
     2    1    6 2
     3    1   19 1
     4    2    3 2
     5    3    4 1
     6    3    7 1
     7    4    5 2
     8    5    6 1
     9    5   11 1
    10    7    8 2
    11    7    9 am
    12    9   10 1
    13   10   23 1
    14   10   30 1
    15   11   12 2
    16   11   13 am
    17   13   14 1
    18   14   16 1
    19   14   17 1
    20   15   17 1
    21   15   36 1
    22   16   24 1
    23   17   18 1
    24   19   20 1
    25   19   40 1
    26   20   21 2
    27   20   22 2
    28   20   37 1
    29   24   25 2
    30   24   29 1
    31   25   26 1
    32   26   27 2
    33   27   28 1
    34   28   29 2
    35   30   31 1
    36   30   32 2
    37   31   35 2
    38   32   33 1
    39   33   34 2
    40   34   35 1
    41   36   41 1
    42   37   38 1
    43   37   39 1
    44   41   42 1
    45   41   43 1
    46   42   43 1
    47    2   44 1
    48    4   45 1
    49    6   46 1
    50    9   47 1
    51   10   48 1
    52   13   49 1
    53   14   50 1
    54   15   51 1
    55   15   52 1
    56   16   53 1
    57   16   54 1
    58   17   55 1
    59   18   56 1
    60   23   57 1
    61   23   58 1
    62   23   59 1
    63   25   60 1
    64   26   61 1
    65   27   62 1
    66   28   63 1
    67   29   64 1
    68   31   65 1
    69   32   66 1
    70   33   67 1
    71   34   68 1
    72   35   69 1
    73   36   70 1
    74   36   71 1
    75   37   72 1
    76   38   73 1
    77   38   74 1
    78   38   75 1
    79   39   76 1
    80   39   77 1
    81   39   78 1
    82   40   79 1
    83   40   80 1
    84   40   81 1
    85   41   82 1
    86   42   83 1
    87   42   84 1
    88   43   85 1
    89   43   86 1
@<TRIPOS>PROPERTY_DATA
  Total_Score	| 18.1894
  Crash		| -2.5423
  Polar		| 7.9534
  FragIndex	| 1
  FragRMSD	| 0.152

