@<TRIPOS>MOLECULE
BindingDB_16034
 80 83 0 0 0
SMALL
NO_CHARGES


@<TRIPOS>ATOM
1    C        31.2359   45.0869    6.7788  C     
2    C        31.4812   46.3892    7.2561  C     
3    C        32.2901   47.2690    6.5131  C     
4    C        32.8493   46.8506    5.2920  C     
5    C        31.8054   44.6678    5.5647  C     
6    C        32.6088   45.5459    4.7947  C     
7    C        33.2649   45.0880    3.5309  C     
8    C        34.6240   44.4302    3.8558  C     
9    N        32.4212   44.1806    2.8014  N     
10   C        31.4896   44.4905    1.8944  C     
11   O        31.3301   45.6892    1.6337  O     
12   C        30.5909   43.5477    1.3851  C     
13   C        28.4007   43.0352    0.3434  C     
14   C        29.3515   43.9585    0.8250  C     
15   C        30.8698   42.1522    1.3854  C     
16   C        29.9651   41.2039    0.8528  C     
17   C        28.7361   41.6683    0.3320  C     
18   N        27.1803   43.4817   -0.1065  N     
19   C        26.6875   43.0752   -1.3985  C     
20   C        26.4797   46.3038    0.2245  C     
21   S        26.2847   44.6074    0.7976  S     
22   O        24.7467   44.2232    0.7547  O     
23   O        26.6583   44.5785    2.3467  O     
24   C        30.3032   39.8551    0.7836  C     
25   O        30.0248   39.2260   -0.2312  O     
26   N        30.8944   39.2433    1.8080  N     
27   C        31.4719   37.9181    1.8203  C     
28   C        30.5803   36.9593    2.6740  C     
29   C        29.3880   36.3975    1.8634  C     
30   N        28.4131   35.7411    2.7609  N     
31   C        27.2309   35.2022    2.0631  C     
32   C        26.3583   34.2973    2.9497  C     
33   C        25.8266   35.6634    2.4924  C     
34   O        31.3175   35.8304    3.1638  O     
35   C        32.9263   37.9920    2.3834  C     
36   C        33.8079   38.9332    1.6439  C     
37   C        34.7257   39.7508    2.3536  C     
38   C        35.5375   40.6893    1.6827  C     
39   C        35.4071   40.8542    0.2921  C     
40   C        34.5028   40.0470   -0.4340  C     
41   C        33.7166   39.0840    0.2349  C     
42   H        30.6641   44.4413    7.3238  H     
43   H        31.0867   46.6907    8.1464  H     
44   H        32.4908   48.2092    6.8734  H     
45   H        33.4503   47.4999    4.7788  H     
46   H        31.6324   43.7103    5.2453  H     
47   H        33.4939   45.9534    2.8996  H     
48   H        35.2410   45.1267    4.4371  H     
49   H        35.1590   44.2084    2.9399  H     
50   H        34.4837   43.5033    4.4121  H     
51   H        32.4503   43.2425    3.0832  H     
52   H        29.1249   44.9578    0.7963  H     
53   H        31.7700   41.8256    1.7339  H     
54   H        28.0566   40.9963   -0.0220  H     
55   H        27.4227   43.3261   -2.1673  H     
56   H        25.7474   43.5682   -1.6647  H     
57   H        26.5079   41.9982   -1.4235  H     
58   H        27.5260   46.5984    0.3029  H     
59   H        25.8695   46.9670    0.8360  H     
60   H        26.1590   46.3712   -0.8164  H     
61   H        30.9965   39.7622    2.6274  H     
62   H        31.5442   37.5019    0.8145  H     
63   H        30.1840   37.4966    3.5387  H     
64   H        28.8754   37.2016    1.3266  H     
65   H        29.7613   35.6762    1.1282  H     
66   H        28.8660   34.9756    3.2643  H     
67   H        28.1042   36.4347    3.4436  H     
68   H        27.3293   34.8195    1.0431  H     
69   H        25.9238   33.4285    2.4532  H     
70   H        26.6500   34.2240    3.9990  H     
71   H        25.7929   36.4503    3.2499  H     
72   H        25.0733   35.6420    1.7024  H     
73   H        31.8481   36.1530    3.9219  H     
74   H        32.8766   38.2830    3.4376  H     
75   H        33.3972   36.9974    2.3452  H     
76   H        34.8075   39.6707    3.3694  H     
77   H        36.2157   41.2553    2.2104  H     
78   H        35.9814   41.5457   -0.1981  H     
79   H        34.4227   40.1657   -1.4495  H     
80   H        33.0781   38.4990   -0.3103  H     
@<TRIPOS>BOND
     1    1    2 2
     2    1    5 1
     3    2    3 1
     4    3    4 2
     5    4    6 1
     6    5    6 2
     7    6    7 1
     8    7    8 1
     9    7    9 1
    10    9   10 am
    11   10   11 2
    12   10   12 1
    13   12   14 2
    14   12   15 1
    15   13   14 1
    16   13   17 2
    17   13   18 1
    18   15   16 2
    19   16   17 1
    20   16   24 1
    21   18   19 1
    22   18   21 1
    23   20   21 1
    24   21   22 2
    25   21   23 2
    26   24   25 2
    27   24   26 am
    28   26   27 1
    29   27   28 1
    30   27   35 1
    31   28   29 1
    32   28   34 1
    33   29   30 1
    34   30   31 1
    35   31   32 1
    36   31   33 1
    37   32   33 1
    38   35   36 1
    39   36   37 2
    40   36   41 1
    41   37   38 1
    42   38   39 2
    43   39   40 1
    44   40   41 2
    45    1   42 1
    46    2   43 1
    47    3   44 1
    48    4   45 1
    49    5   46 1
    50    7   47 1
    51    8   48 1
    52    8   49 1
    53    8   50 1
    54    9   51 1
    55   14   52 1
    56   15   53 1
    57   17   54 1
    58   19   55 1
    59   19   56 1
    60   19   57 1
    61   20   58 1
    62   20   59 1
    63   20   60 1
    64   26   61 1
    65   27   62 1
    66   28   63 1
    67   29   64 1
    68   29   65 1
    69   30   66 1
    70   30   67 1
    71   31   68 1
    72   32   69 1
    73   32   70 1
    74   33   71 1
    75   33   72 1
    76   34   73 1
    77   35   74 1
    78   35   75 1
    79   37   76 1
    80   38   77 1
    81   39   78 1
    82   40   79 1
    83   41   80 1
@<TRIPOS>PROPERTY_DATA
  Total_Score	| 18.3767
  Crash		| -2.1336
  Polar		| 8.7499
  FragIndex	| 1
  FragRMSD	| 0.291

