@<TRIPOS>MOLECULE
BindingDB_16020
 67 69 0 0 0
SMALL
NO_CHARGES


@<TRIPOS>ATOM
1    C        28.6885   43.1937    0.2401  C     
2    C        29.6815   44.0532    0.7621  C     
3    C        30.8738   43.5580    1.3425  C     
4    C        31.0718   42.1582    1.3640  C     
5    C        30.1310   41.2621    0.8016  C     
6    C        28.9465   41.8040    0.2407  C     
7    N        27.5001   43.6966   -0.2448  N     
8    C        27.0038   43.2939   -1.5333  C     
9    C        24.8551   44.8955    0.3885  C     
10   S        26.6365   44.8375    0.6680  S     
11   O        26.7698   44.5192    2.2246  O     
12   O        27.2241   46.3054    0.4737  O     
13   C        30.3920   39.8910    0.7609  C     
14   O        30.1602   39.2568   -0.2649  O     
15   C        31.8157   44.4333    1.8841  C     
16   O        32.0925   45.4678    1.2857  O     
17   N        30.9241   39.2798    1.8195  N     
18   C        31.4699   37.9438    1.8818  C     
19   C        30.5629   37.0103    2.7555  C     
20   C        29.3396   36.4873    1.9529  C     
21   N        28.3712   35.7818    2.8228  N     
22   C        27.2138   35.2209    2.0925  C     
23   C        26.3328   34.2825    2.9382  C     
24   C        25.7891   35.6516    2.5011  C     
25   O        31.2899   35.8687    3.2218  O     
26   C        32.9517   38.0419    2.3662  C     
27   C        33.8096   39.0281    1.6362  C     
28   C        34.7705   39.8087    2.3332  C     
29   C        33.6955   39.2148    0.2355  C     
30   C        34.4809   40.1688   -0.4357  C     
31   C        35.4354   40.9193    0.2702  C     
32   C        35.5839   40.7353    1.6563  C     
33   N        32.3799   44.1753    3.0589  N     
34   C        33.3109   45.0145    3.7397  C     
35   H        29.5220   45.0637    0.7285  H     
36   H        31.9538   41.7910    1.7350  H     
37   H        28.2450   41.1633   -0.1405  H     
38   H        27.7928   43.3805   -2.2781  H     
39   H        26.1650   43.8970   -1.8822  H     
40   H        26.6672   42.2601   -1.5036  H     
41   H        24.6398   45.2613   -0.6167  H     
42   H        24.3959   45.5673    1.1172  H     
43   H        24.4384   43.8947    0.5054  H     
44   H        31.0092   39.8067    2.6347  H     
45   H        31.5024   37.4955    0.8787  H     
46   H        30.2113   37.5625    3.6313  H     
47   H        28.8193   37.3296    1.4816  H     
48   H        29.6947   35.8145    1.1591  H     
49   H        28.8474   35.0178    3.3188  H     
50   H        28.0253   36.4608    3.5139  H     
51   H        27.3408   34.8572    1.0713  H     
52   H        25.9265   33.4163    2.4147  H     
53   H        26.6129   34.1891    3.9888  H     
54   H        25.7175   36.4082    3.2867  H     
55   H        25.0493   35.6362    1.6970  H     
56   H        31.8367   36.1923    3.9713  H     
57   H        32.9336   38.2754    3.4342  H     
58   H        33.4235   37.0661    2.2492  H     
59   H        34.8932   39.6886    3.3430  H     
60   H        33.0234   38.6726   -0.3086  H     
61   H        34.3620   40.3098   -1.4429  H     
62   H        36.0178   41.6027   -0.2248  H     
63   H        36.2752   41.2862    2.1684  H     
64   H        32.1041   43.3595    3.5092  H     
65   H        34.1892   45.2026    3.1176  H     
66   H        33.6339   44.5273    4.6626  H     
67   H        32.8366   45.9648    3.9968  H     
@<TRIPOS>BOND
     1    1    2 1
     2    1    6 2
     3    1    7 1
     4    2    3 2
     5    3    4 1
     6    3   15 1
     7    4    5 2
     8    5    6 1
     9    5   13 1
    10    7    8 1
    11    7   10 1
    12    9   10 1
    13   10   11 2
    14   10   12 2
    15   13   14 2
    16   13   17 am
    17   15   16 2
    18   15   33 am
    19   17   18 1
    20   18   19 1
    21   18   26 1
    22   19   20 1
    23   19   25 1
    24   20   21 1
    25   21   22 1
    26   22   23 1
    27   22   24 1
    28   23   24 1
    29   26   27 1
    30   27   28 1
    31   27   29 2
    32   28   32 2
    33   29   30 1
    34   30   31 2
    35   31   32 1
    36   33   34 1
    37    2   35 1
    38    4   36 1
    39    6   37 1
    40    8   38 1
    41    8   39 1
    42    8   40 1
    43    9   41 1
    44    9   42 1
    45    9   43 1
    46   17   44 1
    47   18   45 1
    48   19   46 1
    49   20   47 1
    50   20   48 1
    51   21   49 1
    52   21   50 1
    53   22   51 1
    54   23   52 1
    55   23   53 1
    56   24   54 1
    57   24   55 1
    58   25   56 1
    59   26   57 1
    60   26   58 1
    61   28   59 1
    62   29   60 1
    63   30   61 1
    64   31   62 1
    65   32   63 1
    66   33   64 1
    67   34   65 1
    68   34   66 1
    69   34   67 1
@<TRIPOS>PROPERTY_DATA
  Total_Score	| 16.4389
  Crash		| -1.5399
  Polar		| 9.5223
  FragIndex	| 1
  FragRMSD	| 0.747

