@<TRIPOS>MOLECULE
BindingDB_13981
 67 68 0 0 0
SMALL
NO_CHARGES


@<TRIPOS>ATOM
1    C        32.3010   31.3559   19.1992  C     
2    C        33.6662   31.1450   18.9045  C     
3    C        34.4151   30.1941   19.6182  C     
4    C        33.8074   29.4013   20.6133  C     
5    C        32.4437   29.6163   20.9170  C     
6    C        31.6987   30.5780   20.2128  C     
7    C        31.5304   32.3854   18.4515  C     
8    C        31.6486   32.2486   16.9041  C     
9    C        31.0514   31.0058   16.4134  C     
10   O        31.7687   30.1585   15.8990  O     
11   N        29.7523   30.7798   16.5930  N     
12   C        29.0414   29.5902   16.2397  C     
13   C        27.6325   29.5899   16.8834  C     
14   C        27.6672   29.5851   18.4382  C     
15   C        26.2587   29.5902   19.0776  C     
16   O        26.3857   29.5148   20.5134  O     
17   C        25.2388   29.8088   21.1996  C     
18   C        23.7032   31.5278   22.0222  C     
19   C        22.9455   30.5412   22.6660  C     
20   C        23.3295   29.1885   22.5913  C     
21   C        24.4917   28.8021   21.8736  C     
22   C        24.8568   31.1641   21.3068  C     
23   C        24.8798   27.4344   21.8274  C     
24   O        24.5239   26.5750   22.8172  O     
25   O        25.6090   26.9515   20.7849  O     
26   C        26.0562   25.6060   20.5955  C     
27   O        22.5347   28.2837   23.2211  O     
28   N        30.9874   33.3728   16.2945  N     
29   C        31.4679   34.1814   15.3601  C     
30   O        32.5655   34.0061   14.8436  O     
31   N        34.6016   28.5104   21.2767  N     
32   C        30.6706   35.3148   14.9438  C     
33   C        34.4896   27.1950   21.3381  C     
34   O        33.6627   26.5791   20.6619  O     
35   C        35.4654   26.4581   22.1014  C     
36   O        35.4589   26.8733   23.4660  O     
37   H        34.1282   31.7020   18.1892  H     
38   H        35.4064   30.0657   19.3933  H     
39   H        31.9923   29.0993   21.6725  H     
40   H        30.7198   30.7190   20.4600  H     
41   H        30.4737   32.3527   18.7391  H     
42   H        31.8890   33.3734   18.7495  H     
43   H        32.7145   32.2576   16.6501  H     
44   H        29.2382   31.4879   17.0109  H     
45   H        28.9395   29.5506   15.1526  H     
46   H        29.5941   28.7065   16.5747  H     
47   H        27.0869   30.4678   16.5253  H     
48   H        27.0942   28.7010   16.5483  H     
49   H        28.1948   28.6865   18.7745  H     
50   H        28.2139   30.4546   18.8046  H     
51   H        25.7544   30.5162   18.7855  H     
52   H        25.6797   28.7420   18.6926  H     
53   H        23.4233   32.5124   22.0819  H     
54   H        22.1103   30.8154   23.1848  H     
55   H        25.4079   31.8990   20.8544  H     
56   H        26.7212   25.3100   21.4110  H     
57   H        26.6026   25.5464   19.6523  H     
58   H        25.2015   24.9240   20.5565  H     
59   H        21.6537   28.3263   22.7918  H     
60   H        30.1079   33.5876   16.6352  H     
61   H        35.3857   28.8894   21.7108  H     
62   H        29.7036   34.9722   14.5687  H     
63   H        31.1629   35.8840   14.1507  H     
64   H        30.5083   35.9766   15.7976  H     
65   H        35.2580   25.3860   22.0725  H     
66   H        36.4635   26.6205   21.6813  H     
67   H        35.8582   27.7683   23.4818  H     
@<TRIPOS>BOND
     1    1    2 1
     2    1    6 2
     3    1    7 1
     4    2    3 2
     5    3    4 1
     6    4    5 2
     7    4   31 1
     8    5    6 1
     9    7    8 1
    10    8    9 1
    11    8   28 1
    12    9   10 2
    13    9   11 am
    14   11   12 1
    15   12   13 1
    16   13   14 1
    17   14   15 1
    18   15   16 1
    19   16   17 1
    20   17   21 1
    21   17   22 2
    22   18   19 2
    23   18   22 1
    24   19   20 1
    25   20   21 2
    26   20   27 1
    27   21   23 1
    28   23   24 2
    29   23   25 1
    30   25   26 1
    31   28   29 am
    32   29   30 2
    33   29   32 1
    34   31   33 am
    35   33   34 2
    36   33   35 1
    37   35   36 1
    38    2   37 1
    39    3   38 1
    40    5   39 1
    41    6   40 1
    42    7   41 1
    43    7   42 1
    44    8   43 1
    45   11   44 1
    46   12   45 1
    47   12   46 1
    48   13   47 1
    49   13   48 1
    50   14   49 1
    51   14   50 1
    52   15   51 1
    53   15   52 1
    54   18   53 1
    55   19   54 1
    56   22   55 1
    57   26   56 1
    58   26   57 1
    59   26   58 1
    60   27   59 1
    61   28   60 1
    62   31   61 1
    63   32   62 1
    64   32   63 1
    65   32   64 1
    66   35   65 1
    67   35   66 1
    68   36   67 1
@<TRIPOS>PROPERTY_DATA
  Total_Score	| 11.4813
  Crash		| -1.5586
  Polar		| 8.2563
  FragIndex	| 1
  FragRMSD	| 0.200

