@<TRIPOS>MOLECULE
BindingDB_50132469
 67 68 0 0 0
SMALL
NO_CHARGES


@<TRIPOS>ATOM
1    C        34.3857   30.1526   20.0444  C     
2    C        24.4503   28.7738   21.8886  C     
3    C        35.7950   29.9971   19.9005  C     
4    C        24.9070   27.4349   21.8272  C     
5    C        31.0172   30.8663   16.6139  C     
6    C        31.6838   32.1063   17.0145  C     
7    N        31.0597   33.2204   16.3412  N     
8    C        33.6363   29.4087   20.9951  C     
9    C        31.5726   33.9890   15.3844  C     
10   C        33.6894   31.0945   19.2476  C     
11   C        35.5781   26.6951   22.2642  C     
12   C        23.2169   29.0603   22.5345  C     
13   C        25.2223   29.8439   21.3435  C     
14   C        31.6095   32.3498   18.5538  C     
15   O        34.2474   28.5957   21.9078  O     
16   C        32.2965   31.3064   19.3720  C     
17   O        36.5179   30.7639   19.0524  O     
18   O        24.5787   26.5897   22.8374  O     
19   O        31.6847   29.9927   16.0680  O     
20   O        32.7031   33.7982   14.9359  O     
21   O        35.7529   27.0390   23.5603  O     
22   C        32.2475   29.6128   21.1265  C     
23   N        29.7223   30.6856   16.8706  N     
24   C        34.4273   27.2203   21.5062  C     
25   O        36.5150   29.0693   20.5734  O     
26   O        25.6614   26.9848   20.7847  O     
27   C        31.5839   30.5495   20.3239  C     
28   O        36.4856   25.8846   21.6779  O     
29   O        22.4028   28.0529   22.9716  O     
30   O        26.4377   29.5981   20.7248  O     
31   C        23.6186   31.4547   22.2836  C     
32   C        30.7696   35.0724   14.8651  C     
33   C        22.8089   30.3958   22.7168  C     
34   C        24.8378   31.1750   21.6383  C     
35   C        28.9335   29.5185   16.5898  C     
36   C        26.8657   30.4214   19.6032  C     
37   C        26.1182   25.6336   20.6352  C     
38   C        28.2519   28.9883   17.8875  C     
39   C        26.8910   29.6769   18.2441  C     
40   H        32.7447   32.0559   16.7322  H     
41   H        30.1675   33.4646   16.6555  H     
42   H        34.2058   31.6530   18.5638  H     
43   H        32.0719   33.3142   18.7779  H     
44   H        30.5560   32.4382   18.8378  H     
45   H        31.7123   29.1028   21.8323  H     
46   H        29.2574   31.4305   17.2890  H     
47   H        34.6386   27.1242   20.4264  H     
48   H        33.5399   26.6280   21.7489  H     
49   H        30.5753   30.6928   20.4399  H     
50   H        21.5978   28.0835   22.4050  H     
51   H        23.3388   32.4205   22.4601  H     
52   H        29.8342   34.6744   14.4602  H     
53   H        31.2902   35.6116   14.0671  H     
54   H        30.5392   35.7788   15.6684  H     
55   H        21.9204   30.6068   23.1786  H     
56   H        25.4266   31.9625   21.3730  H     
57   H        28.1652   29.7892   15.8546  H     
58   H        29.5398   28.7061   16.1627  H     
59   H        26.2563   31.3174   19.4623  H     
60   H        27.8731   30.7745   19.8339  H     
61   H        26.7517   25.3605   21.4832  H     
62   H        26.7013   25.5293   19.7196  H     
63   H        25.2595   24.9544   20.5827  H     
64   H        28.0667   27.9178   17.7524  H     
65   H        28.9713   29.0859   18.7131  H     
66   H        26.0984   28.9196   18.2490  H     
67   H        26.6324   30.3972   17.4584  H     
@<TRIPOS>BOND
     1    1    3 1
     2    1    8 1
     3    1   10 2
     4    2    4 1
     5    2   12 1
     6    2   13 2
     7    3   17 2
     8    3   25 1
     9    4   18 2
    10    4   26 1
    11    5    6 1
    12    5   19 2
    13    5   23 am
    14    6    7 1
    15    6   14 1
    16    7    9 am
    17    8   15 1
    18    8   22 2
    19    9   20 2
    20    9   32 1
    21   10   16 1
    22   11   21 2
    23   11   24 1
    24   11   28 1
    25   12   29 1
    26   12   33 2
    27   13   30 1
    28   13   34 1
    29   14   16 1
    30   15   24 1
    31   16   27 2
    32   22   27 1
    33   23   35 1
    34   26   37 1
    35   30   36 1
    36   31   33 1
    37   31   34 2
    38   35   38 1
    39   36   39 1
    40   38   39 1
    41    6   40 1
    42    7   41 1
    43   10   42 1
    44   14   43 1
    45   14   44 1
    46   22   45 1
    47   23   46 1
    48   24   47 1
    49   24   48 1
    50   27   49 1
    51   29   50 1
    52   31   51 1
    53   32   52 1
    54   32   53 1
    55   32   54 1
    56   33   55 1
    57   34   56 1
    58   35   57 1
    59   35   58 1
    60   36   59 1
    61   36   60 1
    62   37   61 1
    63   37   62 1
    64   37   63 1
    65   38   64 1
    66   38   65 1
    67   39   66 1
    68   39   67 1
@<TRIPOS>PROPERTY_DATA
  Total_Score	| 15.3736
  Crash		| -2.0756
  Polar		| 12.6138
  FragIndex	| 1
  FragRMSD	| 0.709

