@<TRIPOS>MOLECULE
BindingDB_50308851
 66 67 0 0 0
SMALL
NO_CHARGES


@<TRIPOS>ATOM
1    C        33.8614   29.8031   20.6864  C     
2    C        34.4077   30.6250   19.6770  C     
3    C        33.5544   31.4420   18.9087  C     
4    C        32.1642   31.4876   19.1654  C     
5    C        31.6391   30.6928   20.2118  C     
6    C        32.4801   29.8516   20.9565  C     
7    O        35.7437   30.6686   19.4144  O     
8    C        31.2803   32.3618   18.3483  C     
9    C        31.4482   32.1480   16.8075  C     
10   N        30.8811   33.3121   16.1762  N     
11   C        31.4675   34.1224   15.3045  C     
12   O        32.5844   33.9002   14.8511  O     
13   C        30.7623   35.3092   14.8765  C     
14   C        30.8127   30.8978   16.3664  C     
15   N        29.4960   30.7382   16.4454  N     
16   O        31.5232   29.9233   16.1260  O     
17   C        28.7506   29.5153   16.3388  C     
18   C        28.3307   28.9876   17.7385  C     
19   C        27.0759   29.7146   18.3037  C     
20   C        27.2493   30.1757   19.7739  C     
21   O        26.4997   29.4131   20.7334  O     
22   C        25.2662   29.8095   21.1941  C     
23   C        24.8330   31.1582   21.2073  C     
24   C        23.6223   31.5170   21.8172  C     
25   C        22.8517   30.5450   22.4724  C     
26   C        23.2727   29.1975   22.4830  C     
27   C        24.4704   28.8244   21.8319  C     
28   C        24.8555   27.4668   21.7970  C     
29   O        25.5329   26.9998   20.7166  O     
30   O        24.4734   26.6496   22.7969  O     
31   C        25.9497   25.6424   20.5396  C     
32   O        22.4945   28.2602   23.0850  O     
33   O        34.6499   29.0228   21.4721  O     
34   C        34.2941   27.6298   21.4563  C     
35   C        35.3085   26.9137   22.2358  C     
36   O        34.9821   25.7995   22.9286  O     
37   O        36.5430   27.4423   22.3842  O     
38   H        33.9577   32.0292   18.1753  H     
39   H        30.6392   30.7180   20.4339  H     
40   H        32.0899   29.2648   21.7023  H     
41   H        36.0303   29.7325   19.3037  H     
42   H        30.2239   32.2218   18.6234  H     
43   H        31.5253   33.3995   18.5940  H     
44   H        32.5223   32.0815   16.5834  H     
45   H        30.0035   33.5771   16.4964  H     
46   H        29.7945   35.0372   14.4426  H     
47   H        31.3327   35.8577   14.1159  H     
48   H        30.6046   35.9708   15.7329  H     
49   H        28.9805   31.5158   16.7239  H     
50   H        27.8441   29.7272   15.7468  H     
51   H        29.3228   28.7545   15.7996  H     
52   H        28.1353   27.9084   17.6921  H     
53   H        29.1752   29.1234   18.4209  H     
54   H        26.8854   30.6114   17.7040  H     
55   H        26.1939   29.0651   18.2279  H     
56   H        28.2990   30.0598   20.0408  H     
57   H        27.0209   31.2329   19.8810  H     
58   H        25.3996   31.8975   20.7835  H     
59   H        23.3114   32.4864   21.7926  H     
60   H        21.9730   30.8185   22.9199  H     
61   H        26.6623   25.3539   21.3240  H     
62   H        26.4420   25.5427   19.5740  H     
63   H        25.0821   24.9755   20.5652  H     
64   H        21.6399   28.2470   22.6042  H     
65   H        33.3058   27.4723   21.8933  H     
66   H        34.2964   27.2339   20.4374  H     
@<TRIPOS>BOND
     1    1    2 2
     2    1    6 1
     3    1   33 1
     4    2    3 1
     5    2    7 1
     6    3    4 2
     7    4    5 1
     8    4    8 1
     9    5    6 2
    10    8    9 1
    11    9   10 1
    12    9   14 1
    13   10   11 am
    14   11   12 2
    15   11   13 1
    16   14   15 am
    17   14   16 2
    18   15   17 1
    19   17   18 1
    20   18   19 1
    21   19   20 1
    22   20   21 1
    23   21   22 1
    24   22   23 2
    25   22   27 1
    26   23   24 1
    27   24   25 2
    28   25   26 1
    29   26   27 2
    30   26   32 1
    31   27   28 1
    32   28   29 1
    33   28   30 2
    34   29   31 1
    35   33   34 1
    36   34   35 1
    37   35   36 1
    38   35   37 2
    39    3   38 1
    40    5   39 1
    41    6   40 1
    42    7   41 1
    43    8   42 1
    44    8   43 1
    45    9   44 1
    46   10   45 1
    47   13   46 1
    48   13   47 1
    49   13   48 1
    50   15   49 1
    51   17   50 1
    52   17   51 1
    53   18   52 1
    54   18   53 1
    55   19   54 1
    56   19   55 1
    57   20   56 1
    58   20   57 1
    59   23   58 1
    60   24   59 1
    61   25   60 1
    62   31   61 1
    63   31   62 1
    64   31   63 1
    65   32   64 1
    66   34   65 1
    67   34   66 1
@<TRIPOS>PROPERTY_DATA
  Total_Score	| 14.7142
  Crash		| -1.7326
  Polar		| 12.3439
  FragIndex	| 1
  FragRMSD	| 0.563

