@<TRIPOS>MOLECULE
BindingDB_50132461
 77 78 0 0 0
SMALL
NO_CHARGES


@<TRIPOS>ATOM
1    C        34.2278   28.0048   22.3680  C     
2    C        24.4934   28.7896   21.9038  C     
3    C        31.6191   34.1874   15.0865  C     
4    C        35.2881   27.0224   22.6318  C     
5    C        34.6534   29.3069   22.9230  C     
6    C        24.8496   27.4028   21.8870  C     
7    N        31.1039   33.4153   16.0632  N     
8    C        30.9794   31.0788   16.2340  C     
9    C        31.7155   32.2635   16.6675  C     
10   O        34.0038   27.9803   20.9454  O     
11   O        30.7871   35.1407   14.5843  O     
12   C        23.3080   29.2272   22.5556  C     
13   C        25.3024   29.7720   21.2597  C     
14   O        32.8857   34.0248   14.6484  O     
15   C        31.7130   32.4309   18.2192  C     
16   O        36.5801   27.3928   22.5005  O     
17   O        35.6248   30.0303   22.2979  O     
18   O        24.5021   26.5566   22.8864  O     
19   O        31.5479   30.2537   15.5306  O     
20   C        30.9466   36.1627   13.5820  C     
21   N        29.7074   30.9199   16.5769  N     
22   C        33.3956   29.0482   20.3398  C     
23   C        32.2766   31.2634   18.9566  C     
24   O        34.9966   25.7241   22.8558  O     
25   O        33.9793   29.8700   23.9454  O     
26   O        25.5795   26.8824   20.8672  O     
27   O        22.4434   28.3409   23.1269  O     
28   C        32.1378   29.5643   20.7158  C     
29   C        34.0880   29.6427   19.2675  C     
30   C        33.5431   30.7431   18.5904  C     
31   C        31.5911   30.6681   20.0399  C     
32   O        26.4544   29.4681   20.5746  O     
33   C        23.7960   31.5511   21.9925  C     
34   C        22.9726   30.5948   22.6034  C     
35   C        24.9599   31.1406   21.3238  C     
36   C        29.5005   36.6331   13.2577  C     
37   C        31.7773   37.3443   14.1654  C     
38   C        31.6113   35.6204   12.2830  C     
39   C        28.7913   29.8895   16.1944  C     
40   C        26.2728   29.1346   19.1742  C     
41   C        26.0429   25.5431   20.7054  C     
42   C        28.2140   29.1317   17.4359  C     
43   C        27.1937   29.9697   18.2552  C     
44   H        33.3138   27.6759   22.8740  H     
45   H        30.2190   33.6596   16.3760  H     
46   H        32.7586   32.1832   16.3462  H     
47   H        32.3246   33.3020   18.4694  H     
48   H        30.6989   32.6648   18.5708  H     
49   H        29.3276   31.6108   17.1385  H     
50   H        21.6071   28.3884   22.6213  H     
51   H        31.6193   29.1433   21.4895  H     
52   H        35.0019   29.2795   18.9905  H     
53   H        34.0670   31.1513   17.8178  H     
54   H        30.6731   31.0218   20.3288  H     
55   H        23.5465   32.5403   22.0203  H     
56   H        22.1178   30.9032   23.0736  H     
57   H        25.5466   31.8376   20.8658  H     
58   H        28.9248   35.8144   12.8151  H     
59   H        29.5008   37.4722   12.5555  H     
60   H        28.9871   36.9446   14.1677  H     
61   H        31.3100   37.7262   15.0783  H     
62   H        31.8490   38.1617   13.4451  H     
63   H        32.7891   37.0164   14.4087  H     
64   H        32.6770   35.4332   12.4264  H     
65   H        31.5242   36.3469   11.4722  H     
66   H        31.1346   34.6894   11.9753  H     
67   H        27.9873   30.3928   15.6467  H     
68   H        29.2412   29.1681   15.5033  H     
69   H        26.5311   28.0776   19.0375  H     
70   H        25.2373   29.2473   18.8215  H     
71   H        26.7236   25.2926   21.5167  H     
72   H        26.5813   25.4667   19.7574  H     
73   H        25.2012   24.8473   20.7069  H     
74   H        27.7273   28.2157   17.0855  H     
75   H        29.0262   28.8274   18.1071  H     
76   H        26.5503   30.5207   17.5658  H     
77   H        27.7348   30.6970   18.8685  H     
@<TRIPOS>BOND
     1    1    4 1
     2    1    5 1
     3    1   10 1
     4    2    6 1
     5    2   12 1
     6    2   13 2
     7    3    7 am
     8    3   11 1
     9    3   14 2
    10    4   16 2
    11    4   24 1
    12    5   17 2
    13    5   25 1
    14    6   18 2
    15    6   26 1
    16    7    9 1
    17    8    9 1
    18    8   19 2
    19    8   21 am
    20    9   15 1
    21   10   22 1
    22   11   20 1
    23   12   27 1
    24   12   34 2
    25   13   32 1
    26   13   35 1
    27   15   23 1
    28   20   36 1
    29   20   37 1
    30   20   38 1
    31   21   39 1
    32   22   28 1
    33   22   29 2
    34   23   30 2
    35   23   31 1
    36   26   41 1
    37   28   31 2
    38   29   30 1
    39   32   40 1
    40   33   34 1
    41   33   35 2
    42   39   42 1
    43   40   43 1
    44   42   43 1
    45    1   44 1
    46    7   45 1
    47    9   46 1
    48   15   47 1
    49   15   48 1
    50   21   49 1
    51   27   50 1
    52   28   51 1
    53   29   52 1
    54   30   53 1
    55   31   54 1
    56   33   55 1
    57   34   56 1
    58   35   57 1
    59   36   58 1
    60   36   59 1
    61   36   60 1
    62   37   61 1
    63   37   62 1
    64   37   63 1
    65   38   64 1
    66   38   65 1
    67   38   66 1
    68   39   67 1
    69   39   68 1
    70   40   69 1
    71   40   70 1
    72   41   71 1
    73   41   72 1
    74   41   73 1
    75   42   74 1
    76   42   75 1
    77   43   76 1
    78   43   77 1
@<TRIPOS>PROPERTY_DATA
  Total_Score	| 17.7688
  Crash		| -2.2061
  Polar		| 15.2182
  FragIndex	| 1
  FragRMSD	| 0.265

