@<TRIPOS>MOLECULE
BindingDB_50132465
 100 102 0 0 0
SMALL
NO_CHARGES


@<TRIPOS>ATOM
1    C        34.3258   30.1600   19.9808  C     
2    C        24.4340   28.7940   21.9040  C     
3    C        31.0450   33.8691   15.1059  C     
4    C        27.4992   34.2993   14.3182  C     
5    C        33.5065   29.3464   20.8160  C     
6    N        30.8430   33.2687   16.2788  N     
7    C        35.7439   30.0443   19.9248  C     
8    C        24.8446   27.4319   21.8658  C     
9    N        28.7486   33.8951   14.6454  N     
10   C        29.9646   34.6488   14.4944  C     
11   C        31.6306   32.2337   16.8860  C     
12   C        31.0896   30.9259   16.5232  C     
13   O        34.0152   28.4434   21.7156  O     
14   C        35.5203   26.7322   22.1914  C     
15   C        33.6778   31.1550   19.1994  C     
16   C        34.4745   27.1599   21.2348  C     
17   O        26.5004   33.3813   14.4202  O     
18   C        23.2487   29.1773   22.5973  C     
19   C        25.1952   29.8119   21.2571  C     
20   C        31.6345   32.4466   18.4320  C     
21   O        27.2432   35.5612   13.9014  O     
22   O        32.0769   33.6670   14.4738  O     
23   C        32.2800   31.3633   19.2398  C     
24   C        29.8969   36.1130   15.0691  C     
25   O        36.4397   29.2183   20.7457  O     
26   O        24.5188   26.5810   22.8704  O     
27   O        31.8604   30.0524   16.1363  O     
28   O        36.6625   27.4544   22.2781  O     
29   C        32.1104   29.5524   20.8741  C     
30   C        25.0863   33.4617   14.1371  C     
31   N        29.7936   30.6942   16.6507  N     
32   O        36.4753   30.6997   18.9927  O     
33   O        35.3460   25.7118   23.0643  O     
34   C        31.5001   30.5391   20.0830  C     
35   O        25.5781   26.9551   20.8261  O     
36   C        30.4634   37.1369   14.1421  C     
37   O        22.4692   28.2641   23.2320  O     
38   O        26.3787   29.5447   20.6119  O     
39   C        23.6341   31.5246   22.0435  C     
40   C        22.8592   30.5307   22.6598  C     
41   C        24.8053   31.1647   21.3586  C     
42   C        33.3428   26.1094   21.1150  C     
43   C        24.8390   33.7833   12.6318  C     
44   C        24.5233   32.0463   14.4589  C     
45   C        24.4007   34.5142   15.0559  C     
46   C        29.1397   29.4558   16.3929  C     
47   C        26.2869   29.5836   19.1676  C     
48   C        26.0627   25.6210   20.6533  C     
49   C        31.5951   37.9110   14.4927  C     
50   C        29.8294   37.3926   12.9040  C     
51   C        27.7255   29.4087   17.0188  C     
52   C        27.7078   29.6285   18.5587  C     
53   C        30.3113   38.3878   12.0346  C     
54   C        32.0775   38.9145   13.6282  C     
55   C        31.4367   39.1498   12.3964  C     
56   H        30.0133   33.4810   16.7271  H     
57   H        28.8340   32.9671   14.9301  H     
58   H        30.1365   34.6902   13.4152  H     
59   H        32.6634   32.3406   16.5404  H     
60   H        34.2368   31.7794   18.6144  H     
61   H        34.9521   27.2704   20.2572  H     
62   H        32.1736   33.3726   18.6493  H     
63   H        30.6031   32.6091   18.7704  H     
64   H        28.8667   36.4017   15.2691  H     
65   H        30.4061   36.1631   16.0417  H     
66   H        31.5288   28.9997   21.5079  H     
67   H        29.2392   31.4269   16.9641  H     
68   H        30.4867   30.6758   20.1521  H     
69   H        21.5895   28.3064   22.8059  H     
70   H        23.3543   32.5087   22.0992  H     
71   H        22.0064   30.8033   23.1571  H     
72   H        25.3798   31.9013   20.9313  H     
73   H        32.8625   25.9771   22.0853  H     
74   H        33.7508   25.1475   20.7963  H     
75   H        32.5936   26.4286   20.3866  H     
76   H        25.1612   34.7942   12.3868  H     
77   H        23.7773   33.7039   12.3850  H     
78   H        25.3927   33.0899   11.9983  H     
79   H        24.9955   31.2926   13.8250  H     
80   H        23.4420   32.0089   14.2953  H     
81   H        24.7208   31.7846   15.5001  H     
82   H        24.5339   34.2505   16.1042  H     
83   H        23.3289   34.5665   14.8531  H     
84   H        24.8267   35.5036   14.8969  H     
85   H        29.0493   29.3189   15.3103  H     
86   H        29.7369   28.6310   16.7925  H     
87   H        25.7589   28.6937   18.7995  H     
88   H        25.7408   30.4721   18.8337  H     
89   H        26.7437   25.3647   21.4635  H     
90   H        26.6015   25.5584   19.7083  H     
91   H        25.2311   24.9146   20.6372  H     
92   H        32.0793   37.7545   15.3784  H     
93   H        29.0019   36.8610   12.6237  H     
94   H        27.0983   30.1681   16.5340  H     
95   H        27.2825   28.4331   16.8046  H     
96   H        28.1477   30.6056   18.7957  H     
97   H        28.3197   28.8579   19.0339  H     
98   H        29.8427   38.5621   11.1427  H     
99   H        32.8919   39.4731   13.8945  H     
100  H        31.7797   39.8848   11.7748  H     
@<TRIPOS>BOND
     1    1    5 1
     2    1    7 1
     3    1   15 2
     4    2    8 1
     5    2   18 1
     6    2   19 2
     7    3    6 am
     8    3   10 1
     9    3   22 2
    10    4    9 am
    11    4   17 1
    12    4   21 2
    13    5   13 1
    14    5   29 2
    15   11    6 1
    16    7   25 2
    17    7   32 1
    18    8   26 2
    19    8   35 1
    20    9   10 1
    21   10   24 1
    22   11   12 1
    23   11   20 1
    24   12   27 2
    25   12   31 am
    26   13   16 1
    27   14   16 1
    28   14   28 2
    29   14   33 1
    30   15   23 1
    31   16   42 1
    32   17   30 1
    33   18   37 1
    34   18   40 2
    35   19   38 1
    36   19   41 1
    37   20   23 1
    38   23   34 2
    39   24   36 1
    40   29   34 1
    41   30   43 1
    42   30   44 1
    43   30   45 1
    44   31   46 1
    45   35   48 1
    46   36   49 1
    47   36   50 2
    48   38   47 1
    49   39   40 1
    50   39   41 2
    51   46   51 1
    52   47   52 1
    53   49   54 2
    54   50   53 1
    55   51   52 1
    56   53   55 2
    57   54   55 1
    58    6   56 1
    59    9   57 1
    60   10   58 1
    61   11   59 1
    62   15   60 1
    63   16   61 1
    64   20   62 1
    65   20   63 1
    66   24   64 1
    67   24   65 1
    68   29   66 1
    69   31   67 1
    70   34   68 1
    71   37   69 1
    72   39   70 1
    73   40   71 1
    74   41   72 1
    75   42   73 1
    76   42   74 1
    77   42   75 1
    78   43   76 1
    79   43   77 1
    80   43   78 1
    81   44   79 1
    82   44   80 1
    83   44   81 1
    84   45   82 1
    85   45   83 1
    86   45   84 1
    87   46   85 1
    88   46   86 1
    89   47   87 1
    90   47   88 1
    91   48   89 1
    92   48   90 1
    93   48   91 1
    94   49   92 1
    95   50   93 1
    96   51   94 1
    97   51   95 1
    98   52   96 1
    99   52   97 1
   100   53   98 1
   101   54   99 1
   102   55  100 1
@<TRIPOS>PROPERTY_DATA
  Total_Score	| 15.9680
  Crash		| -5.0734
  Polar		| 13.7782
  FragIndex	| 1
  FragRMSD	| 0.421

