@<TRIPOS>MOLECULE
BindingDB_50132459
 80 81 0 0 0
SMALL
NO_CHARGES


@<TRIPOS>ATOM
1    C        34.4110   30.1237   20.1019  C     
2    C        24.4379   28.7661   21.8579  C     
3    C        31.4385   33.9021   15.3137  C     
4    C        33.5958   29.3484   20.9775  C     
5    C        35.8298   29.9884   20.0483  C     
6    C        24.8064   27.3893   21.8262  C     
7    N        30.9956   33.1235   16.3174  N     
8    C        31.0409   30.8214   16.6537  C     
9    C        31.7016   32.0719   16.9815  C     
10   O        34.1289   28.4540   21.8698  O     
11   C        35.7183   26.7584   22.2139  C     
12   C        33.7640   31.0861   19.2723  C     
13   C        34.6424   27.2152   21.3360  C     
14   O        30.5234   34.7522   14.7865  O     
15   C        23.2718   29.2046   22.5590  C     
16   C        25.2283   29.7518   21.1972  C     
17   C        31.7065   32.3722   18.5136  C     
18   O        32.7205   33.8515   14.8642  O     
19   C        32.3617   31.3167   19.3410  C     
20   O        36.5999   30.6238   19.1337  O     
21   O        24.4536   26.5673   22.8410  O     
22   O        31.6809   29.9282   16.1120  O     
23   O        35.7820   27.1235   23.5191  O     
24   C        32.2052   29.5549   21.0305  C     
25   C        30.6079   35.7713   13.7739  C     
26   N        29.7580   30.6592   16.9618  N     
27   O        36.5221   29.2634   20.9826  O     
28   O        36.6935   25.9471   21.7441  O     
29   C        31.6000   30.5227   20.2241  C     
30   O        25.5407   26.8895   20.8034  O     
31   O        22.4687   28.3202   23.2163  O     
32   O        26.4319   29.4304   20.6424  O     
33   C        23.7196   31.5215   21.9527  C     
34   C        22.9184   30.5693   22.6050  C     
35   C        24.8769   31.1167   21.2606  C     
36   C        33.5430   26.1315   21.2284  C     
37   C        31.6165   36.8640   14.2299  C     
38   C        31.0064   35.1828   12.3890  C     
39   C        29.1717   36.3644   13.6985  C     
40   C        28.9350   29.5042   16.7409  C     
41   C        26.4513   29.1235   19.2360  C     
42   C        26.0087   25.5532   20.6811  C     
43   C        27.4295   29.8630   16.9314  C     
44   C        27.0647   30.2652   18.3884  C     
45   H        30.1023   33.3201   16.6402  H     
46   H        32.7483   32.0217   16.6591  H     
47   H        34.3232   31.6505   18.6294  H     
48   H        35.0892   27.3576   20.3482  H     
49   H        32.2431   33.3175   18.6806  H     
50   H        30.6750   32.5383   18.8514  H     
51   H        31.6345   29.0042   21.6836  H     
52   H        29.3115   31.3997   17.3875  H     
53   H        30.5858   30.6561   20.2856  H     
54   H        21.5699   28.4093   22.8268  H     
55   H        23.4783   32.5137   22.0189  H     
56   H        22.0882   30.8674   23.1224  H     
57   H        25.4674   31.8373   20.8260  H     
58   H        33.0756   25.9688   22.2031  H     
59   H        33.9530   25.1816   20.8741  H     
60   H        32.7717   26.4543   20.5189  H     
61   H        31.3716   37.2113   15.2335  H     
62   H        31.5958   37.7199   13.5516  H     
63   H        32.6299   36.4663   14.2499  H     
64   H        32.0232   34.7914   12.4137  H     
65   H        30.9586   35.9541   11.6180  H     
66   H        30.3323   34.3700   12.1154  H     
67   H        28.4610   35.6057   13.3586  H     
68   H        29.1307   37.2082   13.0040  H     
69   H        28.8480   36.7076   14.6849  H     
70   H        29.1009   29.0710   15.7347  H     
71   H        29.2565   28.7322   17.4742  H     
72   H        27.0803   28.2406   19.1394  H     
73   H        25.4778   28.8577   18.8161  H     
74   H        26.6679   25.3085   21.5148  H     
75   H        26.5713   25.4676   19.7557  H     
76   H        25.1724   24.8477   20.6579  H     
77   H        27.1952   30.6856   16.2669  H     
78   H        26.8250   29.0186   16.6368  H     
79   H        26.3291   31.0712   18.3282  H     
80   H        27.9506   30.6740   18.8963  H     
@<TRIPOS>BOND
     1    1    4 1
     2    1    5 1
     3    1   12 2
     4    2    6 1
     5    2   15 1
     6    2   16 2
     7    3    7 am
     8    3   14 1
     9    3   18 2
    10    4   10 1
    11    4   24 2
    12    5   20 2
    13    5   27 1
    14    6   21 2
    15    6   30 1
    16    9    7 1
    17    8    9 1
    18    8   22 2
    19    8   26 am
    20    9   17 1
    21   10   13 1
    22   11   13 1
    23   11   23 2
    24   11   28 1
    25   12   19 1
    26   13   36 1
    27   14   25 1
    28   15   31 1
    29   15   34 2
    30   16   32 1
    31   16   35 1
    32   17   19 1
    33   19   29 2
    34   24   29 1
    35   25   37 1
    36   25   38 1
    37   25   39 1
    38   26   40 1
    39   30   42 1
    40   32   41 1
    41   33   34 1
    42   33   35 2
    43   40   43 1
    44   41   44 1
    45   43   44 1
    46    7   45 1
    47    9   46 1
    48   12   47 1
    49   13   48 1
    50   17   49 1
    51   17   50 1
    52   24   51 1
    53   26   52 1
    54   29   53 1
    55   31   54 1
    56   33   55 1
    57   34   56 1
    58   35   57 1
    59   36   58 1
    60   36   59 1
    61   36   60 1
    62   37   61 1
    63   37   62 1
    64   37   63 1
    65   38   64 1
    66   38   65 1
    67   38   66 1
    68   39   67 1
    69   39   68 1
    70   39   69 1
    71   40   70 1
    72   40   71 1
    73   41   72 1
    74   41   73 1
    75   42   74 1
    76   42   75 1
    77   42   76 1
    78   43   77 1
    79   43   78 1
    80   44   79 1
    81   44   80 1
@<TRIPOS>PROPERTY_DATA
  Total_Score	| 16.1802
  Crash		| -2.9853
  Polar		| 12.3861
  FragIndex	| 1
  FragRMSD	| 0.682

