@<TRIPOS>MOLECULE
BindingDB_50132464
 79 80 0 0 0
SMALL
NO_CHARGES


@<TRIPOS>ATOM
1    C        34.6903   27.8431   22.2325  C     
2    C        24.4455   28.7735   21.9159  C     
3    C        31.8223   34.1242   15.1804  C     
4    C        35.7484   27.3018   21.3917  C     
5    C        34.9649   29.0974   22.9886  C     
6    C        24.8599   27.4159   21.8701  C     
7    N        31.2811   33.3711   16.1565  N     
8    C        31.0959   31.0056   16.2922  C     
9    C        31.8420   32.1775   16.7236  C     
10   O        33.4424   27.9131   21.4939  O     
11   O        32.9833   33.7574   14.5719  O     
12   C        23.2702   29.1310   22.6315  C     
13   C        25.1841   29.8071   21.2704  C     
14   O        31.1432   35.2359   14.8091  O     
15   C        31.8797   32.3536   18.2744  C     
16   O        36.9363   27.4767   21.6288  O     
17   O        36.1391   29.7715   22.8969  O     
18   O        24.5197   26.5535   22.8639  O     
19   O        31.7078   30.1000   15.7295  O     
20   C        33.7363   34.3689   13.5060  C     
21   N        29.8093   30.8795   16.5713  N     
22   N        35.4535   26.4706   20.4174  N     
23   C        33.1472   28.9663   20.6627  C     
24   C        32.3020   31.1631   19.0667  C     
25   O        34.0304   29.5802   23.8409  O     
26   O        25.6090   26.9537   20.8313  O     
27   O        22.4820   28.2002   23.2260  O     
28   C        31.8982   29.5783   20.8859  C     
29   C        33.9641   29.4498   19.6141  C     
30   C        33.5545   30.5379   18.8308  C     
31   C        31.4837   30.6681   20.1085  C     
32   O        26.3432   29.5404   20.5659  O     
33   C        23.6287   31.4867   22.1335  C     
34   C        22.8667   30.4739   22.7337  C     
35   C        24.7894   31.1556   21.4164  C     
36   C        33.0415   34.1468   12.1306  C     
37   C        33.9374   35.8818   13.7930  C     
38   C        35.1089   33.6395   13.5133  C     
39   C        29.0033   29.7361   16.2732  C     
40   C        26.2635   29.8661   19.1525  C     
41   C        26.0839   25.6131   20.6685  C     
42   C        27.6154   29.8061   16.9502  C     
43   C        27.6688   29.7782   18.5061  C     
44   H        34.5294   27.0780   22.9956  H     
45   H        30.4278   33.6743   16.5116  H     
46   H        32.8851   32.1032   16.3908  H     
47   H        32.5906   33.1545   18.4974  H     
48   H        30.8945   32.7118   18.6148  H     
49   H        29.3772   31.6163   17.0269  H     
50   H        36.1550   26.1395   19.8399  H     
51   H        34.5249   26.2429   20.2489  H     
52   H        21.6095   28.2611   22.7707  H     
53   H        31.3014   29.2441   21.6420  H     
54   H        34.8751   29.0264   19.4365  H     
55   H        34.1733   30.8956   18.1014  H     
56   H        30.5803   31.1097   20.3118  H     
57   H        23.3427   32.4582   22.2173  H     
58   H        22.0262   30.7243   23.2589  H     
59   H        25.3488   31.9007   20.9977  H     
60   H        32.7908   33.0921   11.9949  H     
61   H        33.6898   34.4615   11.3148  H     
62   H        32.1145   34.7201   12.0646  H     
63   H        32.9771   36.4030   13.8288  H     
64   H        34.5490   36.3480   13.0165  H     
65   H        34.4340   36.0263   14.7576  H     
66   H        35.6273   33.7961   14.4625  H     
67   H        35.7504   34.0055   12.7092  H     
68   H        34.9681   32.5620   13.3817  H     
69   H        28.8629   29.6777   15.1938  H     
70   H        29.5173   28.8297   16.5974  H     
71   H        25.5779   29.1709   18.6474  H     
72   H        25.8874   30.8912   19.0139  H     
73   H        26.7486   25.3437   21.4960  H     
74   H        26.6428   25.5501   19.7304  H     
75   H        25.2413   24.9109   20.6328  H     
76   H        27.1048   30.7128   16.6156  H     
77   H        27.0203   28.9513   16.6109  H     
78   H        28.2630   30.6192   18.8672  H     
79   H        28.1440   28.8540   18.8295  H     
@<TRIPOS>BOND
     1    1    4 1
     2    1    5 1
     3    1   10 1
     4    2    6 1
     5    2   12 1
     6    2   13 2
     7    3    7 am
     8    3   11 1
     9    3   14 2
    10    4   16 2
    11    4   22 am
    12    5   17 2
    13    5   25 1
    14    6   18 2
    15    6   26 1
    16    7    9 1
    17    8    9 1
    18    8   19 2
    19    8   21 am
    20    9   15 1
    21   10   23 1
    22   11   20 1
    23   12   27 1
    24   12   34 2
    25   13   32 1
    26   13   35 1
    27   15   24 1
    28   20   36 1
    29   20   37 1
    30   20   38 1
    31   21   39 1
    32   23   28 1
    33   23   29 2
    34   24   30 2
    35   24   31 1
    36   26   41 1
    37   28   31 2
    38   29   30 1
    39   32   40 1
    40   33   34 1
    41   33   35 2
    42   39   42 1
    43   40   43 1
    44   42   43 1
    45    1   44 1
    46    7   45 1
    47    9   46 1
    48   15   47 1
    49   15   48 1
    50   21   49 1
    51   22   50 1
    52   22   51 1
    53   27   52 1
    54   28   53 1
    55   29   54 1
    56   30   55 1
    57   31   56 1
    58   33   57 1
    59   34   58 1
    60   35   59 1
    61   36   60 1
    62   36   61 1
    63   36   62 1
    64   37   63 1
    65   37   64 1
    66   37   65 1
    67   38   66 1
    68   38   67 1
    69   38   68 1
    70   39   69 1
    71   39   70 1
    72   40   71 1
    73   40   72 1
    74   41   73 1
    75   41   74 1
    76   41   75 1
    77   42   76 1
    78   42   77 1
    79   43   78 1
    80   43   79 1
@<TRIPOS>PROPERTY_DATA
  Total_Score	| 16.5041
  Crash		| -2.8614
  Polar		| 14.4844
  FragIndex	| 1
  FragRMSD	| 0.900

