@<TRIPOS>MOLECULE
BindingDB_13987
 66 67 0 0 0
SMALL
NO_CHARGES


@<TRIPOS>ATOM
1    C        32.2356   31.3879   19.1266  C     
2    C        31.7004   30.5475   20.1292  C     
3    C        32.5410   29.7249   20.8982  C     
4    C        33.9322   29.6858   20.6490  C     
5    C        34.4721   30.5184   19.6422  C     
6    C        33.6313   31.3634   18.9019  C     
7    C        31.3854   32.3326   18.3595  C     
8    C        31.5375   32.2264   16.8032  C     
9    C        30.9228   31.0261   16.2524  C     
10   O        31.6068   30.2472   15.5935  O     
11   N        29.6177   30.8157   16.4179  N     
12   C        28.8644   29.6942   15.9518  C     
13   C        27.6148   29.3536   16.8389  C     
14   C        27.6998   29.6264   18.3726  C     
15   C        26.3064   29.7549   19.0528  C     
16   O        26.3898   29.4514   20.4737  O     
17   C        25.2400   29.7489   21.1659  C     
18   C        23.7620   31.4884   22.0389  C     
19   C        22.9753   30.5089   22.6616  C     
20   C        23.3270   29.1486   22.5606  C     
21   C        24.4798   28.7438   21.8349  C     
22   C        24.8960   31.1067   21.3074  C     
23   C        24.8499   27.3695   21.7884  C     
24   O        24.5526   26.5276   22.8162  O     
25   O        25.5096   26.8617   20.7068  O     
26   C        25.9294   25.5056   20.5229  C     
27   O        22.5046   28.2585   23.1672  O     
28   N        30.9441   33.3982   16.2115  N     
29   C        31.4620   34.1965   15.2855  C     
30   O        32.5544   33.9574   14.7772  O     
31   C        35.7549   26.9723   22.2327  C     
32   O        35.8381   27.1674   23.5639  O     
33   O        36.6660   26.1676   21.6505  O     
34   O        34.7966   28.9862   21.4480  O     
35   C        34.6462   27.5567   21.4546  C     
36   C        30.7206   35.3735   14.8830  C     
37   O        35.8005   30.5698   19.3854  O     
38   H        30.6981   30.5443   20.3170  H     
39   H        32.1490   29.1576   21.6529  H     
40   H        34.0371   31.9759   18.1877  H     
41   H        30.3283   32.2116   18.6234  H     
42   H        31.6431   33.3455   18.6799  H     
43   H        32.6131   32.2158   16.5756  H     
44   H        29.1163   31.4714   16.9313  H     
45   H        28.4937   29.9597   14.9440  H     
46   H        29.4952   28.7912   15.8353  H     
47   H        26.7375   29.8830   16.4142  H     
48   H        27.4181   28.2675   16.7018  H     
49   H        28.2573   28.8011   18.8251  H     
50   H        28.2712   30.5422   18.5480  H     
51   H        25.9704   30.7889   18.8874  H     
52   H        25.5837   29.0814   18.5599  H     
53   H        23.5017   32.4727   22.1140  H     
54   H        22.1453   30.8011   23.1952  H     
55   H        25.4641   31.8268   20.8621  H     
56   H        26.6476   25.2210   21.2913  H     
57   H        26.4032   25.4083   19.5441  H     
58   H        25.0689   24.8307   20.5645  H     
59   H        21.5835   28.5401   22.9645  H     
60   H        30.0734   33.6372   16.5609  H     
61   H        34.6700   27.1485   20.4334  H     
62   H        33.7017   27.2846   21.9272  H     
63   H        29.7456   35.0660   14.5099  H     
64   H        31.2445   35.9058   14.0879  H     
65   H        30.5951   36.0411   15.7361  H     
66   H        36.1730   29.7289   19.7487  H     
@<TRIPOS>BOND
     1    1    2 1
     2    1    6 2
     3    1    7 1
     4    2    3 2
     5    3    4 1
     6    4    5 2
     7    4   34 1
     8    5    6 1
     9    5   37 1
    10    7    8 1
    11    8    9 1
    12    8   28 1
    13    9   10 2
    14    9   11 am
    15   11   12 1
    16   12   13 1
    17   13   14 1
    18   14   15 1
    19   15   16 1
    20   16   17 1
    21   17   21 1
    22   17   22 2
    23   18   19 2
    24   18   22 1
    25   19   20 1
    26   20   21 2
    27   20   27 1
    28   21   23 1
    29   23   24 2
    30   23   25 1
    31   25   26 1
    32   28   29 am
    33   29   30 2
    34   29   36 1
    35   31   32 2
    36   31   33 1
    37   31   35 1
    38   34   35 1
    39    2   38 1
    40    3   39 1
    41    6   40 1
    42    7   41 1
    43    7   42 1
    44    8   43 1
    45   11   44 1
    46   12   45 1
    47   12   46 1
    48   13   47 1
    49   13   48 1
    50   14   49 1
    51   14   50 1
    52   15   51 1
    53   15   52 1
    54   18   53 1
    55   19   54 1
    56   22   55 1
    57   26   56 1
    58   26   57 1
    59   26   58 1
    60   27   59 1
    61   28   60 1
    62   35   61 1
    63   35   62 1
    64   36   63 1
    65   36   64 1
    66   36   65 1
    67   37   66 1
@<TRIPOS>PROPERTY_DATA
  Total_Score	| 14.3602
  Crash		| -1.4800
  Polar		| 11.9248
  FragIndex	| 1
  FragRMSD	| 0.488

