@<TRIPOS>MOLECULE
BindingDB_13988
 67 68 0 0 0
SMALL
NO_CHARGES


@<TRIPOS>ATOM
1    C        32.1930   31.3465   19.2046  C     
2    C        31.4169   30.5159   20.0314  C     
3    C        32.0310   29.4972   20.7684  C     
4    C        33.4166   29.2837   20.7014  C     
5    C        34.2188   30.0908   19.8476  C     
6    C        33.5896   31.1298   19.1268  C     
7    C        31.5673   32.4487   18.4140  C     
8    C        31.6771   32.2898   16.8601  C     
9    C        31.0321   31.0889   16.3520  C     
10   O        31.6979   30.2673   15.7171  O     
11   N        29.7465   30.8514   16.6137  N     
12   C        29.0252   29.6755   16.2334  C     
13   C        27.6189   29.6185   16.8881  C     
14   C        27.6693   29.6463   18.4440  C     
15   C        26.2831   29.3831   19.0968  C     
16   O        26.4364   29.4921   20.5345  O     
17   C        25.2791   29.7743   21.2066  C     
18   C        23.7736   31.5184   22.0285  C     
19   C        22.9790   30.5438   22.6369  C     
20   C        23.3434   29.1896   22.5794  C     
21   C        24.5144   28.7814   21.8749  C     
22   C        24.9252   31.1307   21.3264  C     
23   C        24.8862   27.4091   21.8421  C     
24   O        24.5222   26.5505   22.8252  O     
25   O        25.6258   26.8995   20.8156  O     
26   C        26.0633   25.5454   20.6640  C     
27   O        22.5149   28.2907   23.1762  O     
28   N        31.0683   33.4293   16.2234  N     
29   C        31.5869   34.1932   15.2712  C     
30   O        32.6754   33.9471   14.7662  O     
31   C        35.7760   28.7837   22.8118  C     
32   O        36.6298   27.7275   22.7409  O     
33   O        36.2866   30.0282   22.7598  O     
34   O        33.9139   28.2410   21.4352  O     
35   C        34.3246   28.5464   22.7800  C     
36   C        30.8507   35.3588   14.8327  C     
37   C        35.6067   29.8627   19.6761  C     
38   O        36.2171   28.7599   20.1787  O     
39   O        36.3969   30.7449   19.0240  O     
40   H        30.4110   30.6641   20.1014  H     
41   H        31.4499   28.9050   21.3567  H     
42   H        34.1520   31.7441   18.5283  H     
43   H        30.5172   32.5855   18.6767  H     
44   H        32.0795   33.3797   18.6787  H     
45   H        32.7428   32.2497   16.6059  H     
46   H        29.2590   31.5352   17.0977  H     
47   H        28.9107   29.6646   15.1369  H     
48   H        29.5888   28.7825   16.5245  H     
49   H        27.0206   30.4633   16.5245  H     
50   H        27.1421   28.6898   16.5562  H     
51   H        28.3780   28.8864   18.8032  H     
52   H        28.0272   30.6327   18.7684  H     
53   H        25.5513   30.1028   18.6786  H     
54   H        25.9491   28.3610   18.8499  H     
55   H        23.5085   32.5001   22.0725  H     
56   H        22.1448   30.8233   23.1441  H     
57   H        25.4995   31.8482   20.8835  H     
58   H        26.7082   25.2722   21.4940  H     
59   H        26.6237   25.4521   19.7330  H     
60   H        25.2050   24.8741   20.6323  H     
61   H        21.6508   28.3718   22.7071  H     
62   H        30.1903   33.6924   16.5549  H     
63   H        34.1112   27.6769   23.3978  H     
64   H        33.7895   29.4017   23.2016  H     
65   H        29.8607   35.0654   14.4735  H     
66   H        31.3712   35.8782   14.0197  H     
67   H        30.7338   36.0540   15.6669  H     
@<TRIPOS>BOND
     1    1    2 1
     2    1    6 2
     3    1    7 1
     4    2    3 2
     5    3    4 1
     6    4    5 2
     7    4   34 1
     8    5    6 1
     9    5   37 1
    10    7    8 1
    11    8    9 1
    12    8   28 1
    13    9   10 2
    14    9   11 am
    15   11   12 1
    16   12   13 1
    17   13   14 1
    18   14   15 1
    19   15   16 1
    20   16   17 1
    21   17   21 1
    22   17   22 2
    23   18   19 2
    24   18   22 1
    25   19   20 1
    26   20   21 2
    27   20   27 1
    28   21   23 1
    29   23   24 2
    30   23   25 1
    31   25   26 1
    32   28   29 am
    33   29   30 2
    34   29   36 1
    35   31   32 2
    36   31   33 1
    37   31   35 1
    38   34   35 1
    39   37   38 2
    40   37   39 1
    41    2   40 1
    42    3   41 1
    43    6   42 1
    44    7   43 1
    45    7   44 1
    46    8   45 1
    47   11   46 1
    48   12   47 1
    49   12   48 1
    50   13   49 1
    51   13   50 1
    52   14   51 1
    53   14   52 1
    54   15   53 1
    55   15   54 1
    56   18   55 1
    57   19   56 1
    58   22   57 1
    59   26   58 1
    60   26   59 1
    61   26   60 1
    62   27   61 1
    63   28   62 1
    64   35   63 1
    65   35   64 1
    66   36   65 1
    67   36   66 1
    68   36   67 1
@<TRIPOS>PROPERTY_DATA
  Total_Score	| 15.3950
  Crash		| -2.2181
  Polar		| 13.3934
  FragIndex	| 1
  FragRMSD	| 0.049

