@<TRIPOS>MOLECULE
BindingDB_36435
 43 45 0 0 0
SMALL
NO_CHARGES


@<TRIPOS>ATOM
1    S        56.3636   69.3868   22.2015  S     
2    O        59.9205   72.7306   23.6392  O     
3    N        58.5877   73.4032   21.0242  N     
4    N        55.6073   73.8792   17.4232  N     
5    N        55.2620   74.7640   20.7951  N     
6    N        53.0643   74.7386   19.9214  N     
7    N        52.6352   74.2112   17.6711  N     
8    C        55.7518   74.4213   19.5741  C     
9    C        54.8846   74.2197   18.4974  C     
10   C        57.0465   74.1698   19.1148  C     
11   C        53.5024   74.3843   18.6826  C     
12   C        58.3440   74.2736   19.8312  C     
13   C        56.9086   73.8576   17.7563  C     
14   C        58.1019   71.5483   22.5279  C     
15   C        58.5330   72.8151   23.3120  C     
16   C        58.0159   72.0252   21.0508  C     
17   C        58.2946   73.9856   22.3465  C     
18   C        53.9199   74.9246   20.9680  C     
19   C        56.7896   70.9105   23.0832  C     
20   C        55.3145   68.6112   23.4567  C     
21   C        55.5250   67.0833   23.4464  C     
22   H        60.0817   73.4614   24.2693  H     
23   H        59.6041   73.2775   21.0394  H     
24   H        55.2392   73.6932   16.5496  H     
25   H        52.9600   73.9911   16.7849  H     
26   H        51.6840   74.3099   17.8234  H     
27   H        58.4872   75.3249   20.1043  H     
28   H        59.1417   74.0367   19.1201  H     
29   H        57.6664   73.6154   17.1139  H     
30   H        58.8896   70.7840   22.6138  H     
31   H        57.9660   72.9638   24.2330  H     
32   H        56.9805   72.0189   20.6929  H     
33   H        58.5950   71.3618   20.4035  H     
34   H        58.9732   74.8203   22.5551  H     
35   H        57.2617   74.3411   22.4233  H     
36   H        53.5591   75.2016   21.8799  H     
37   H        55.9457   71.6068   22.9877  H     
38   H        56.9416   70.6592   24.1407  H     
39   H        55.5887   68.9738   24.4521  H     
40   H        54.2655   68.8615   23.2513  H     
41   H        55.2889   66.6639   22.4655  H     
42   H        54.8802   66.6148   24.1899  H     
43   H        56.5633   66.8483   23.6980  H     
@<TRIPOS>BOND
     1    1   19 1
     2    1   20 1
     3   15    2 1
     4    3   12 1
     5    3   16 1
     6    3   17 1
     7    4    9 1
     8    4   13 1
     9    5    8 1
    10    5   18 2
    11    6   11 2
    12    6   18 1
    13    7   11 1
    14    8    9 2
    15    8   10 1
    16    9   11 1
    17   10   12 1
    18   10   13 2
    19   14   15 1
    20   14   16 1
    21   14   19 1
    22   15   17 1
    23   20   21 1
    24    2   22 1
    25    3   23 1
    26    4   24 1
    27    7   25 1
    28    7   26 1
    29   12   27 1
    30   12   28 1
    31   13   29 1
    32   14   30 1
    33   15   31 1
    34   16   32 1
    35   16   33 1
    36   17   34 1
    37   17   35 1
    38   18   36 1
    39   19   37 1
    40   19   38 1
    41   20   39 1
    42   20   40 1
    43   21   41 1
    44   21   42 1
    45   21   43 1
@<TRIPOS>PROPERTY_DATA
  Total_Score	| 14.4655
  Crash		| -1.0497
  Polar		| 7.3241
  FragIndex	| 1
  FragRMSD	| 0.733

