@<TRIPOS>MOLECULE
BindingDB_22113
 40 42 0 0 0
SMALL
NO_CHARGES


@<TRIPOS>ATOM
1    C        53.4880   74.3174   18.6914  C     
2    C        53.7212   75.0601   20.9446  C     
3    N        52.9494   74.7316   19.8707  N     
4    N        55.0721   74.9740   20.8628  N     
5    C        55.6504   74.5699   19.7038  C     
6    C        54.8866   74.2274   18.5894  C     
7    C        56.9829   73.8845   18.0592  C     
8    C        56.9852   74.3578   19.3733  C     
9    N        55.7149   73.8313   17.6095  N     
10   C        58.1365   74.5040   20.2909  C     
11   C        58.3072   71.5031   22.4398  C     
12   C        59.0697   72.6982   23.0464  C     
13   C        59.7450   73.3406   21.8220  C     
14   C        57.8386   72.1078   21.0973  C     
15   N        58.7710   73.2084   20.7025  N     
16   O        60.0011   72.3144   24.0516  O     
17   C        57.2379   70.8840   23.4046  C     
18   S        55.7220   70.1252   22.7510  S     
19   C        56.3326   69.1138   21.3833  C     
20   N        52.6797   73.9935   17.6688  N     
21   H        53.2822   75.3677   21.8102  H     
22   H        57.8105   73.6113   17.5253  H     
23   H        55.4384   73.5143   16.7382  H     
24   H        58.8858   75.1280   19.7940  H     
25   H        57.8020   75.0415   21.1848  H     
26   H        59.0336   70.7171   22.2035  H     
27   H        58.3657   73.4177   23.4801  H     
28   H        60.0468   74.3697   22.0416  H     
29   H        60.6467   72.7802   21.5595  H     
30   H        57.8598   71.3373   20.3168  H     
31   H        56.8104   72.4636   21.2237  H     
32   H        59.2976   72.8741   19.8874  H     
33   H        60.1969   73.1515   24.5228  H     
34   H        57.7323   70.1272   24.0180  H     
35   H        56.8840   71.6517   24.0944  H     
36   H        56.3235   69.7193   20.4700  H     
37   H        55.6641   68.2671   21.2390  H     
38   H        57.3414   68.7447   21.5833  H     
39   H        53.0572   73.7157   16.8206  H     
40   H        51.7157   74.0467   17.7794  H     
@<TRIPOS>BOND
     1    1    3 2
     2    1    6 1
     3    1   20 1
     4    2    3 1
     5    2    4 2
     6    4    5 1
     7    5    6 2
     8    5    8 1
     9    6    9 1
    10    7    8 2
    11    7    9 1
    12    8   10 1
    13   10   15 1
    14   11   12 1
    15   11   14 1
    16   11   17 1
    17   12   13 1
    18   12   16 1
    19   13   15 1
    20   14   15 1
    21   17   18 1
    22   18   19 1
    23    2   21 1
    24    7   22 1
    25    9   23 1
    26   10   24 1
    27   10   25 1
    28   11   26 1
    29   12   27 1
    30   13   28 1
    31   13   29 1
    32   14   30 1
    33   14   31 1
    34   15   32 1
    35   16   33 1
    36   17   34 1
    37   17   35 1
    38   19   36 1
    39   19   37 1
    40   19   38 1
    41   20   39 1
    42   20   40 1
@<TRIPOS>PROPERTY_DATA
  Total_Score	| 14.5993
  Crash		| -0.8525
  Polar		| 8.4056
  FragIndex	| 1
  FragRMSD	| 0.729

