@<TRIPOS>MOLECULE
BindingDB_50170093
 38 40 0 0 0
SMALL
NO_CHARGES


@<TRIPOS>ATOM
1    C        57.0230   73.8469   19.6235  C     
2    N        58.5834   72.1799   20.4343  N     
3    C        58.1853   73.6018   20.5227  C     
4    C        54.9732   74.1394   18.7319  C     
5    C        55.7221   74.2755   19.9094  C     
6    N        55.7856   73.7189   17.7541  N     
7    C        58.0004   73.8610   22.0406  C     
8    C        57.0235   73.5561   18.2516  C     
9    C        59.0136   71.6803   21.7561  C     
10   C        59.0123   72.9139   22.6906  C     
11   C        53.5857   74.3834   18.7726  C     
12   N        53.0468   74.8020   19.9443  N     
13   N        55.1271   74.6976   21.0571  N     
14   C        53.7951   74.9820   21.0687  C     
15   O        58.2229   75.2199   22.4002  O     
16   N        52.7957   74.2078   17.6972  N     
17   O        58.7021   72.5953   24.0436  O     
18   C        58.1625   70.4545   22.2187  C     
19   S        56.3551   70.6793   22.1419  S     
20   C        55.8965   70.4697   23.8780  C     
21   H        57.7903   71.6125   20.1237  H     
22   H        59.3395   72.0775   19.7546  H     
23   H        59.0307   74.2037   20.1581  H     
24   H        55.5134   73.5324   16.8416  H     
25   H        57.0030   73.5783   22.3808  H     
26   H        57.8188   73.1843   17.7215  H     
27   H        60.0468   71.3384   21.6591  H     
28   H        60.0032   73.3758   22.6724  H     
29   H        53.3544   75.3138   21.9242  H     
30   H        59.1630   75.4019   22.1725  H     
31   H        51.8348   74.3000   17.7874  H     
32   H        53.1852   73.9213   16.8619  H     
33   H        58.8263   73.4323   24.5436  H     
34   H        58.3700   69.6249   21.5433  H     
35   H        58.4790   70.1316   23.2154  H     
36   H        56.2447   69.5079   24.2578  H     
37   H        54.8027   70.4999   23.9626  H     
38   H        56.3200   71.2724   24.4833  H     
@<TRIPOS>BOND
     1    1    3 1
     2    1    5 1
     3    1    8 2
     4    2    3 1
     5    2    9 1
     6    3    7 1
     7    4    5 2
     8    4    6 1
     9    4   11 1
    10    5   13 1
    11    6    8 1
    12    7   10 1
    13    7   15 1
    14    9   10 1
    15    9   18 1
    16   10   17 1
    17   11   12 2
    18   11   16 1
    19   12   14 1
    20   13   14 2
    21   18   19 1
    22   19   20 1
    23    2   21 1
    24    2   22 1
    25    3   23 1
    26    6   24 1
    27    7   25 1
    28    8   26 1
    29    9   27 1
    30   10   28 1
    31   14   29 1
    32   15   30 1
    33   16   31 1
    34   16   32 1
    35   17   33 1
    36   18   34 1
    37   18   35 1
    38   20   36 1
    39   20   37 1
    40   20   38 1
@<TRIPOS>PROPERTY_DATA
  Total_Score	| 13.2341
  Crash		| -1.2435
  Polar		| 9.0101
  FragIndex	| 1
  FragRMSD	| 0.891

