@<TRIPOS>MOLECULE
BindingDB_50183258
 49 51 0 0 0
SMALL
NO_CHARGES


@<TRIPOS>ATOM
1    C        57.1718   73.8932   18.3141  C     
2    C        57.0946   74.2899   19.6568  C     
3    N        55.9405   73.7741   17.7907  N     
4    C        55.0383   74.0904   18.7300  C     
5    C        55.7211   74.4264   19.9007  C     
6    N        55.0299   74.8380   20.9925  N     
7    C        53.6741   74.9249   20.9666  C     
8    N        52.9957   74.5787   19.8422  N     
9    C        53.6320   74.1536   18.7164  C     
10   N        52.9026   73.8303   17.6342  N     
11   C        57.9798   73.2183   22.5252  C     
12   C        58.0100   74.6871   22.0634  C     
13   C        58.2731   74.5670   20.5392  C     
14   N        59.2780   73.4828   20.5037  N     
15   C        59.0549   72.5504   21.6339  C     
16   C        58.6937   71.1380   21.1082  C     
17   S        58.2072   69.9993   22.4278  S     
18   C        56.4449   69.7998   22.0572  C     
19   C        55.7740   68.7474   22.9736  C     
20   C        56.1076   67.2602   22.6333  C     
21   N        57.5584   66.9991   22.6090  N     
22   C        55.4783   66.2950   23.5618  C     
23   O        54.7384   66.6852   24.6296  O     
24   O        55.5479   64.9705   23.2829  O     
25   O        58.1985   73.0041   23.9243  O     
26   O        59.0274   75.4441   22.7165  O     
27   H        58.0345   73.7287   17.7959  H     
28   H        55.7325   73.5259   16.8744  H     
29   H        53.1700   75.2539   21.7902  H     
30   H        51.9310   73.8707   17.6731  H     
31   H        53.3396   73.5671   16.8091  H     
32   H        56.9903   72.8159   22.2873  H     
33   H        57.0749   75.1972   22.2901  H     
34   H        58.7417   75.4845   20.1693  H     
35   H        59.2690   72.9942   19.6071  H     
36   H        60.1991   73.9066   20.6307  H     
37   H        59.9959   72.4863   22.1947  H     
38   H        57.9066   71.2184   20.3569  H     
39   H        59.5752   70.7138   20.6242  H     
40   H        55.9503   70.7641   22.1999  H     
41   H        56.3080   69.5069   21.0119  H     
42   H        56.0332   68.9614   24.0170  H     
43   H        54.6941   68.8793   22.8820  H     
44   H        55.7350   67.0397   21.6302  H     
45   H        57.9988   67.5513   21.8711  H     
46   H        57.7256   66.0082   22.4181  H     
47   H        57.9758   67.2432   23.5086  H     
48   H        58.8566   73.6674   24.2260  H     
49   H        59.8470   74.9084   22.6724  H     
@<TRIPOS>BOND
     1    1    2 2
     2    1    3 1
     3    2    5 1
     4   13    2 1
     5    3    4 1
     6    4    5 2
     7    4    9 1
     8    5    6 1
     9    6    7 2
    10    7    8 1
    11    8    9 2
    12    9   10 1
    13   11   12 1
    14   11   15 1
    15   11   25 1
    16   12   13 1
    17   12   26 1
    18   13   14 1
    19   14   15 1
    20   15   16 1
    21   16   17 1
    22   17   18 1
    23   18   19 1
    24   19   20 1
    25   20   21 1
    26   20   22 1
    27   22   23 1
    28   22   24 2
    29    1   27 1
    30    3   28 1
    31    7   29 1
    32   10   30 1
    33   10   31 1
    34   11   32 1
    35   12   33 1
    36   13   34 1
    37   14   35 1
    38   14   36 1
    39   15   37 1
    40   16   38 1
    41   16   39 1
    42   18   40 1
    43   18   41 1
    44   19   42 1
    45   19   43 1
    46   20   44 1
    47   21   45 1
    48   21   46 1
    49   21   47 1
    50   25   48 1
    51   26   49 1
@<TRIPOS>PROPERTY_DATA
  Total_Score	| 14.4629
  Crash		| -2.4403
  Polar		| 8.1541
  FragIndex	| 1
  FragRMSD	| 0.757

