@<TRIPOS>MOLECULE
BindingDB_36495
 48 51 0 0 0
SMALL
NO_CHARGES


@<TRIPOS>ATOM
1    N        57.5891   73.8227   22.0160  N     
2    C        58.6817   73.4685   22.9362  C     
3    C        59.9008   73.1286   22.0292  C     
4    C        59.3189   73.1206   20.5954  C     
5    C        58.1298   74.1084   20.6746  C     
6    C        57.0775   74.0302   19.6623  C     
7    O        60.9247   74.1224   22.1598  O     
8    O        58.8994   71.7865   20.2958  O     
9    C        57.1600   73.6823   18.3695  C     
10   C        55.7555   74.3176   19.8871  C     
11   C        55.0561   74.0875   18.7051  C     
12   N        55.9632   73.7095   17.7964  N     
13   N        55.1158   74.7230   21.0144  N     
14   C        53.7700   74.8947   21.0075  C     
15   N        53.0601   74.6542   19.8697  N     
16   C        53.6590   74.2596   18.7143  C     
17   N        52.8898   74.0490   17.6327  N     
18   C        58.2653   72.3479   23.9329  C     
19   S        58.1802   70.6923   23.2001  S     
20   C        56.3908   70.5046   22.9763  C     
21   C        56.0610   69.0548   23.0333  C     
22   C        55.6930   68.4620   24.2636  C     
23   C        55.4802   67.0742   24.3584  C     
24   C        55.6495   66.2585   23.2263  C     
25   C        56.0028   66.8376   21.9927  C     
26   C        56.1978   68.2297   21.8943  C     
27   H        56.9388   73.0423   21.9424  H     
28   H        57.0807   74.6349   22.3746  H     
29   H        58.8974   74.3668   23.5242  H     
30   H        60.3636   72.1659   22.2814  H     
31   H        60.0635   73.4634   19.8658  H     
32   H        58.5072   75.1373   20.6799  H     
33   H        61.0574   74.2342   23.1308  H     
34   H        59.7265   71.2764   20.2304  H     
35   H        57.9915   73.4218   17.8932  H     
36   H        55.7742   73.4782   16.8766  H     
37   H        53.2922   75.1972   21.8562  H     
38   H        51.9250   74.1432   17.7036  H     
39   H        53.2896   73.8493   16.7729  H     
40   H        59.0082   72.3164   24.7335  H     
41   H        57.2855   72.5810   24.3673  H     
42   H        55.8621   71.0736   23.7488  H     
43   H        56.1239   70.9216   21.9992  H     
44   H        55.5950   69.0346   25.1062  H     
45   H        55.2127   66.6545   25.2513  H     
46   H        55.5105   65.2470   23.2957  H     
47   H        56.1225   66.2470   21.1685  H     
48   H        56.4596   68.6304   20.9915  H     
@<TRIPOS>BOND
     1    1    2 1
     2    1    5 1
     3    2    3 1
     4    2   18 1
     5    3    4 1
     6    3    7 1
     7    4    5 1
     8    4    8 1
     9    5    6 1
    10    6    9 2
    11    6   10 1
    12    9   12 1
    13   10   11 1
    14   10   13 2
    15   11   12 1
    16   11   16 2
    17   13   14 1
    18   14   15 2
    19   15   16 1
    20   16   17 1
    21   18   19 1
    22   19   20 1
    23   20   21 1
    24   21   22 1
    25   21   26 2
    26   22   23 2
    27   23   24 1
    28   24   25 2
    29   25   26 1
    30    1   27 1
    31    1   28 1
    32    2   29 1
    33    3   30 1
    34    4   31 1
    35    5   32 1
    36    7   33 1
    37    8   34 1
    38    9   35 1
    39   12   36 1
    40   14   37 1
    41   17   38 1
    42   17   39 1
    43   18   40 1
    44   18   41 1
    45   20   42 1
    46   20   43 1
    47   22   44 1
    48   23   45 1
    49   24   46 1
    50   25   47 1
    51   26   48 1
@<TRIPOS>PROPERTY_DATA
  Total_Score	| 14.2242
  Crash		| -1.8740
  Polar		| 7.6295
  FragIndex	| 1
  FragRMSD	| 1.115

