@<TRIPOS>MOLECULE
BindingDB_36494
 41 43 0 0 0
SMALL
NO_CHARGES


@<TRIPOS>ATOM
1    N        57.5229   73.8527   22.0114  N     
2    C        58.5934   73.4868   22.9475  C     
3    C        59.8290   73.1481   22.0720  C     
4    C        59.2965   73.1992   20.6313  C     
5    C        58.0969   74.1793   20.6886  C     
6    C        57.0631   74.1306   19.6483  C     
7    O        60.8903   74.1030   22.2421  O     
8    O        58.8855   71.8771   20.2846  O     
9    C        57.1518   73.8171   18.3500  C     
10   C        55.7359   74.4036   19.8738  C     
11   C        55.0344   74.1562   18.6974  C     
12   N        55.9526   73.8088   17.7823  N     
13   N        55.0895   74.8188   20.9949  N     
14   C        53.7395   74.9812   20.9850  C     
15   N        53.0291   74.7032   19.8554  N     
16   C        53.6298   74.2912   18.7070  C     
17   N        52.8638   74.0206   17.6374  N     
18   C        58.1199   72.3950   23.9656  C     
19   S        57.7766   70.7026   23.3821  S     
20   C        56.0581   70.7020   22.7512  C     
21   C        55.1013   69.7863   23.5652  C     
22   H        56.8985   73.0541   21.9022  H     
23   H        56.9902   74.6435   22.3846  H     
24   H        58.8010   74.4074   23.5238  H     
25   H        60.2477   72.1708   22.3169  H     
26   H        60.0795   73.5395   19.9464  H     
27   H        58.4795   75.2092   20.7281  H     
28   H        61.0248   74.2377   23.2212  H     
29   H        59.3675   71.7124   19.4350  H     
30   H        57.9863   73.6029   17.8739  H     
31   H        55.7594   73.5652   16.8555  H     
32   H        53.2627   75.2961   21.8276  H     
33   H        51.8924   74.0976   17.7067  H     
34   H        53.2693   73.7261   16.8019  H     
35   H        58.9393   72.2799   24.6731  H     
36   H        57.2699   72.7705   24.5327  H     
37   H        55.6438   71.7083   22.6952  H     
38   H        56.1031   70.3250   21.7239  H     
39   H        55.4774   68.7561   23.5772  H     
40   H        54.1146   69.8050   23.0957  H     
41   H        54.9882   70.1561   24.5887  H     
@<TRIPOS>BOND
     1    1    2 1
     2    1    5 1
     3    2    3 1
     4    2   18 1
     5    3    4 1
     6    3    7 1
     7    4    5 1
     8    4    8 1
     9    5    6 1
    10    6    9 2
    11    6   10 1
    12    9   12 1
    13   10   11 1
    14   10   13 2
    15   11   12 1
    16   11   16 2
    17   13   14 1
    18   14   15 2
    19   15   16 1
    20   16   17 1
    21   18   19 1
    22   19   20 1
    23   20   21 1
    24    1   22 1
    25    1   23 1
    26    2   24 1
    27    3   25 1
    28    4   26 1
    29    5   27 1
    30    7   28 1
    31    8   29 1
    32    9   30 1
    33   12   31 1
    34   14   32 1
    35   17   33 1
    36   17   34 1
    37   18   35 1
    38   18   36 1
    39   20   37 1
    40   20   38 1
    41   21   39 1
    42   21   40 1
    43   21   41 1
@<TRIPOS>PROPERTY_DATA
  Total_Score	| 12.5304
  Crash		| -2.0151
  Polar		| 8.3343
  FragIndex	| 1
  FragRMSD	| 1.102

