@<TRIPOS>MOLECULE
BindingDB_36496
 45 48 0 0 0
SMALL
NO_CHARGES


@<TRIPOS>ATOM
1    N        57.6433   73.7892   21.9627  N     
2    C        58.7803   73.4007   22.8480  C     
3    C        59.9355   73.0353   21.8728  C     
4    C        59.2527   73.0170   20.4887  C     
5    C        58.1134   74.0562   20.5901  C     
6    C        57.0244   73.9647   19.6174  C     
7    O        61.0271   73.9522   21.9013  O     
8    O        58.7118   71.7148   20.2688  O     
9    C        57.0919   73.6233   18.3163  C     
10   C        55.7092   74.2624   19.8590  C     
11   C        55.0049   74.0665   18.6776  C     
12   N        55.8960   73.6767   17.7590  N     
13   N        55.0816   74.6845   20.9873  N     
14   C        53.7422   74.9089   20.9703  C     
15   N        53.0316   74.7023   19.8269  N     
16   C        53.6152   74.2909   18.6688  C     
17   N        52.8619   74.1224   17.5708  N     
18   C        58.5173   72.2298   23.8716  C     
19   S        56.7464   71.7407   23.8988  S     
20   C        56.6027   70.0219   23.5554  C     
21   C        55.5401   69.2379   24.0727  C     
22   C        55.4560   67.8720   23.7501  C     
23   C        56.3838   67.2550   22.8910  C     
24   C        57.4638   68.0149   22.3971  C     
25   C        57.5603   69.3762   22.7865  C     
26   Cl       56.2114   65.6096   22.5437  Cl    
27   H        56.9821   73.0117   21.9166  H     
28   H        57.1583   74.6112   22.3334  H     
29   H        59.0376   74.3019   23.4263  H     
30   H        60.3842   72.0711   22.1027  H     
31   H        59.9600   73.2641   19.6909  H     
32   H        58.5371   75.0657   20.5263  H     
33   H        61.8214   73.3896   21.7682  H     
34   H        59.5000   71.1352   20.3202  H     
35   H        57.9216   73.3771   17.8322  H     
36   H        55.6994   73.4652   16.8343  H     
37   H        53.2695   75.2247   21.8174  H     
38   H        51.8989   74.2492   17.6200  H     
39   H        53.2731   73.8794   16.7277  H     
40   H        59.2591   71.3468   23.7906  H     
41   H        58.7041   72.6346   24.8578  H     
42   H        54.8473   69.6660   24.6916  H     
43   H        54.7094   67.3141   24.1560  H     
44   H        58.1847   67.6054   21.7951  H     
45   H        58.3506   69.9496   22.5582  H     
@<TRIPOS>BOND
     1    1    2 1
     2    1    5 1
     3    2    3 1
     4    2   18 1
     5    3    4 1
     6    3    7 1
     7    4    5 1
     8    4    8 1
     9    5    6 1
    10    6    9 2
    11    6   10 1
    12    9   12 1
    13   10   11 1
    14   10   13 2
    15   11   12 1
    16   11   16 2
    17   13   14 1
    18   14   15 2
    19   15   16 1
    20   16   17 1
    21   18   19 1
    22   19   20 1
    23   20   21 1
    24   20   25 2
    25   21   22 2
    26   22   23 1
    27   23   24 2
    28   23   26 1
    29   24   25 1
    30    1   27 1
    31    1   28 1
    32    2   29 1
    33    3   30 1
    34    4   31 1
    35    5   32 1
    36    7   33 1
    37    8   34 1
    38    9   35 1
    39   12   36 1
    40   14   37 1
    41   17   38 1
    42   17   39 1
    43   18   40 1
    44   18   41 1
    45   21   42 1
    46   22   43 1
    47   24   44 1
    48   25   45 1
@<TRIPOS>PROPERTY_DATA
  Total_Score	| 11.8108
  Crash		| -3.6635
  Polar		| 7.9043
  FragIndex	| 1
  FragRMSD	| 1.146

