@<TRIPOS>MOLECULE
BindingDB_22112
 36 38 0 0 0
SMALL
NO_CHARGES


@<TRIPOS>ATOM
1    C        53.4786   74.5305   18.5905  C     
2    C        53.7589   75.0989   20.8920  C     
3    N        52.9673   74.8863   19.8026  N     
4    N        55.1058   74.9432   20.7940  N     
5    C        55.6585   74.6042   19.6015  C     
6    C        54.8725   74.3869   18.4714  C     
7    C        56.9421   73.9278   17.9175  C     
8    C        56.9759   74.3165   19.2569  C     
9    N        55.6753   73.9961   17.4690  N     
10   C        58.1097   74.2189   20.2020  C     
11   N        58.4777   72.8070   20.5538  N     
12   C        57.3933   71.8315   20.8498  C     
13   C        59.0501   72.5966   21.9119  C     
14   C        57.7844   71.8215   22.3327  C     
15   C        57.9662   70.4516   23.0278  C     
16   S        56.3951   69.5794   23.3009  S     
17   C        56.2470   68.6675   21.7417  C     
18   N        52.6555   74.3018   17.5544  N     
19   H        53.3406   75.3632   21.7864  H     
20   H        57.7388   73.5925   17.3744  H     
21   H        55.3810   73.7275   16.5874  H     
22   H        58.9828   74.6993   19.7558  H     
23   H        57.8540   74.7921   21.0984  H     
24   H        59.1077   72.4282   19.8382  H     
25   H        56.3618   72.1545   20.6993  H     
26   H        57.5990   70.8841   20.3480  H     
27   H        59.9465   71.9665   21.8657  H     
28   H        59.2226   73.4946   22.5133  H     
29   H        57.1207   72.4696   22.9165  H     
30   H        58.6665   69.8252   22.4707  H     
31   H        58.4011   70.6328   24.0145  H     
32   H        55.9603   69.3410   20.9326  H     
33   H        55.4732   67.9055   21.8545  H     
34   H        57.1915   68.1725   21.5015  H     
35   H        53.0182   74.0454   16.6939  H     
36   H        51.6947   74.3720   17.6694  H     
@<TRIPOS>BOND
     1    1    3 2
     2    1    6 1
     3    1   18 1
     4    2    3 1
     5    2    4 2
     6    4    5 1
     7    5    6 2
     8    5    8 1
     9    6    9 1
    10    7    8 2
    11    7    9 1
    12    8   10 1
    13   10   11 1
    14   11   12 1
    15   11   13 1
    16   12   14 1
    17   13   14 1
    18   14   15 1
    19   15   16 1
    20   16   17 1
    21    2   19 1
    22    7   20 1
    23    9   21 1
    24   10   22 1
    25   10   23 1
    26   11   24 1
    27   12   25 1
    28   12   26 1
    29   13   27 1
    30   13   28 1
    31   14   29 1
    32   15   30 1
    33   15   31 1
    34   17   32 1
    35   17   33 1
    36   17   34 1
    37   18   35 1
    38   18   36 1
@<TRIPOS>PROPERTY_DATA
  Total_Score	| 11.7809
  Crash		| -0.7689
  Polar		| 6.9342
  FragIndex	| 1
  FragRMSD	| 0.813

