@<TRIPOS>MOLECULE
BindingDB_36498
 47 50 0 0 0
SMALL
NO_CHARGES


@<TRIPOS>ATOM
1    C        58.4464   71.9502   20.9962  C     
2    C        58.0763   71.4440   22.4244  C     
3    C        58.4984   72.6324   23.3269  C     
4    C        58.2823   73.8630   22.4260  C     
5    N        58.7589   73.4000   21.1030  N     
6    C        58.4855   74.2895   19.9248  C     
7    O        59.8701   72.5144   23.7156  O     
8    C        56.5566   71.1013   22.5887  C     
9    S        55.9980   69.7282   21.5462  S     
10   C        56.3537   68.3994   22.6097  C     
11   C        57.1973   74.1605   19.1987  C     
12   C        57.0588   73.8323   17.8451  C     
13   C        55.8972   74.3713   19.6594  C     
14   N        55.7584   73.8559   17.4973  N     
15   C        55.0330   74.1710   18.5796  C     
16   N        55.4082   74.7213   20.8779  N     
17   C        54.0601   74.8409   21.0546  C     
18   N        53.2023   74.6331   20.0155  N     
19   C        53.6467   74.3147   18.7701  C     
20   N        52.7739   74.1389   17.7578  N     
21   C        55.4733   68.0988   23.6702  C     
22   C        55.7072   66.9873   24.5020  C     
23   C        56.8256   66.1627   24.2635  C     
24   C        57.6844   66.4330   23.1812  C     
25   C        57.4554   67.5568   22.3661  C     
26   Cl       57.1464   64.8398   25.2721  Cl    
27   H        59.3374   71.4211   20.6182  H     
28   H        57.6266   71.7642   20.2983  H     
29   H        58.6745   70.5530   22.6821  H     
30   H        57.8877   72.7191   24.2285  H     
31   H        57.2199   74.1467   22.4067  H     
32   H        58.8685   74.7157   22.7858  H     
33   H        59.7741   73.4350   21.2024  H     
34   H        58.6013   75.3416   20.2125  H     
35   H        59.2870   74.0968   19.2165  H     
36   H        60.0533   73.3326   24.2438  H     
37   H        56.3243   70.8801   23.6360  H     
38   H        55.9596   71.9721   22.3059  H     
39   H        57.8251   73.5939   17.2086  H     
40   H        55.4015   73.6739   16.6088  H     
41   H        53.6844   75.1026   21.9644  H     
42   H        51.8136   74.2349   17.9146  H     
43   H        53.0980   73.9520   16.8579  H     
44   H        54.6576   68.6922   23.8377  H     
45   H        55.0645   66.7819   25.2719  H     
46   H        58.4601   65.8012   22.9861  H     
47   H        58.0941   67.7406   21.5921  H     
@<TRIPOS>BOND
     1    1    2 1
     2    1    5 1
     3    2    3 1
     4    2    8 1
     5    3    4 1
     6    3    7 1
     7    4    5 1
     8    5    6 1
     9    6   11 1
    10    8    9 1
    11    9   10 1
    12   10   21 2
    13   10   25 1
    14   11   12 2
    15   11   13 1
    16   12   14 1
    17   13   15 2
    18   13   16 1
    19   14   15 1
    20   15   19 1
    21   16   17 2
    22   17   18 1
    23   18   19 2
    24   19   20 1
    25   21   22 1
    26   22   23 2
    27   23   24 1
    28   23   26 1
    29   24   25 2
    30    1   27 1
    31    1   28 1
    32    2   29 1
    33    3   30 1
    34    4   31 1
    35    4   32 1
    36    5   33 1
    37    6   34 1
    38    6   35 1
    39    7   36 1
    40    8   37 1
    41    8   38 1
    42   12   39 1
    43   14   40 1
    44   17   41 1
    45   20   42 1
    46   20   43 1
    47   21   44 1
    48   22   45 1
    49   24   46 1
    50   25   47 1
@<TRIPOS>PROPERTY_DATA
  Total_Score	| 15.2355
  Crash		| -1.6183
  Polar		| 7.1142
  FragIndex	| 1
  FragRMSD	| 0.484

