@<TRIPOS>MOLECULE
BindingDB_22110
 40 42 0 0 0
SMALL
NO_CHARGES


@<TRIPOS>ATOM
1    C        53.6268   74.1952   18.7571  C     
2    C        54.0209   74.7846   21.0365  C     
3    N        53.1736   74.5630   19.9910  N     
4    N        55.3625   74.6484   20.8798  N     
5    C        55.8659   74.2699   19.6776  C     
6    C        55.0190   74.0432   18.5888  C     
7    C        57.0642   73.7748   17.8701  C     
8    C        57.1743   74.0774   19.2307  C     
9    N        55.7689   73.7595   17.5162  N     
10   C        58.4601   74.2870   19.9534  C     
11   N        58.7871   73.5031   21.1898  N     
12   C        57.9084   73.5449   22.3809  C     
13   C        58.7466   72.0201   21.1439  C     
14   C        57.8364   71.9967   22.3922  C     
15   C        56.3928   71.4769   22.0705  C     
16   S        56.3126   69.7172   21.6096  S     
17   C        55.3244   69.0771   22.9688  C     
18   C        58.5060   71.3028   23.6408  C     
19   O        59.7522   71.8931   24.0534  O     
20   N        52.7620   74.0304   17.7448  N     
21   H        53.6425   75.0822   21.9386  H     
22   H        57.8300   73.6310   17.2108  H     
23   H        55.4186   73.5818   16.6362  H     
24   H        59.2805   74.0774   19.2691  H     
25   H        58.5390   75.3383   20.2095  H     
26   H        59.7283   73.7693   21.4911  H     
27   H        58.4421   73.9888   23.2383  H     
28   H        56.9456   74.0406   22.2433  H     
29   H        58.2900   71.6313   20.2314  H     
30   H        59.7537   71.5959   21.3023  H     
31   H        55.7652   71.6713   22.9343  H     
32   H        55.9780   72.0384   21.2350  H     
33   H        55.8123   69.2553   23.9217  H     
34   H        55.1969   67.9992   22.8374  H     
35   H        54.3419   69.5451   22.9579  H     
36   H        57.7925   71.2680   24.4971  H     
37   H        58.7241   70.2603   23.3778  H     
38   H        59.4747   72.5859   24.7176  H     
39   H        53.0868   73.8235   16.8568  H     
40   H        51.8076   74.1517   17.8920  H     
@<TRIPOS>BOND
     1    1    3 2
     2    1    6 1
     3    1   20 1
     4    2    3 1
     5    2    4 2
     6    4    5 1
     7    5    6 2
     8    5    8 1
     9    6    9 1
    10    7    8 2
    11    7    9 1
    12    8   10 1
    13   10   11 1
    14   11   12 1
    15   11   13 1
    16   12   14 1
    17   13   14 1
    18   14   15 1
    19   14   18 1
    20   15   16 1
    21   16   17 1
    22   18   19 1
    23    2   21 1
    24    7   22 1
    25    9   23 1
    26   10   24 1
    27   10   25 1
    28   11   26 1
    29   12   27 1
    30   12   28 1
    31   13   29 1
    32   13   30 1
    33   15   31 1
    34   15   32 1
    35   17   33 1
    36   17   34 1
    37   17   35 1
    38   18   36 1
    39   18   37 1
    40   19   38 1
    41   20   39 1
    42   20   40 1
@<TRIPOS>PROPERTY_DATA
  Total_Score	| 12.9996
  Crash		| -1.0470
  Polar		| 6.5870
  FragIndex	| 1
  FragRMSD	| 0.615

