@<TRIPOS>MOLECULE
BindingDB_36436
 49 51 0 0 0
SMALL
NO_CHARGES


@<TRIPOS>ATOM
1    S        55.8372   69.7575   22.1909  S     
2    O        59.4917   72.2958   24.1684  O     
3    N        58.9879   73.1516   20.6401  N     
4    N        55.7917   73.8517   17.6244  N     
5    N        55.1908   74.8498   20.9291  N     
6    N        53.0552   74.6681   19.9574  N     
7    N        52.7402   73.9923   17.7397  N     
8    C        55.7530   74.4808   19.7512  C     
9    C        54.9708   74.1834   18.6323  C     
10   C        57.0826   74.2932   19.3944  C     
11   C        53.5715   74.2732   18.7570  C     
12   C        58.2409   74.4100   20.3077  C     
13   C        57.0650   73.9013   18.0527  C     
14   C        58.1005   71.5138   22.2798  C     
15   C        58.7953   72.6942   22.9870  C     
16   C        58.2275   71.8687   20.7741  C     
17   C        59.7498   73.2422   21.9167  C     
18   C        53.8453   74.9578   21.0281  C     
19   C        56.6482   71.2750   22.7873  C     
20   C        57.0929   68.4881   22.5368  C     
21   C        56.4452   67.0889   22.7343  C     
22   C        55.8286   66.8656   24.1463  C     
23   C        56.6778   65.9473   25.0559  C     
24   H        59.7578   73.1351   24.5931  H     
25   H        59.6682   73.0081   19.8874  H     
26   H        55.5064   73.5974   16.7320  H     
27   H        53.1019   73.7021   16.8861  H     
28   H        51.7818   74.0611   17.8632  H     
29   H        57.8982   74.8916   21.2315  H     
30   H        58.9397   75.1027   19.8332  H     
31   H        57.8879   73.6837   17.4884  H     
32   H        58.6834   70.6101   22.4789  H     
33   H        58.0739   73.4642   23.2639  H     
34   H        57.2520   71.8932   20.2851  H     
35   H        58.8153   71.0860   20.2806  H     
36   H        60.6465   72.6159   21.8533  H     
37   H        60.0816   74.2564   22.1637  H     
38   H        53.4213   75.2425   21.9099  H     
39   H        56.0228   72.1079   22.4650  H     
40   H        56.6363   71.2506   23.8828  H     
41   H        57.7725   68.4515   21.6825  H     
42   H        57.6706   68.7528   23.4249  H     
43   H        55.6638   66.9457   21.9788  H     
44   H        57.1969   66.3254   22.5428  H     
45   H        55.6876   67.8275   24.6544  H     
46   H        54.8404   66.4092   24.0433  H     
47   H        56.7041   64.9316   24.6399  H     
48   H        56.2424   65.8901   26.0496  H     
49   H        57.7019   66.3203   25.1388  H     
@<TRIPOS>BOND
     1    1   19 1
     2    1   20 1
     3   15    2 1
     4    3   12 1
     5    3   16 1
     6    3   17 1
     7    4    9 1
     8    4   13 1
     9    5    8 1
    10    5   18 2
    11    6   11 2
    12    6   18 1
    13    7   11 1
    14    8    9 2
    15    8   10 1
    16    9   11 1
    17   10   12 1
    18   10   13 2
    19   14   15 1
    20   14   16 1
    21   14   19 1
    22   15   17 1
    23   20   21 1
    24   21   22 1
    25   22   23 1
    26    2   24 1
    27    3   25 1
    28    4   26 1
    29    7   27 1
    30    7   28 1
    31   12   29 1
    32   12   30 1
    33   13   31 1
    34   14   32 1
    35   15   33 1
    36   16   34 1
    37   16   35 1
    38   17   36 1
    39   17   37 1
    40   18   38 1
    41   19   39 1
    42   19   40 1
    43   20   41 1
    44   20   42 1
    45   21   43 1
    46   21   44 1
    47   22   45 1
    48   22   46 1
    49   23   47 1
    50   23   48 1
    51   23   49 1
@<TRIPOS>PROPERTY_DATA
  Total_Score	| 16.3008
  Crash		| -0.8885
  Polar		| 8.4940
  FragIndex	| 1
  FragRMSD	| 0.641

