@<TRIPOS>MOLECULE
BindingDB_36497
 50 53 0 0 0
SMALL
NO_CHARGES


@<TRIPOS>ATOM
1    C        57.8838   72.1519   20.9504  C     
2    C        58.7310   71.2106   21.8256  C     
3    C        59.5204   72.2105   22.6936  C     
4    C        59.7573   73.4106   21.7502  C     
5    N        58.7918   73.2813   20.6245  N     
6    C        58.1464   74.5698   20.2534  C     
7    O        58.7742   72.6082   23.8462  O     
8    C        57.9856   70.0479   22.5470  C     
9    S        56.3609   70.4325   23.2813  S     
10   C        55.3352   69.1305   22.5413  C     
11   C        56.9799   74.4173   19.3475  C     
12   C        56.9862   73.9961   18.0115  C     
13   C        55.6447   74.5790   19.6928  C     
14   N        55.7137   73.9331   17.5723  N     
15   C        54.8832   74.2646   18.5731  C     
16   N        55.0813   74.9405   20.8737  N     
17   C        53.7272   75.0274   20.9653  C     
18   N        52.9568   74.7176   19.8887  N     
19   C        53.4859   74.3369   18.6941  C     
20   N        52.6586   74.0329   17.6856  N     
21   C        55.7465   67.7517   22.9267  C     
22   C        56.0624   66.7686   21.9521  C     
23   C        56.4637   65.4747   22.3449  C     
24   C        56.5353   65.1320   23.7053  C     
25   C        56.2332   66.1004   24.6802  C     
26   C        55.8316   67.3979   24.2937  C     
27   H        57.5722   71.6338   20.0420  H     
28   H        56.9959   72.5064   21.4823  H     
29   H        59.4619   70.7349   21.1657  H     
30   H        60.4677   71.7786   23.0296  H     
31   H        59.6649   74.3475   22.3075  H     
32   H        60.7644   73.3732   21.3439  H     
33   H        59.3337   72.9756   19.8056  H     
34   H        57.7999   75.0915   21.1513  H     
35   H        58.8839   75.2155   19.7566  H     
36   H        59.3364   73.2713   24.3074  H     
37   H        57.8822   69.2262   21.8274  H     
38   H        58.6116   69.6803   23.3741  H     
39   H        54.3086   69.3009   22.8889  H     
40   H        55.3367   69.2625   21.4441  H     
41   H        57.8211   73.7731   17.4622  H     
42   H        55.4458   73.6576   16.6909  H     
43   H        53.2952   75.3128   21.8440  H     
44   H        51.6949   74.0687   17.8093  H     
45   H        53.0221   73.7553   16.8302  H     
46   H        56.0064   66.9928   20.9535  H     
47   H        56.7120   64.7822   21.6303  H     
48   H        56.8408   64.1962   23.9848  H     
49   H        56.3154   65.8619   25.6743  H     
50   H        55.6120   68.0891   25.0172  H     
@<TRIPOS>BOND
     1    1    2 1
     2    1    5 1
     3    2    3 1
     4    2    8 1
     5    3    4 1
     6    3    7 1
     7    4    5 1
     8    5    6 1
     9    6   11 1
    10    8    9 1
    11    9   10 1
    12   10   21 1
    13   11   12 2
    14   11   13 1
    15   12   14 1
    16   13   15 2
    17   13   16 1
    18   14   15 1
    19   15   19 1
    20   16   17 2
    21   17   18 1
    22   18   19 2
    23   19   20 1
    24   21   22 2
    25   21   26 1
    26   22   23 1
    27   23   24 2
    28   24   25 1
    29   25   26 2
    30    1   27 1
    31    1   28 1
    32    2   29 1
    33    3   30 1
    34    4   31 1
    35    4   32 1
    36    5   33 1
    37    6   34 1
    38    6   35 1
    39    7   36 1
    40    8   37 1
    41    8   38 1
    42   10   39 1
    43   10   40 1
    44   12   41 1
    45   14   42 1
    46   17   43 1
    47   20   44 1
    48   20   45 1
    49   22   46 1
    50   23   47 1
    51   24   48 1
    52   25   49 1
    53   26   50 1
@<TRIPOS>PROPERTY_DATA
  Total_Score	| 16.1733
  Crash		| -1.4027
  Polar		| 8.5870
  FragIndex	| 1
  FragRMSD	| 0.939

