@<TRIPOS>MOLECULE
BindingDB_50195206
 57 61 0 0 0
SMALL
NO_CHARGES


@<TRIPOS>ATOM
1    C        12.6925   -1.4099   12.0383  C     
2    C        12.1852   -0.3713   11.2382  C     
3    C        12.9989    0.2320   10.2621  C     
4    C        14.0175   -1.8530   11.8676  C     
5    C        14.8488   -1.2505   10.8976  C     
6    C        14.3297   -0.2014   10.0953  C     
7    N        15.1539    0.3797    9.1753  N     
8    C        16.4200    0.0013    9.0143  C     
9    C        16.9792   -1.0236    9.7739  C     
10   C        16.1819   -1.6276   10.6958  C     
11   O        17.0210    0.5677    8.1115  O     
12   C        18.3349   -1.3922    9.6330  C     
13   N        19.2950   -0.6366    9.0520  N     
14   C        18.9701   -2.5684   10.0686  C     
15   C        20.3092   -2.4936    9.7062  C     
16   C        20.4770   -1.2639    9.0798  C     
17   C        21.7367   -0.8528    8.6181  C     
18   C        22.8297   -1.7323    8.7632  C     
19   C        22.6673   -3.0113    9.3621  C     
20   C        21.3925   -3.3764    9.8671  C     
21   C        23.8195   -3.9568    9.4247  C     
22   N        24.0045   -4.8155    8.2061  N     
23   C        22.9506   -5.8647    8.0367  C     
24   C        23.3071   -6.8532    6.8917  C     
25   C        23.5250   -6.0943    5.5489  C     
26   C        24.5967   -4.9792    5.7580  C     
27   C        24.2404   -4.0433    6.9428  C     
28   C        23.8978   -7.0139    4.3497  C     
29   N        23.0589   -8.2160    4.2485  N     
30   H        12.0987   -1.8426   12.7468  H     
31   H        11.2214   -0.0548   11.3609  H     
32   H        12.6194    0.9844    9.6818  H     
33   H        14.3725   -2.6082   12.4574  H     
34   H        14.8020    1.0935    8.6209  H     
35   H        16.5509   -2.3407   11.2808  H     
36   H        19.1680    0.2485    8.6773  H     
37   H        18.5414   -3.3637   10.5473  H     
38   H        21.8569    0.0706    8.1917  H     
39   H        23.7485   -1.4349    8.4266  H     
40   H        21.2412   -4.2792   10.3242  H     
41   H        24.7354   -3.3845    9.5914  H     
42   H        23.7228   -4.5976   10.3024  H     
43   H        24.8753   -5.3256    8.3803  H     
44   H        22.8498   -6.4418    8.9590  H     
45   H        21.9861   -5.3970    7.8195  H     
46   H        24.2158   -7.4040    7.1540  H     
47   H        22.4903   -7.5685    6.7883  H     
48   H        22.5727   -5.6151    5.2983  H     
49   H        25.5701   -5.4398    5.9582  H     
50   H        24.6893   -4.3749    4.8523  H     
51   H        23.3552   -3.4559    6.6795  H     
52   H        25.0748   -3.3527    7.0870  H     
53   H        23.7771   -6.4508    3.4211  H     
54   H        24.9444   -7.3292    4.4222  H     
55   H        23.3577   -8.8988    4.9465  H     
56   H        23.1594   -8.6258    3.3165  H     
57   H        22.0812   -7.9775    4.4177  H     
@<TRIPOS>BOND
     1    1    2 2
     2    1    4 1
     3    2    3 1
     4    3    6 2
     5    4    5 2
     6    5    6 1
     7    5   10 1
     8    6    7 1
     9    7    8 1
    10    8    9 1
    11    8   11 2
    12    9   10 2
    13    9   12 1
    14   12   13 1
    15   12   14 2
    16   13   16 1
    17   14   15 1
    18   15   16 2
    19   15   20 1
    20   16   17 1
    21   17   18 2
    22   18   19 1
    23   19   20 2
    24   19   21 1
    25   21   22 1
    26   22   23 1
    27   22   27 1
    28   23   24 1
    29   24   25 1
    30   25   26 1
    31   25   28 1
    32   26   27 1
    33   28   29 1
    34    1   30 1
    35    2   31 1
    36    3   32 1
    37    4   33 1
    38    7   34 1
    39   10   35 1
    40   13   36 1
    41   14   37 1
    42   17   38 1
    43   18   39 1
    44   20   40 1
    45   21   41 1
    46   21   42 1
    47   22   43 1
    48   23   44 1
    49   23   45 1
    50   24   46 1
    51   24   47 1
    52   25   48 1
    53   26   49 1
    54   26   50 1
    55   27   51 1
    56   27   52 1
    57   28   53 1
    58   28   54 1
    59   29   55 1
    60   29   56 1
    61   29   57 1
@<TRIPOS>PROPERTY_DATA
  Total_Score	| 7.5161
  Crash		| -0.7480
  Polar		| 3.8142
  FragIndex	| 1
  FragRMSD	| 0.774

