@<TRIPOS>MOLECULE
BindingDB_50195209
 61 66 0 0 0
SMALL
NO_CHARGES


@<TRIPOS>ATOM
1    C        12.9991   -1.9382   11.8059  C     
2    C        12.4777   -0.7958   11.1409  C     
3    C        13.2670   -0.0363   10.2595  C     
4    C        14.3561   -2.2710   11.5649  C     
5    C        15.1679   -1.5092   10.6942  C     
6    C        14.6083   -0.3904   10.0326  C     
7    N        15.4004    0.3166    9.1736  N     
8    C        16.6775    0.0046    8.9668  C     
9    C        17.2911   -1.0504    9.6317  C     
10   C        16.5158   -1.7984   10.4546  C     
11   O        17.2400    0.6437    8.0873  O     
12   C        18.6685   -1.3279    9.4761  C     
13   N        19.6140   -0.4740    9.0071  N     
14   C        19.3355   -2.5323    9.7446  C     
15   C        20.6725   -2.3694    9.4063  C     
16   C        20.8113   -1.0775    8.9223  C     
17   C        22.0563   -0.6227    8.4505  C     
18   C        23.1499   -1.5144    8.4580  C     
19   C        23.0201   -2.8393    8.9555  C     
20   C        21.7621   -3.2540    9.4594  C     
21   C        24.1709   -3.7879    8.9584  C     
22   N        24.1655   -4.8465    7.8963  N     
23   C        24.3557   -4.3223    6.5067  C     
24   C        24.5593   -5.4726    5.4847  C     
25   C        23.4001   -6.4996    5.5576  C     
26   C        23.1969   -6.9913    7.0094  C     
27   C        23.0149   -5.8020    7.9866  C     
28   C        12.1914   -2.7242   12.6855  C     
29   C        12.4870   -3.9705   13.2405  C     
30   N        11.4637   -4.3554   14.0228  N     
31   N        10.5333   -3.4528   13.9993  N     
32   C        10.9232   -2.4461   13.1999  C     
33   C        11.4248   -5.5582   14.7861  C     
34   H        11.5101   -0.5074   11.2843  H     
35   H        12.8616    0.7748    9.7837  H     
36   H        14.7766   -3.0754   12.0324  H     
37   H        15.0039    1.0547    8.6805  H     
38   H        16.9111   -2.5662   10.9484  H     
39   H        19.4692    0.4516    8.7611  H     
40   H        18.9329   -3.4021   10.0911  H     
41   H        22.1548    0.3305    8.0828  H     
42   H        24.0413   -1.1988    8.0720  H     
43   H        21.6271   -4.1884    9.8463  H     
44   H        25.1046   -3.2302    8.8676  H     
45   H        24.2244   -4.2655    9.9404  H     
46   H        24.9968   -5.4118    8.0888  H     
47   H        23.4909   -3.7221    6.2102  H     
48   H        25.2437   -3.6837    6.4709  H     
49   H        24.6220   -5.0598    4.4759  H     
50   H        25.4999   -5.9858    5.7019  H     
51   H        22.4790   -6.0306    5.1961  H     
52   H        23.6247   -7.3556    4.9110  H     
53   H        22.3099   -7.6307    7.0569  H     
54   H        24.0611   -7.5873    7.3215  H     
55   H        22.9433   -6.2099    8.9985  H     
56   H        22.0707   -5.3003    7.7504  H     
57   H        13.3323   -4.5231   13.0856  H     
58   H        10.3657   -1.6106   13.0328  H     
59   H        11.5681   -6.4219   14.1343  H     
60   H        10.4686   -5.6680   15.3025  H     
61   H        12.2253   -5.5426   15.5285  H     
@<TRIPOS>BOND
     1    1    2 2
     2    1    4 1
     3    1   28 1
     4    2    3 1
     5    3    6 2
     6    4    5 2
     7    5    6 1
     8    5   10 1
     9    6    7 1
    10    7    8 1
    11    8    9 1
    12    8   11 2
    13    9   10 2
    14    9   12 1
    15   12   13 1
    16   12   14 2
    17   13   16 1
    18   14   15 1
    19   15   16 2
    20   15   20 1
    21   16   17 1
    22   17   18 2
    23   18   19 1
    24   19   20 2
    25   19   21 1
    26   21   22 1
    27   22   23 1
    28   22   27 1
    29   23   24 1
    30   24   25 1
    31   25   26 1
    32   26   27 1
    33   28   29 2
    34   28   32 1
    35   29   30 1
    36   30   31 1
    37   30   33 1
    38   31   32 2
    39    2   34 1
    40    3   35 1
    41    4   36 1
    42    7   37 1
    43   10   38 1
    44   13   39 1
    45   14   40 1
    46   17   41 1
    47   18   42 1
    48   20   43 1
    49   21   44 1
    50   21   45 1
    51   22   46 1
    52   23   47 1
    53   23   48 1
    54   24   49 1
    55   24   50 1
    56   25   51 1
    57   25   52 1
    58   26   53 1
    59   26   54 1
    60   27   55 1
    61   27   56 1
    62   29   57 1
    63   32   58 1
    64   33   59 1
    65   33   60 1
    66   33   61 1
@<TRIPOS>PROPERTY_DATA
  Total_Score	| 8.3664
  Crash		| -0.7546
  Polar		| 2.8463
  FragIndex	| 1
  FragRMSD	| 0.620

