@<TRIPOS>MOLECULE
BindingDB_50195202
 57 62 0 0 0
SMALL
NO_CHARGES


@<TRIPOS>ATOM
1    C        12.5789   -1.5212   12.0912  C     
2    C        12.0998   -0.3485   11.4479  C     
3    C        12.8952    0.3572   10.5346  C     
4    C        13.9159   -1.9132   11.8426  C     
5    C        14.7276   -1.2062   10.9285  C     
6    C        14.1970   -0.0810   10.2528  C     
7    N        14.9843    0.5580    9.3353  N     
8    C        16.2322    0.1619    9.0850  C     
9    C        16.8173   -0.8965    9.7587  C     
10   C        16.0482   -1.5600   10.6631  C     
11   O        16.8116    0.7666    8.1896  O     
12   C        18.1663   -1.2580    9.5790  C     
13   N        19.1437   -0.4732    9.0419  N     
14   C        18.7686   -2.4859    9.8775  C     
15   C        20.1024   -2.4158    9.4993  C     
16   C        20.2961   -1.1426    8.9702  C     
17   C        21.5549   -0.7478    8.4742  C     
18   C        22.6024   -1.6902    8.5005  C     
19   C        22.4064   -3.0061    9.0202  C     
20   C        21.1356   -3.3544    9.5496  C     
21   C        23.4821   -4.0229    9.0288  C     
22   N        23.0426   -5.2476    8.2810  N     
23   C        22.8559   -5.0540    6.7930  C     
24   C        24.1729   -5.0663    5.9519  C     
25   C        25.0285   -6.3175    6.2799  C     
26   C        25.2493   -6.4599    7.8199  C     
27   C        23.8759   -6.4657    8.5598  C     
28   N        11.7677   -2.2819   12.8854  N     
29   N        12.0765   -3.4053   13.4155  N     
30   C        11.0432   -3.8788   13.9958  C     
31   C        10.0704   -3.0090   13.8120  C     
32   N        10.5423   -2.0431   13.1302  N     
33   H        11.1471   -0.0137   11.6141  H     
34   H        12.5203    1.1798   10.0463  H     
35   H        14.2912   -2.7426   12.3083  H     
36   H        14.6120    1.3012    8.8265  H     
37   H        16.4239   -2.3182   11.1805  H     
38   H        19.0239    0.4555    8.7711  H     
39   H        18.2952   -3.3088   10.2718  H     
40   H        21.7131    0.1858    8.0889  H     
41   H        23.5154   -1.4277    8.1308  H     
42   H        20.9603   -4.2814    9.9359  H     
43   H        24.4323   -3.6231    8.6479  H     
44   H        23.6812   -4.2767   10.0694  H     
45   H        22.1018   -5.4962    8.6517  H     
46   H        22.2203   -5.8700    6.4372  H     
47   H        22.3233   -4.1196    6.5977  H     
48   H        23.9431   -5.0739    4.8813  H     
49   H        24.7486   -4.1582    6.1555  H     
50   H        24.5422   -7.2162    5.8871  H     
51   H        26.0131   -6.2244    5.7978  H     
52   H        25.7750   -7.3965    8.0265  H     
53   H        25.8552   -5.6311    8.1937  H     
54   H        24.0450   -6.5663    9.6396  H     
55   H        23.3141   -7.3415    8.2477  H     
56   H        10.9713   -4.7525   14.4760  H     
57   H         9.1288   -3.0895   14.1277  H     
@<TRIPOS>BOND
     1    1    2 2
     2    1    4 1
     3    1   28 1
     4    2    3 1
     5    3    6 2
     6    4    5 2
     7    5    6 1
     8    5   10 1
     9    6    7 1
    10    7    8 1
    11    8    9 1
    12    8   11 2
    13    9   10 2
    14    9   12 1
    15   12   13 1
    16   12   14 2
    17   13   16 1
    18   14   15 1
    19   15   16 2
    20   15   20 1
    21   16   17 1
    22   17   18 2
    23   18   19 1
    24   19   20 2
    25   19   21 1
    26   21   22 1
    27   22   23 1
    28   22   27 1
    29   23   24 1
    30   24   25 1
    31   25   26 1
    32   26   27 1
    33   28   29 1
    34   28   32 1
    35   29   30 2
    36   30   31 1
    37   31   32 2
    38    2   33 1
    39    3   34 1
    40    4   35 1
    41    7   36 1
    42   10   37 1
    43   13   38 1
    44   14   39 1
    45   17   40 1
    46   18   41 1
    47   20   42 1
    48   21   43 1
    49   21   44 1
    50   22   45 1
    51   23   46 1
    52   23   47 1
    53   24   48 1
    54   24   49 1
    55   25   50 1
    56   25   51 1
    57   26   52 1
    58   26   53 1
    59   27   54 1
    60   27   55 1
    61   30   56 1
    62   31   57 1
@<TRIPOS>PROPERTY_DATA
  Total_Score	| 7.7824
  Crash		| -1.2582
  Polar		| 3.8329
  FragIndex	| 1
  FragRMSD	| 0.855

