@<TRIPOS>MOLECULE
BindingDB_50175493
 45 48 0 0 0
SMALL
NO_CHARGES


@<TRIPOS>ATOM
1    C        17.7732   30.7010   43.0890  C     
2    N        17.0399   31.8246   42.8844  N     
3    C        20.6599   35.6746   39.8248  C     
4    N        20.1815   34.8368   40.7476  N     
5    C        15.7467   31.9823   43.2727  C     
6    N        19.0823   30.5601   42.7488  N     
7    N        17.1644   29.6641   43.7090  N     
8    C        15.1132   33.2190   42.9876  C     
9    C        20.6229   33.6010   41.1432  C     
10   O        21.6049   35.3125   39.1242  O     
11   C        19.6437   32.7242   41.6602  C     
12   C        19.9667   31.4508   42.1920  C     
13   C        20.0319   36.8993   39.5649  C     
14   N        13.7923   35.1147   43.6655  N     
15   C        15.1298   30.9048   43.9456  C     
16   C        15.8783   29.7249   44.1395  C     
17   C        14.3200   33.8935   43.9485  C     
18   C        22.3177   31.9061   41.6426  C     
19   C        15.3124   33.8619   41.7387  C     
20   C        13.9702   35.7396   42.4713  C     
21   C        21.9693   33.1754   41.1466  C     
22   C        21.3287   31.0647   42.1758  C     
23   C        20.3264   37.6438   38.3913  C     
24   C        19.0851   37.4631   40.4656  C     
25   C        14.7417   35.1188   41.4738  C     
26   C        18.4248   38.6692   40.1786  C     
27   C        19.6743   38.8574   38.1096  C     
28   C        18.7182   39.3713   39.0008  C     
29   H        19.3427   35.1113   41.1470  H     
30   H        19.4600   29.6952   42.9801  H     
31   H        18.6817   33.0365   41.6271  H     
32   H        14.1632   30.9549   44.2749  H     
33   H        15.4639   28.9161   44.5965  H     
34   H        14.1654   33.4992   44.8787  H     
35   H        23.2941   31.6007   41.6439  H     
36   H        15.8825   33.4165   41.0084  H     
37   H        13.5643   36.6655   42.3181  H     
38   H        22.7106   33.7971   40.8263  H     
39   H        21.6095   30.1586   42.5563  H     
40   H        21.0068   37.3004   37.7067  H     
41   H        18.8611   37.0005   41.3455  H     
42   H        14.8955   35.5835   40.5753  H     
43   H        17.7361   39.0388   40.8399  H     
44   H        19.8905   39.3658   37.2463  H     
45   H        18.2477   40.2546   38.7954  H     
@<TRIPOS>BOND
     1    1    2 1
     2    1    6 1
     3    1    7 2
     4    2    5 2
     5    3    4 am
     6    3   10 2
     7    3   13 1
     8    4    9 1
     9    5    8 1
    10    5   15 1
    11    6   12 1
    12    7   16 1
    13    8   17 1
    14    8   19 2
    15    9   11 2
    16    9   21 1
    17   11   12 1
    18   12   22 2
    19   13   23 2
    20   13   24 1
    21   14   17 2
    22   14   20 1
    23   15   16 2
    24   18   21 2
    25   18   22 1
    26   19   25 1
    27   20   25 2
    28   23   27 1
    29   24   26 2
    30   26   28 1
    31   27   28 2
    32    4   29 1
    33    6   30 1
    34   11   31 1
    35   15   32 1
    36   16   33 1
    37   17   34 1
    38   18   35 1
    39   19   36 1
    40   20   37 1
    41   21   38 1
    42   22   39 1
    43   23   40 1
    44   24   41 1
    45   25   42 1
    46   26   43 1
    47   27   44 1
    48   28   45 1
@<TRIPOS>PROPERTY_DATA
  Total_Score	| 8.0465
  Crash		| -1.0985
  Polar		| 2.1515
  FragIndex	| 1
  FragRMSD	| 0.297

