@<TRIPOS>MOLECULE
BindingDB_50290422
 67 71 0 0 0
SMALL
NO_CHARGES


@<TRIPOS>ATOM
1    C        17.7672   30.6422   43.1867  C     
2    N        17.0424   31.7715   42.9813  N     
3    C        20.6764   35.7118   40.0353  C     
4    N        20.0939   34.6828   40.6408  N     
5    C        15.7378   31.9210   43.3211  C     
6    N        16.1725   40.4214   39.1558  N     
7    N        13.4702   41.5827   39.6170  N     
8    N        19.0724   30.4916   42.8546  N     
9    N        17.1354   29.5977   43.7773  N     
10   C        19.9093   36.8196   39.7193  C     
11   C        15.1107   33.1511   43.0049  C     
12   C        20.5809   33.4822   41.1155  C     
13   O        21.8812   35.7599   39.7780  O     
14   C        19.6130   32.6009   41.6478  C     
15   C        19.9548   31.3637   42.2588  C     
16   N        13.8253   35.0916   43.6169  N     
17   C        17.6156   40.3969   38.7214  C     
18   C        19.8106   37.2735   38.3824  C     
19   C        19.2134   37.5421   40.7246  C     
20   C        15.9202   41.3582   40.2970  C     
21   C        15.2182   40.6597   38.0152  C     
22   C        13.7328   40.6476   38.4770  C     
23   C        14.4268   41.3357   40.7411  C     
24   C        15.0927   30.8260   43.9385  C     
25   C        15.8345   29.6529   44.1531  C     
26   C        18.3338   39.1311   39.0629  C     
27   C        18.4476   38.6796   40.4020  C     
28   C        19.0252   38.3980   38.0599  C     
29   C        14.3524   33.8849   43.9446  C     
30   C        13.3722   43.0219   39.2069  C     
31   C        22.2994   31.8226   41.7107  C     
32   C        15.2627   33.7171   41.7068  C     
33   C        13.9732   35.6470   42.3838  C     
34   C        21.9397   33.0648   41.1550  C     
35   C        21.3140   30.9904   42.2653  C     
36   C        14.7081   34.9639   41.3979  C     
37   H        19.1311   34.7871   40.7508  H     
38   H        15.9525   39.4788   39.4930  H     
39   H        12.5407   41.3394   39.9771  H     
40   H        19.4496   29.6304   43.1056  H     
41   H        18.6355   32.8791   41.5891  H     
42   H        17.6902   40.5411   37.6342  H     
43   H        18.1708   41.2368   39.1467  H     
44   H        20.3061   36.7784   37.6258  H     
45   H        19.2984   37.2692   41.7104  H     
46   H        16.5335   41.0579   41.1544  H     
47   H        16.1833   42.3867   40.0167  H     
48   H        15.4384   41.6138   37.5250  H     
49   H        15.3324   39.8617   37.2705  H     
50   H        13.4787   39.6343   38.8067  H     
51   H        13.0840   40.8914   37.6286  H     
52   H        14.2766   42.0634   41.5408  H     
53   H        14.2040   40.3557   41.1694  H     
54   H        14.0979   30.8597   44.1895  H     
55   H        15.3967   28.8278   44.5691  H     
56   H        17.9973   39.2156   41.1519  H     
57   H        18.9810   38.6929   37.0794  H     
58   H        14.2233   33.5412   44.9003  H     
59   H        14.2990   43.3895   38.7587  H     
60   H        13.1313   43.6446   40.0726  H     
61   H        12.5635   43.1384   38.4816  H     
62   H        23.2827   31.5403   41.7235  H     
63   H        15.8006   33.2261   40.9901  H     
64   H        13.5679   36.5657   42.1859  H     
65   H        22.6823   33.6503   40.7756  H     
66   H        21.6118   30.0991   42.6815  H     
67   H        14.8347   35.3740   40.4670  H     
@<TRIPOS>BOND
     1    1    2 1
     2    1    8 1
     3    1    9 2
     4    2    5 2
     5    3    4 am
     6    3   10 1
     7    3   13 2
     8    4   12 1
     9    5   11 1
    10    5   24 1
    11    6   17 1
    12    6   20 1
    13    6   21 1
    14    7   22 1
    15    7   23 1
    16    7   30 1
    17    8   15 1
    18    9   25 1
    19   10   18 1
    20   10   19 2
    21   11   29 1
    22   11   32 2
    23   12   14 2
    24   12   34 1
    25   14   15 1
    26   15   35 2
    27   16   29 2
    28   16   33 1
    29   17   26 1
    30   18   28 2
    31   19   27 1
    32   20   23 1
    33   21   22 1
    34   24   25 2
    35   26   27 2
    36   26   28 1
    37   31   34 2
    38   31   35 1
    39   32   36 1
    40   33   36 2
    41    4   37 1
    42    6   38 1
    43    7   39 1
    44    8   40 1
    45   14   41 1
    46   17   42 1
    47   17   43 1
    48   18   44 1
    49   19   45 1
    50   20   46 1
    51   20   47 1
    52   21   48 1
    53   21   49 1
    54   22   50 1
    55   22   51 1
    56   23   52 1
    57   23   53 1
    58   24   54 1
    59   25   55 1
    60   27   56 1
    61   28   57 1
    62   29   58 1
    63   30   59 1
    64   30   60 1
    65   30   61 1
    66   31   62 1
    67   32   63 1
    68   33   64 1
    69   34   65 1
    70   35   66 1
    71   36   67 1
@<TRIPOS>PROPERTY_DATA
  Total_Score	| 10.3176
  Crash		| -1.9247
  Polar		| 2.0211
  FragIndex	| 1
  FragRMSD	| 0.595

