@<TRIPOS>MOLECULE
BindingDB_50175491
 51 54 0 0 0
SMALL
NO_CHARGES


@<TRIPOS>ATOM
1    C        17.7264   30.7956   43.0007  C     
2    N        16.9253   31.8143   42.5990  N     
3    C        24.1925   30.5355   41.8215  C     
4    C        19.9180   31.5952   42.1396  C     
5    N        19.0570   30.7270   42.7683  N     
6    N        23.4387   31.2086   40.9516  N     
7    C        15.6337   31.9536   43.0022  C     
8    C        21.1790   31.0245   41.8464  C     
9    N        17.1800   29.8140   43.7631  N     
10   C        25.3890   29.9069   41.4478  C     
11   C        22.1971   31.7405   41.1795  C     
12   C        14.9891   33.1882   42.7341  C     
13   C        19.7160   32.9743   41.8194  C     
14   O        23.8314   30.4711   42.9925  O     
15   N        13.9530   35.2099   43.5334  N     
16   C        25.6985   29.6467   40.0891  C     
17   C        26.3019   29.4296   42.4233  C     
18   C        20.6833   33.6397   41.0265  C     
19   C        15.0738   30.9395   43.8110  C     
20   C        15.8822   29.8432   44.1551  C     
21   C        21.9044   33.0287   40.7001  C     
22   C        27.4382   28.6842   42.0629  C     
23   C        26.8248   28.8830   39.7262  C     
24   C        27.6970   28.3756   40.7121  C     
25   C        14.4258   33.9613   43.7778  C     
26   C        15.0153   33.7619   41.4406  C     
27   C        13.9784   35.7740   42.3003  C     
28   C        18.6350   33.8182   42.3999  C     
29   C        28.8579   27.5258   40.3642  C     
30   C        14.5060   35.0534   41.2162  C     
31   H        19.4656   29.8951   43.0634  H     
32   H        23.8379   31.4106   40.0900  H     
33   H        21.3656   30.0519   42.1083  H     
34   H        25.0790   29.9653   39.3410  H     
35   H        26.1388   29.6012   43.4193  H     
36   H        20.5345   34.6085   40.7310  H     
37   H        14.1088   30.9904   44.1464  H     
38   H        15.5100   29.0820   44.7231  H     
39   H        22.6052   33.5553   40.1728  H     
40   H        28.0606   28.3397   42.7984  H     
41   H        26.9934   28.6870   38.7369  H     
42   H        14.4065   33.6169   44.7398  H     
43   H        15.4171   33.2466   40.6522  H     
44   H        13.6184   36.7209   42.1676  H     
45   H        17.7948   33.8852   41.7164  H     
46   H        18.9790   34.8386   42.5830  H     
47   H        18.2864   33.4162   43.3561  H     
48   H        29.7832   28.0438   40.6170  H     
49   H        28.8800   27.2749   39.3044  H     
50   H        28.8083   26.5948   40.9314  H     
51   H        14.5279   35.4660   40.2811  H     
@<TRIPOS>BOND
     1    1    2 1
     2    1    5 1
     3    1    9 2
     4    2    7 2
     5    3    6 am
     6    3   10 1
     7    3   14 2
     8    4    5 1
     9    4    8 1
    10    4   13 2
    11    6   11 1
    12    7   12 1
    13    7   19 1
    14    8   11 2
    15    9   20 1
    16   10   16 2
    17   10   17 1
    18   11   21 1
    19   12   25 1
    20   12   26 2
    21   13   18 1
    22   13   28 1
    23   15   25 2
    24   15   27 1
    25   16   23 1
    26   17   22 2
    27   18   21 2
    28   19   20 2
    29   22   24 1
    30   23   24 2
    31   24   29 1
    32   26   30 1
    33   27   30 2
    34    5   31 1
    35    6   32 1
    36    8   33 1
    37   16   34 1
    38   17   35 1
    39   18   36 1
    40   19   37 1
    41   20   38 1
    42   21   39 1
    43   22   40 1
    44   23   41 1
    45   25   42 1
    46   26   43 1
    47   27   44 1
    48   28   45 1
    49   28   46 1
    50   28   47 1
    51   29   48 1
    52   29   49 1
    53   29   50 1
    54   30   51 1
@<TRIPOS>PROPERTY_DATA
  Total_Score	| 7.9039
  Crash		| -1.9262
  Polar		| 3.2755
  FragIndex	| 1
  FragRMSD	| 0.214

