@<TRIPOS>MOLECULE
BindingDB_13530
 70 74 0 0 0
SMALL
NO_CHARGES


@<TRIPOS>ATOM
1    C        20.4272   35.9379   39.8004  C     
2    O        21.2784   35.6301   38.9732  O     
3    C        19.6848   37.1121   39.6421  C     
4    C        19.1711   37.8013   40.7689  C     
5    C        19.3863   37.6358   38.3600  C     
6    C        18.3694   38.9454   40.6242  C     
7    C        18.5777   38.7802   38.2125  C     
8    C        18.0523   39.4450   39.3441  C     
9    N        20.0963   35.0921   40.7700  N     
10   C        17.2153   40.6650   39.1892  C     
11   N        15.8615   40.3969   38.5953  N     
12   N        13.6200   41.4183   40.2221  N     
13   C        14.5008   42.3619   39.4689  C     
14   C        14.9818   39.4787   39.3899  C     
15   C        14.3327   40.1656   40.6211  C     
16   C        15.1191   41.6477   38.2361  C     
17   C        12.9373   42.0707   41.3738  C     
18   C        20.1222   31.6636   42.1058  C     
19   C        21.5156   31.3592   42.0503  C     
20   C        22.4238   32.3009   41.5048  C     
21   C        21.9846   33.5488   41.0391  C     
22   C        20.6174   33.8777   41.0989  C     
23   C        19.7128   32.9307   41.6197  C     
24   C        22.0634   30.0881   42.5897  C     
25   N        19.2501   30.7310   42.6400  N     
26   N        17.3829   29.7461   43.6271  N     
27   N        17.1633   31.9043   42.8004  N     
28   C        17.9440   30.8151   42.9986  C     
29   C        15.2948   30.8847   43.8820  C     
30   C        16.0976   29.7439   44.0677  C     
31   C        15.8620   31.9866   43.2012  C     
32   N        13.8510   35.0643   43.6683  N     
33   C        13.9915   35.7011   42.4789  C     
34   C        14.3985   33.8465   43.9204  C     
35   C        15.1722   33.1933   42.9331  C     
36   C        14.7240   35.0937   41.4460  C     
37   C        15.3180   33.8405   41.6832  C     
38   H        19.4012   37.4927   41.7159  H     
39   H        19.7324   37.1710   37.5158  H     
40   H        18.0349   39.4210   41.4646  H     
41   H        18.3688   39.1195   37.2699  H     
42   H        19.3012   35.3301   41.2746  H     
43   H        17.7752   41.3462   38.5425  H     
44   H        17.0961   41.1786   40.1491  H     
45   H        16.0378   39.9183   37.7084  H     
46   H        12.8815   41.1366   39.5716  H     
47   H        13.9154   43.2161   39.1147  H     
48   H        15.2971   42.7490   40.1130  H     
49   H        15.5320   38.5936   39.7200  H     
50   H        14.1800   39.1215   38.7356  H     
51   H        15.1010   40.3844   41.3685  H     
52   H        13.6248   39.4622   41.0659  H     
53   H        15.7747   42.3382   37.7009  H     
54   H        14.3102   41.3885   37.5464  H     
55   H        13.6532   42.3720   42.1432  H     
56   H        12.2110   41.3855   41.8162  H     
57   H        12.3963   42.9573   41.0422  H     
58   H        23.4264   32.0985   41.4581  H     
59   H        22.6688   34.2321   40.7054  H     
60   H        18.7299   33.1910   41.6391  H     
61   H        21.7544   29.9652   43.6291  H     
62   H        23.1557   30.0434   42.5584  H     
63   H        21.6757   29.2585   42.0046  H     
64   H        19.6422   29.8682   42.8384  H     
65   H        14.3251   30.8943   44.2190  H     
66   H        15.7266   28.9134   44.5395  H     
67   H        13.5760   36.6266   42.3433  H     
68   H        14.2796   33.4418   44.8526  H     
69   H        14.8370   35.5608   40.5423  H     
70   H        15.8656   33.4086   40.9326  H     
@<TRIPOS>BOND
     1    1    2 2
     2    1    3 1
     3    1    9 am
     4    3    4 2
     5    3    5 1
     6    4    6 1
     7    5    7 2
     8    6    8 2
     9    7    8 1
    10    8   10 1
    11    9   22 1
    12   10   11 1
    13   11   14 1
    14   11   16 1
    15   12   13 1
    16   12   15 1
    17   12   17 1
    18   13   16 1
    19   14   15 1
    20   18   19 1
    21   18   23 2
    22   18   25 1
    23   19   20 2
    24   19   24 1
    25   20   21 1
    26   21   22 2
    27   22   23 1
    28   25   28 1
    29   26   28 2
    30   26   30 1
    31   27   28 1
    32   27   31 2
    33   29   30 2
    34   29   31 1
    35   31   35 1
    36   32   33 2
    37   32   34 1
    38   33   36 1
    39   34   35 2
    40   35   37 1
    41   36   37 2
    42    4   38 1
    43    5   39 1
    44    6   40 1
    45    7   41 1
    46    9   42 1
    47   10   43 1
    48   10   44 1
    49   11   45 1
    50   12   46 1
    51   13   47 1
    52   13   48 1
    53   14   49 1
    54   14   50 1
    55   15   51 1
    56   15   52 1
    57   16   53 1
    58   16   54 1
    59   17   55 1
    60   17   56 1
    61   17   57 1
    62   20   58 1
    63   21   59 1
    64   23   60 1
    65   24   61 1
    66   24   62 1
    67   24   63 1
    68   25   64 1
    69   29   65 1
    70   30   66 1
    71   33   67 1
    72   34   68 1
    73   36   69 1
    74   37   70 1
@<TRIPOS>PROPERTY_DATA
  Total_Score	| 9.8417
  Crash		| -3.5041
  Polar		| 2.1735
  FragIndex	| 1
  FragRMSD	| 0.270

