@<TRIPOS>MOLECULE
BindingDB_50385916
 66 69 0 0 0
SMALL
NO_CHARGES


@<TRIPOS>ATOM
1    C         1.6714   -7.2534    8.2547  C     
2    C         1.8081   -8.6123    8.6070  C     
3    C         2.5452   -8.9051    9.7793  C     
4    C         3.0774   -7.8862   10.6113  C     
5    C         2.8352   -6.5422   10.2176  C     
6    N         2.1749   -6.2875    9.0582  N     
7    N         3.1883   -5.4696   10.9516  N     
8    C         3.7937   -8.2187   11.8023  C     
9    C         3.2949   -9.2009   12.6839  C     
10   C         3.9411   -9.4996   13.9051  C     
11   C         5.1598   -8.8535   14.2503  C     
12   C         5.6763   -7.8909   13.3470  C     
13   C         5.0142   -7.5848   12.1446  C     
14   C         5.8499   -9.1339   15.4340  C     
15   O         6.7169   -8.3798   15.8526  O     
16   N         5.6428  -10.2054   16.1730  N     
17   O         3.3782  -10.4378   14.7340  O     
18   C         2.0364  -10.2199   15.2406  C     
19   C         1.6736  -11.5563   15.8578  C     
20   C         1.9510   -8.8468   15.9751  C     
21   C         1.4411  -12.5617   14.8720  C     
22   C         1.2225  -13.9081   15.1942  C     
23   C         1.2455  -14.3069   16.5338  C     
24   C         1.4683  -13.3531   17.5357  C     
25   C         1.6521  -11.9715   17.2402  C     
26   C         1.8079  -11.0424   18.4096  C     
27   F         1.7480  -11.6201   19.6593  F     
28   F         3.0595  -10.4587   18.4127  F     
29   F         0.7764  -10.1260   18.4086  F     
30   C         1.2054   -9.6362    7.8365  C     
31   C         0.9442   -9.6455    6.4593  C     
32   C         0.3250  -10.8138    5.9692  C     
33   C         0.0518  -11.7609    6.9586  C     
34   S         0.6321  -11.1393    8.4532  S     
35   C         0.0059  -11.0442    4.5323  C     
36   N        -0.8114   -9.9738    3.8664  N     
37   C        -1.5707  -10.5108    2.7034  C     
38   C        -1.6918   -9.1956    4.7974  C     
39   H         1.1682   -6.9675    7.4148  H     
40   H         2.7094   -9.8828   10.0333  H     
41   H         3.0092   -4.5730   10.6264  H     
42   H         3.6216   -5.5799   11.8135  H     
43   H         2.4194   -9.6820   12.4643  H     
44   H         6.5501   -7.4017   13.5501  H     
45   H         5.4347   -6.8994   11.5103  H     
46   H         6.1260  -10.3266   17.0053  H     
47   H         5.0087  -10.8758   15.8829  H     
48   H         1.3440  -10.0761   14.3992  H     
49   H         2.5948   -8.7951   16.8435  H     
50   H         0.9297   -8.6586   16.2757  H     
51   H         2.2453   -8.0282   15.3087  H     
52   H         1.4541  -12.3265   13.8736  H     
53   H         1.0656  -14.6004   14.4593  H     
54   H         1.1111  -15.2923   16.7759  H     
55   H         1.5019  -13.7016   18.4985  H     
56   H         1.1986   -8.8737    5.8421  H     
57   H        -0.3720  -12.6850    6.8268  H     
58   H         0.9732  -11.1082    4.0193  H     
59   H        -0.4871  -12.0150    4.4132  H     
60   H        -0.1344   -9.3209    3.4646  H     
61   H        -0.8911  -10.9930    1.9924  H     
62   H        -2.0735   -9.6937    2.1692  H     
63   H        -2.3236  -11.2384    3.0242  H     
64   H        -2.3464   -8.5023    4.2440  H     
65   H        -1.0811   -8.5975    5.4794  H     
66   H        -2.3229   -9.8791    5.3893  H     
@<TRIPOS>BOND
     1    1    2 2
     2    1    6 1
     3    2    3 1
     4    2   30 1
     5    3    4 2
     6    4    5 1
     7    4    8 1
     8    5    6 2
     9    5    7 1
    10    8    9 2
    11    8   13 1
    12    9   10 1
    13   10   11 2
    14   10   17 1
    15   11   12 1
    16   11   14 1
    17   12   13 2
    18   14   15 2
    19   14   16 am
    20   17   18 1
    21   18   19 1
    22   18   20 1
    23   19   21 2
    24   19   25 1
    25   21   22 1
    26   22   23 2
    27   23   24 1
    28   24   25 2
    29   25   26 1
    30   26   27 1
    31   26   28 1
    32   26   29 1
    33   30   31 2
    34   30   34 1
    35   31   32 1
    36   32   33 2
    37   32   35 1
    38   33   34 1
    39   35   36 1
    40   36   37 1
    41   36   38 1
    42    1   39 1
    43    3   40 1
    44    7   41 1
    45    7   42 1
    46    9   43 1
    47   12   44 1
    48   13   45 1
    49   16   46 1
    50   16   47 1
    51   18   48 1
    52   20   49 1
    53   20   50 1
    54   20   51 1
    55   21   52 1
    56   22   53 1
    57   23   54 1
    58   24   55 1
    59   31   56 1
    60   33   57 1
    61   35   58 1
    62   35   59 1
    63   36   60 1
    64   37   61 1
    65   37   62 1
    66   37   63 1
    67   38   64 1
    68   38   65 1
    69   38   66 1
@<TRIPOS>PROPERTY_DATA
  Total_Score	| 12.4970
  Crash		| -1.6430
  Polar		| 4.4937
  FragIndex	| 1
  FragRMSD	| 0.120

