@<TRIPOS>MOLECULE
BindingDB_50385913
 69 72 0 0 0
SMALL
NO_CHARGES


@<TRIPOS>ATOM
1    C         1.5471   -7.4335    8.1266  C     
2    C         1.5985   -8.7588    8.6225  C     
3    C         2.2594   -8.9189    9.8785  C     
4    C         2.7604   -7.8174   10.6323  C     
5    C         2.6442   -6.5384   10.0474  C     
6    N         2.0605   -6.3970    8.8315  N     
7    C         0.9864   -9.8678    7.9347  C     
8    C         0.4005  -10.9315    8.6810  C     
9    C        -0.2286  -12.0137    8.0577  C     
10   C        -0.3251  -12.0457    6.6563  C     
11   C         0.1780  -10.9861    5.8705  C     
12   C         0.8573   -9.9252    6.5152  C     
13   N         3.0691   -5.4158   10.6670  N     
14   C         3.3872   -8.0707   11.8818  C     
15   C         2.6929   -8.6594   12.9620  C     
16   C         3.4068   -9.1842   14.0697  C     
17   C         4.8029   -8.9324   14.2116  C     
18   C         5.4545   -8.2088   13.1826  C     
19   C         4.7759   -7.8218   12.0100  C     
20   C         5.5461   -9.3310   15.3299  C     
21   O         6.6157   -8.7808   15.6117  O     
22   N         5.1655  -10.2221   16.2245  N     
23   O         2.7521   -9.9050   15.0297  O     
24   C         1.7002  -10.8294   14.6578  C     
25   C         2.0629  -11.9359   13.7183  C     
26   C         1.1696  -11.4259   15.9948  C     
27   C         3.3288  -12.5359   13.8907  C     
28   C         3.7650  -13.5780   13.0578  C     
29   C         2.9278  -14.0534   12.0444  C     
30   C         1.6578  -13.4819   11.8648  C     
31   C         1.1867  -12.4308   12.6984  C     
32   C        -0.1995  -11.8922   12.4559  C     
33   F        -0.9490  -12.5701   11.5171  F     
34   F        -0.9521  -11.9246   13.6055  F     
35   F        -0.1347  -10.6009   11.9932  F     
36   C         0.0173  -11.0495    4.3863  C     
37   N        -0.8721  -10.0147    3.7600  N     
38   C        -1.7028  -10.5990    2.6681  C     
39   C        -1.6870   -9.2138    4.7223  C     
40   H         1.0762   -7.2246    7.2422  H     
41   H         2.3975   -9.8568   10.2646  H     
42   H         0.4050  -10.9299    9.7105  H     
43   H        -0.6172  -12.7791    8.6129  H     
44   H        -0.8120  -12.8441    6.2328  H     
45   H         1.2936   -9.2103    5.9370  H     
46   H         2.9720   -4.5545   10.2297  H     
47   H         3.4379   -5.4641   11.5559  H     
48   H         1.6659   -8.6952   12.9951  H     
49   H         6.4556   -7.9859   13.2441  H     
50   H         5.3143   -7.3761   11.2606  H     
51   H         5.7260  -10.4234   16.9864  H     
52   H         4.3278  -10.7018   16.1107  H     
53   H         0.9214  -10.2364   14.1839  H     
54   H         1.9644  -11.9425   16.5396  H     
55   H         0.3499  -12.1399   15.8393  H     
56   H         0.7871  -10.6293   16.6496  H     
57   H         3.9646  -12.2172   14.6292  H     
58   H         4.6932  -13.9969   13.1862  H     
59   H         3.2362  -14.8019   11.4293  H     
60   H         1.0734  -13.8534   11.1086  H     
61   H         1.0167  -10.9444    3.9501  H     
62   H        -0.3502  -12.0450    4.0991  H     
63   H        -0.2352   -9.3669    3.2936  H     
64   H        -1.0912  -11.2004    1.9950  H     
65   H        -2.1621   -9.8129    2.0731  H     
66   H        -2.4931  -11.2357    3.0688  H     
67   H        -2.2847   -9.8614    5.3776  H     
68   H        -2.3681   -8.5355    4.1829  H     
69   H        -1.0048   -8.6095    5.3371  H     
@<TRIPOS>BOND
     1    1    2 2
     2    1    6 1
     3    2    3 1
     4    2    7 1
     5    3    4 2
     6    4    5 1
     7    4   14 1
     8    5    6 2
     9    5   13 1
    10    7    8 2
    11    7   12 1
    12    8    9 1
    13    9   10 2
    14   10   11 1
    15   11   12 2
    16   11   36 1
    17   14   15 2
    18   14   19 1
    19   15   16 1
    20   16   17 2
    21   16   23 1
    22   17   18 1
    23   17   20 1
    24   18   19 2
    25   20   21 2
    26   20   22 am
    27   23   24 1
    28   24   25 1
    29   24   26 1
    30   25   27 2
    31   25   31 1
    32   27   28 1
    33   28   29 2
    34   29   30 1
    35   30   31 2
    36   31   32 1
    37   32   33 1
    38   32   34 1
    39   32   35 1
    40   36   37 1
    41   37   38 1
    42   37   39 1
    43    1   40 1
    44    3   41 1
    45    8   42 1
    46    9   43 1
    47   10   44 1
    48   12   45 1
    49   13   46 1
    50   13   47 1
    51   15   48 1
    52   18   49 1
    53   19   50 1
    54   22   51 1
    55   22   52 1
    56   24   53 1
    57   26   54 1
    58   26   55 1
    59   26   56 1
    60   27   57 1
    61   28   58 1
    62   29   59 1
    63   30   60 1
    64   36   61 1
    65   36   62 1
    66   37   63 1
    67   38   64 1
    68   38   65 1
    69   38   66 1
    70   39   67 1
    71   39   68 1
    72   39   69 1
@<TRIPOS>PROPERTY_DATA
  Total_Score	| 11.2586
  Crash		| -1.4067
  Polar		| 4.6374
  FragIndex	| 1
  FragRMSD	| 0.443

