@<TRIPOS>MOLECULE
BindingDB_50385914
 60 62 0 0 0
SMALL
NO_CHARGES


@<TRIPOS>ATOM
1    C         1.6417   -7.2916    8.1803  C     
2    C         1.7168   -8.6489    8.5640  C     
3    C         2.4009   -8.9239    9.7750  C     
4    C         2.9347   -7.8949   10.5944  C     
5    C         2.7648   -6.5603   10.1502  C     
6    N         2.1550   -6.3172    8.9672  N     
7    N         3.1446   -5.4839   10.8652  N     
8    C         3.6166   -8.2249   11.8094  C     
9    C         3.0211   -9.0745   12.7675  C     
10   C         3.7013   -9.4399   13.9497  C     
11   C         5.0161   -8.9641   14.2019  C     
12   C         5.5949   -8.0897   13.2490  C     
13   C         4.9168   -7.7395   12.0690  C     
14   C         5.7663   -9.3480   15.3157  C     
15   O         6.6302   -8.6176   15.7809  O     
16   N         5.6015  -10.5043   15.9260  N     
17   O         3.0577  -10.3087   14.7942  O     
18   C         2.2174   -9.7452   15.8340  C     
19   C         3.0174   -9.6963   17.0597  C     
20   C         0.9113  -10.5722   15.7539  C     
21   C         1.0983   -9.6830    7.7905  C     
22   C         0.4506   -9.5916    6.5416  C     
23   C        -0.1552  -10.7744    6.0596  C     
24   C         0.0140  -11.8667    6.9157  C     
25   S         0.8989  -11.3241    8.2809  S     
26   C        -0.9801  -10.8372    4.8242  C     
27   N        -0.2005  -10.8946    3.5446  N     
28   C         0.6374  -12.1198    3.4035  C     
29   C        -1.0665  -10.6962    2.3443  C     
30   C         2.9434  -10.3085   18.2575  C     
31   C         1.8822  -11.1235   18.8168  C     
32   F         2.2035  -11.5518   20.0880  F     
33   F         0.7349  -10.3833   18.9399  F     
34   F         1.6449  -12.2555   18.0743  F     
35   H         1.1897   -7.0038    7.3153  H     
36   H         2.5316   -9.8948   10.0736  H     
37   H         3.0214   -4.5888   10.5144  H     
38   H         3.5425   -5.5890   11.7429  H     
39   H         2.0743   -9.4332   12.6085  H     
40   H         6.5458   -7.7347   13.3799  H     
41   H         5.3960   -7.1453   11.3867  H     
42   H         6.1175  -10.7177   16.7194  H     
43   H         4.9470  -11.1365   15.5881  H     
44   H         1.9282   -8.7083   15.6114  H     
45   H         3.7835   -9.0677   16.9885  H     
46   H         0.4179  -10.3912   14.7922  H     
47   H         0.2112  -10.2750   16.5391  H     
48   H         1.1339  -11.6433   15.8350  H     
49   H         0.3904   -8.7192    6.0117  H     
50   H        -0.3465  -12.8114    6.7854  H     
51   H        -1.6573  -11.6964    4.8683  H     
52   H        -1.6127   -9.9472    4.8314  H     
53   H         0.4484  -10.1080    3.5370  H     
54   H         1.3098  -12.2301    4.2545  H     
55   H         1.2668  -12.0477    2.5085  H     
56   H         0.0173  -13.0211    3.3266  H     
57   H        -1.7992  -11.5036    2.2424  H     
58   H        -0.4568  -10.6596    1.4372  H     
59   H        -1.6013   -9.7459    2.4116  H     
60   H         3.6991  -10.1173   18.8796  H     
@<TRIPOS>BOND
     1    1    2 2
     2    1    6 1
     3    2    3 1
     4    2   21 1
     5    3    4 2
     6    4    5 1
     7    4    8 1
     8    5    6 2
     9    5    7 1
    10    8    9 2
    11    8   13 1
    12    9   10 1
    13   10   11 2
    14   10   17 1
    15   11   12 1
    16   11   14 1
    17   12   13 2
    18   14   15 2
    19   14   16 am
    20   17   18 1
    21   18   19 1
    22   18   20 1
    23   19   30 2
    24   21   22 2
    25   21   25 1
    26   22   23 1
    27   23   24 2
    28   23   26 1
    29   24   25 1
    30   26   27 1
    31   27   28 1
    32   27   29 1
    33   30   31 1
    34   31   32 1
    35   31   33 1
    36   31   34 1
    37    1   35 1
    38    3   36 1
    39    7   37 1
    40    7   38 1
    41    9   39 1
    42   12   40 1
    43   13   41 1
    44   16   42 1
    45   16   43 1
    46   18   44 1
    47   19   45 1
    48   20   46 1
    49   20   47 1
    50   20   48 1
    51   22   49 1
    52   24   50 1
    53   26   51 1
    54   26   52 1
    55   27   53 1
    56   28   54 1
    57   28   55 1
    58   28   56 1
    59   29   57 1
    60   29   58 1
    61   29   59 1
    62   30   60 1
@<TRIPOS>PROPERTY_DATA
  Total_Score	| 12.0211
  Crash		| -1.1965
  Polar		| 4.3450
  FragIndex	| 1
  FragRMSD	| 0.504

