@<TRIPOS>MOLECULE
BindingDB_50385923
 69 72 0 0 0
SMALL
NO_CHARGES


@<TRIPOS>ATOM
1    C         1.7325   -7.0864    8.2328  C     
2    C         1.8148   -8.4702    8.5162  C     
3    C         2.5060   -8.8272    9.7040  C     
4    C         3.0518   -7.8609   10.5913  C     
5    C         2.8793   -6.4921   10.2426  C     
6    N         2.2607   -6.1729    9.0804  N     
7    N         3.2504   -5.4530   11.0116  N     
8    C         3.7069   -8.2655   11.8001  C     
9    C         3.0215   -9.0394   12.7710  C     
10   C         3.5920   -9.3653   14.0193  C     
11   C         4.9321   -8.9749   14.3071  C     
12   C         5.6320   -8.2219   13.3231  C     
13   C         5.0388   -7.8793   12.0932  C     
14   C         5.5677   -9.2941   15.5120  C     
15   O         6.6369   -8.7915   15.8432  O     
16   N         5.0972  -10.1993   16.3562  N     
17   O         2.8312   -9.9947   15.0008  O     
18   C         1.6876  -10.8335   14.6841  C     
19   C         2.0298  -11.9388   13.7092  C     
20   C         1.2148  -11.4433   16.0329  C     
21   C         3.2962  -12.5657   13.8508  C     
22   C         3.6609  -13.6745   13.0720  C     
23   C         2.7818  -14.1598   12.0982  C     
24   C         1.5502  -13.5169   11.8953  C     
25   C         1.1279  -12.4274   12.7065  C     
26   C        -0.2294  -11.8321   12.4411  C     
27   F        -1.0401  -12.5818   11.6153  F     
28   F        -0.9748  -11.6908   13.5860  F     
29   F        -0.0903  -10.6103   11.8312  F     
30   C         1.2165   -9.4343    7.6417  C     
31   C         1.0481  -10.8098    7.8564  C     
32   C         0.4135  -11.5383    6.8238  C     
33   C         0.0360  -10.7628    5.7115  C     
34   S         0.5250   -9.1531    6.0839  S     
35   C        -0.6009  -11.2318    4.4521  C     
36   N        -1.0223  -10.1745    3.4699  N     
37   C        -1.3000  -10.7374    2.1149  C     
38   C        -2.1786   -9.3522    3.9445  C     
39   C         0.1429  -12.9784    6.9898  C     
40   H         1.2575   -6.7476    7.4000  H     
41   H         2.6502   -9.8178    9.9282  H     
42   H         3.1102   -4.5453   10.6934  H     
43   H         3.6305   -5.5907   11.8892  H     
44   H         2.0599   -9.3462   12.6139  H     
45   H         6.6054   -7.9350   13.4692  H     
46   H         5.5780   -7.3451   11.4075  H     
47   H         5.5371  -10.3627   17.1994  H     
48   H         4.2885  -10.6840   16.1369  H     
49   H         0.8960  -10.1728   14.2811  H     
50   H         1.9649  -12.1041   16.4679  H     
51   H         0.2939  -12.0090   15.9031  H     
52   H         1.0285  -10.6451   16.7526  H     
53   H         3.9782  -12.2297   14.5372  H     
54   H         4.5618  -14.1329   13.2217  H     
55   H         3.0306  -14.9770   11.5388  H     
56   H         0.9602  -13.8669   11.1389  H     
57   H         1.3590  -11.2850    8.7075  H     
58   H         0.1357  -11.8915    3.9846  H     
59   H        -1.4685  -11.8485    4.7000  H     
60   H        -0.2183   -9.5557    3.3432  H     
61   H        -0.3912  -11.1783    1.6999  H     
62   H        -1.6186   -9.9521    1.4251  H     
63   H        -2.0776  -11.5055    2.1501  H     
64   H        -3.0766   -9.9657    4.0509  H     
65   H        -2.3959   -8.5478    3.2381  H     
66   H        -1.9648   -8.8872    4.9069  H     
67   H         1.0539  -13.4939    7.2981  H     
68   H        -0.2214  -13.4553    6.0791  H     
69   H        -0.6120  -13.1036    7.7684  H     
@<TRIPOS>BOND
     1    1    2 2
     2    1    6 1
     3    2    3 1
     4    2   30 1
     5    3    4 2
     6    4    5 1
     7    4    8 1
     8    5    6 2
     9    5    7 1
    10    8    9 2
    11    8   13 1
    12    9   10 1
    13   10   11 2
    14   10   17 1
    15   11   12 1
    16   11   14 1
    17   12   13 2
    18   14   15 2
    19   14   16 am
    20   17   18 1
    21   18   19 1
    22   18   20 1
    23   19   21 2
    24   19   25 1
    25   21   22 1
    26   22   23 2
    27   23   24 1
    28   24   25 2
    29   25   26 1
    30   26   27 1
    31   26   28 1
    32   26   29 1
    33   30   31 2
    34   30   34 1
    35   31   32 1
    36   32   33 2
    37   32   39 1
    38   33   34 1
    39   33   35 1
    40   35   36 1
    41   36   37 1
    42   36   38 1
    43    1   40 1
    44    3   41 1
    45    7   42 1
    46    7   43 1
    47    9   44 1
    48   12   45 1
    49   13   46 1
    50   16   47 1
    51   16   48 1
    52   18   49 1
    53   20   50 1
    54   20   51 1
    55   20   52 1
    56   21   53 1
    57   22   54 1
    58   23   55 1
    59   24   56 1
    60   31   57 1
    61   35   58 1
    62   35   59 1
    63   36   60 1
    64   37   61 1
    65   37   62 1
    66   37   63 1
    67   38   64 1
    68   38   65 1
    69   38   66 1
    70   39   67 1
    71   39   68 1
    72   39   69 1
@<TRIPOS>PROPERTY_DATA
  Total_Score	| 10.9878
  Crash		| -1.3032
  Polar		| 4.7442
  FragIndex	| 1
  FragRMSD	| 1.027

