@<TRIPOS>MOLECULE
BindingDB_50385919
 69 72 0 0 0
SMALL
NO_CHARGES


@<TRIPOS>ATOM
1    C         1.7456   -7.2147    8.3283  C     
2    C         1.7958   -8.5823    8.7174  C     
3    C         2.4608   -8.8223    9.9533  C     
4    C         3.0084   -7.7914   10.7561  C     
5    C         2.8721   -6.4616   10.2957  C     
6    N         2.2634   -6.2364    9.1078  N     
7    C         1.2393   -9.6495    7.8944  C     
8    C         1.2475  -11.0143    8.3029  C     
9    C         0.7842  -12.0530    7.4759  C     
10   C         0.2931  -11.7848    6.1786  C     
11   C         0.2065  -10.4370    5.7762  C     
12   C         0.6617   -9.3990    6.6149  C     
13   C        -0.1613  -12.8934    5.2924  C     
14   N        -0.1281  -12.6282    3.8140  N     
15   C         1.1937  -12.1427    3.3215  C     
16   C        -0.6100  -13.8053    3.0280  C     
17   N         3.2709   -5.3914   11.0033  N     
18   C         3.6241   -8.1102   11.9939  C     
19   C         2.8831   -8.7434   13.0105  C     
20   C         3.4987   -9.2091   14.1916  C     
21   C         4.8779   -8.9390   14.4359  C     
22   C         5.5953   -8.2290   13.4343  C     
23   C         4.9907   -7.8451   12.2234  C     
24   C         5.5380   -9.3433   15.6089  C     
25   O         6.6244   -8.8675   15.9208  O     
26   N         5.0797  -10.2243   16.4720  N     
27   O         2.7463   -9.8860   15.1181  O     
28   C         1.6844  -10.7739   14.6942  C     
29   C         2.0712  -11.8468   13.7129  C     
30   C         1.0800  -11.4006   15.9838  C     
31   C         3.3483  -12.4366   13.8776  C     
32   C         3.8035  -13.4554   13.0263  C     
33   C         2.9978  -13.8854   11.9680  C     
34   C         1.7381  -13.2991   11.7672  C     
35   C         1.2282  -12.3023   12.6433  C     
36   C        -0.1531  -11.7717   12.3941  C     
37   F        -0.9182  -12.5199   11.5323  F     
38   F        -0.9071  -11.7187   13.5403  F     
39   F        -0.0784  -10.5169   11.8487  F     
40   H         1.3196   -6.9113    7.4569  H     
41   H         2.5606   -9.7776   10.2982  H     
42   H         1.6164  -11.2967    9.2103  H     
43   H         0.8250  -13.0131    7.8238  H     
44   H        -0.1846  -10.1914    4.8636  H     
45   H         0.5591   -8.4512    6.2494  H     
46   H         0.4340  -13.7925    5.4989  H     
47   H        -1.1895  -13.1113    5.5884  H     
48   H        -0.7994  -11.8807    3.6282  H     
49   H         1.4652  -11.2242    3.8452  H     
50   H         1.1491  -11.9050    2.2528  H     
51   H         1.9775  -12.8881    3.4814  H     
52   H         0.0575  -14.6616    3.1460  H     
53   H        -0.6799  -13.5565    1.9680  H     
54   H        -1.6109  -14.0977    3.3562  H     
55   H         3.1112   -4.4998   10.6564  H     
56   H         3.6790   -5.4992   11.8768  H     
57   H         1.8760   -8.8842   12.8987  H     
58   H         6.5908   -8.0091   13.5566  H     
59   H         5.5584   -7.3785   11.5066  H     
60   H         5.5959  -10.4419   17.2651  H     
61   H         4.2333  -10.6720   16.3263  H     
62   H         0.9231  -10.1269   14.2559  H     
63   H         1.8437  -11.9604   16.5259  H     
64   H         0.2540  -12.0754   15.7441  H     
65   H         0.6989  -10.6145   16.6393  H     
66   H         3.9666  -12.1275   14.6283  H     
67   H         4.7152  -13.8848   13.1797  H     
68   H         3.3279  -14.6225   11.3408  H     
69   H         1.1937  -13.6222   10.9619  H     
@<TRIPOS>BOND
     1    1    2 2
     2    1    6 1
     3    2    3 1
     4    2    7 1
     5    3    4 2
     6    4    5 1
     7    4   18 1
     8    5    6 2
     9    5   17 1
    10    7    8 2
    11    7   12 1
    12    8    9 1
    13    9   10 2
    14   10   11 1
    15   10   13 1
    16   11   12 2
    17   13   14 1
    18   14   15 1
    19   14   16 1
    20   18   19 2
    21   18   23 1
    22   19   20 1
    23   20   21 2
    24   20   27 1
    25   21   22 1
    26   21   24 1
    27   22   23 2
    28   24   25 2
    29   24   26 am
    30   27   28 1
    31   28   29 1
    32   28   30 1
    33   29   31 2
    34   29   35 1
    35   31   32 1
    36   32   33 2
    37   33   34 1
    38   34   35 2
    39   35   36 1
    40   36   37 1
    41   36   38 1
    42   36   39 1
    43    1   40 1
    44    3   41 1
    45    8   42 1
    46    9   43 1
    47   11   44 1
    48   12   45 1
    49   13   46 1
    50   13   47 1
    51   14   48 1
    52   15   49 1
    53   15   50 1
    54   15   51 1
    55   16   52 1
    56   16   53 1
    57   16   54 1
    58   17   55 1
    59   17   56 1
    60   19   57 1
    61   22   58 1
    62   23   59 1
    63   26   60 1
    64   26   61 1
    65   28   62 1
    66   30   63 1
    67   30   64 1
    68   30   65 1
    69   31   66 1
    70   32   67 1
    71   33   68 1
    72   34   69 1
@<TRIPOS>PROPERTY_DATA
  Total_Score	| 10.5653
  Crash		| -1.2955
  Polar		| 3.3447
  FragIndex	| 1
  FragRMSD	| 0.456

