@<TRIPOS>MOLECULE
BindingDB_50385926
 50 52 0 0 0
SMALL
NO_CHARGES


@<TRIPOS>ATOM
1    C         1.7352   -7.2591    8.1945  C     
2    C         1.8330   -8.6127    8.5866  C     
3    C         2.4873   -8.8800    9.8151  C     
4    C         2.9876   -7.8421   10.6378  C     
5    C         2.7996   -6.5106   10.1946  C     
6    N         2.2069   -6.2766    8.9981  N     
7    N         3.1508   -5.4326   10.9209  N     
8    C         3.6552   -8.1581   11.8554  C     
9    C         3.0237   -8.9440   12.8479  C     
10   C         3.6991   -9.3221   14.0292  C     
11   C         5.0340   -8.8883   14.2677  C     
12   C         5.6451   -8.0749   13.2755  C     
13   C         4.9757   -7.7217   12.0922  C     
14   C         5.7553   -9.2208   15.4219  C     
15   O         6.7082   -8.5433   15.7908  O     
16   N         5.5147  -10.2679   16.1827  N     
17   O         2.9848  -10.0032   14.9841  O     
18   C         2.6660  -11.3653   14.6453  C     
19   C         1.2580   -9.6569    7.8035  C     
20   C         0.9182   -9.6528    6.4303  C     
21   C         0.3319  -10.8356    5.9481  C     
22   C         0.1760  -11.8285    6.9296  C     
23   S         0.7727  -11.1967    8.4076  S     
24   C        -0.0531  -11.0573    4.5321  C     
25   N        -0.8640   -9.9692    3.8865  N     
26   C        -1.6660  -10.4839    2.7361  C     
27   C        -1.7171   -9.1906    4.8318  C     
28   H         1.2768   -6.9887    7.3218  H     
29   H         2.6189   -9.8512   10.1140  H     
30   H         2.9955   -4.5409   10.5702  H     
31   H         3.5350   -5.5363   11.8049  H     
32   H         2.0514   -9.2365   12.7177  H     
33   H         6.6069   -7.7414   13.3906  H     
34   H         5.4694   -7.1563   11.3968  H     
35   H         6.0686  -10.4475   16.9576  H     
36   H         4.8066  -10.8875   15.9579  H     
37   H         1.9371  -11.4121   13.8346  H     
38   H         2.2271  -11.8334   15.5280  H     
39   H         3.5555  -11.9358   14.3657  H     
40   H         1.1299   -8.8683    5.8183  H     
41   H        -0.2177  -12.7624    6.8018  H     
42   H         0.8829  -11.1596    3.9772  H     
43   H        -0.5853  -12.0091    4.4517  H     
44   H        -0.1817   -9.3302    3.4742  H     
45   H        -1.0249  -11.0115    2.0240  H     
46   H        -2.1338   -9.6539    2.1956  H     
47   H        -2.4543  -11.1659    3.0676  H     
48   H        -2.3740   -9.8528    5.4087  H     
49   H        -2.3436   -8.4591    4.2989  H     
50   H        -1.0796   -8.6292    5.5237  H     
@<TRIPOS>BOND
     1    1    2 2
     2    1    6 1
     3    2    3 1
     4    2   19 1
     5    3    4 2
     6    4    5 1
     7    4    8 1
     8    5    6 2
     9    5    7 1
    10    8    9 2
    11    8   13 1
    12    9   10 1
    13   10   11 2
    14   10   17 1
    15   11   12 1
    16   11   14 1
    17   12   13 2
    18   14   15 2
    19   14   16 am
    20   17   18 1
    21   19   20 2
    22   19   23 1
    23   20   21 1
    24   21   22 2
    25   21   24 1
    26   22   23 1
    27   24   25 1
    28   25   26 1
    29   25   27 1
    30    1   28 1
    31    3   29 1
    32    7   30 1
    33    7   31 1
    34    9   32 1
    35   12   33 1
    36   13   34 1
    37   16   35 1
    38   16   36 1
    39   18   37 1
    40   18   38 1
    41   18   39 1
    42   20   40 1
    43   22   41 1
    44   24   42 1
    45   24   43 1
    46   25   44 1
    47   26   45 1
    48   26   46 1
    49   26   47 1
    50   27   48 1
    51   27   49 1
    52   27   50 1
@<TRIPOS>PROPERTY_DATA
  Total_Score	| 9.9537
  Crash		| -1.0005
  Polar		| 4.6062
  FragIndex	| 1
  FragRMSD	| 0.296

