@<TRIPOS>MOLECULE
BindingDB_50385920
 65 68 0 0 0
SMALL
NO_CHARGES


@<TRIPOS>ATOM
1    C         1.5150   -7.4624    8.1518  C     
2    C         1.5802   -8.7505    8.7276  C     
3    N         2.3087   -8.8768    9.8658  N     
4    C         2.9632   -7.8637   10.4929  C     
5    C         2.8466   -6.5742    9.9281  C     
6    N         2.1397   -6.4315    8.7752  N     
7    N         3.3503   -5.4665   10.4975  N     
8    C         3.6712   -8.1660   11.6833  C     
9    C         3.0700   -8.9675   12.6781  C     
10   C         3.7428   -9.3110   13.8718  C     
11   C         5.0640   -8.8144   14.0993  C     
12   C         5.6564   -8.0012   13.0958  C     
13   C         4.9790   -7.6924   11.9051  C     
14   C         5.7906   -9.0819   15.2678  C     
15   O         6.7237   -8.3686   15.6201  O     
16   N         5.5664  -10.1092   16.0618  N     
17   O         3.1038  -10.0217   14.8664  O     
18   C         1.9640  -10.8862   14.6226  C     
19   C         2.2498  -12.0905   13.7632  C     
20   C         1.4340  -11.3209   16.0177  C     
21   C         3.4888  -12.7474   13.9661  C     
22   C         3.8464  -13.8898   13.2384  C     
23   C         2.9740  -14.3937   12.2622  C     
24   C         1.7570  -13.7523   12.0218  C     
25   C         1.3506  -12.6140   12.7744  C     
26   C         0.0085  -12.0158   12.4736  C     
27   F        -0.8426  -12.8180   11.7461  F     
28   F        -0.7093  -11.7277   13.6024  F     
29   F         0.1653  -10.8640   11.7475  F     
30   C         0.8969   -9.8874    8.2401  C     
31   C        -0.0661   -9.9663    7.2203  C     
32   C        -0.6363  -11.2411    7.0404  C     
33   C        -0.1495  -12.2294    7.9026  C     
34   S         1.0294  -11.4734    8.8978  S     
35   C        -0.5995  -13.6262    8.0175  C     
36   N         0.4773  -14.6527    7.8269  N     
37   C        -0.0187  -16.0218    8.1521  C     
38   C         1.1030  -14.6036    6.4734  C     
39   H         0.9994   -7.2820    7.2886  H     
40   H         3.2299   -4.6023   10.0732  H     
41   H         3.8066   -5.5199   11.3516  H     
42   H         2.1066   -9.2814   12.5455  H     
43   H         6.6105   -7.6445   13.2092  H     
44   H         5.4557   -7.1227   11.1981  H     
45   H         6.0968  -10.2281   16.8635  H     
46   H         4.8815  -10.7541   15.8443  H     
47   H         1.1929  -10.2666   14.1705  H     
48   H         2.2140  -11.8445   16.5799  H     
49   H         0.5682  -11.9810   15.9314  H     
50   H         1.1343  -10.4454   16.6013  H     
51   H         4.1508  -12.3975   14.6563  H     
52   H         4.7332  -14.3642   13.4206  H     
53   H         3.2337  -15.2299   11.7259  H     
54   H         1.1594  -14.1378   11.2872  H     
55   H        -0.3715   -9.1611    6.6674  H     
56   H        -1.3663  -11.4209    6.3494  H     
57   H        -1.0206  -13.7240    9.0216  H     
58   H        -1.4109  -13.8075    7.3057  H     
59   H         1.2292  -14.4611    8.4978  H     
60   H        -0.4304  -16.0516    9.1642  H     
61   H         0.7994  -16.7422    8.1203  H     
62   H        -0.7950  -16.3398    7.4515  H     
63   H         0.3754  -14.8166    5.6867  H     
64   H         1.9177  -15.3262    6.4045  H     
65   H         1.5363  -13.6202    6.2890  H     
@<TRIPOS>BOND
     1    1    2 2
     2    1    6 1
     3    2    3 1
     4    2   30 1
     5    3    4 2
     6    4    5 1
     7    4    8 1
     8    5    6 2
     9    5    7 1
    10    8    9 2
    11    8   13 1
    12    9   10 1
    13   10   11 2
    14   10   17 1
    15   11   12 1
    16   11   14 1
    17   12   13 2
    18   14   15 2
    19   14   16 am
    20   17   18 1
    21   18   19 1
    22   18   20 1
    23   19   21 2
    24   19   25 1
    25   21   22 1
    26   22   23 2
    27   23   24 1
    28   24   25 2
    29   25   26 1
    30   26   27 1
    31   26   28 1
    32   26   29 1
    33   30   31 2
    34   30   34 1
    35   31   32 1
    36   32   33 2
    37   33   34 1
    38   33   35 1
    39   35   36 1
    40   36   37 1
    41   36   38 1
    42    1   39 1
    43    7   40 1
    44    7   41 1
    45    9   42 1
    46   12   43 1
    47   13   44 1
    48   16   45 1
    49   16   46 1
    50   18   47 1
    51   20   48 1
    52   20   49 1
    53   20   50 1
    54   21   51 1
    55   22   52 1
    56   23   53 1
    57   24   54 1
    58   31   55 1
    59   32   56 1
    60   35   57 1
    61   35   58 1
    62   36   59 1
    63   37   60 1
    64   37   61 1
    65   37   62 1
    66   38   63 1
    67   38   64 1
    68   38   65 1
@<TRIPOS>PROPERTY_DATA
  Total_Score	| 9.9707
  Crash		| -1.5860
  Polar		| 4.5678
  FragIndex	| 1
  FragRMSD	| 0.673

