@<TRIPOS>MOLECULE
BindingDB_50385928
 73 77 0 0 0
SMALL
NO_CHARGES


@<TRIPOS>ATOM
1    C         1.7907   -7.3537    8.3690  C     
2    C         1.9306   -8.6932    8.7970  C     
3    C         2.6125   -8.8948   10.0240  C     
4    C         3.1105   -7.8168   10.7944  C     
5    C         2.9160   -6.5047   10.2990  C     
6    N         2.2786   -6.3307    9.1117  N     
7    N         3.2862   -5.4074   10.9816  N     
8    C         3.7033   -8.0909   12.0524  C     
9    C         2.9392   -8.7162   13.0545  C     
10   C         3.5299   -9.1583   14.2628  C     
11   C         4.9059   -8.8877   14.5244  C     
12   C         5.6407   -8.1931   13.5260  C     
13   C         5.0603   -7.8144   12.3045  C     
14   C         5.5548   -9.2676   15.7125  C     
15   O         6.6524   -8.8174   16.0062  O     
16   N         5.0836  -10.1202   16.5965  N     
17   O         2.7630   -9.8224   15.1989  O     
18   C         1.7010  -10.7297   14.8172  C     
19   C         2.0862  -11.7930   13.8264  C     
20   C         1.1509  -11.3566   16.1310  C     
21   C         3.3801  -12.3584   13.9627  C     
22   C         3.8530  -13.3389   13.0742  C     
23   C         3.0388  -13.7684   12.0203  C     
24   C         1.7557  -13.2252   11.8664  C     
25   C         1.2388  -12.2585   12.7690  C     
26   C        -0.1660  -11.7803   12.5526  C     
27   F        -0.9200  -12.5424   11.6909  F     
28   F        -0.9004  -11.7852   13.7133  F     
29   F        -0.1558  -10.5177   12.0168  F     
30   C         1.3939   -9.7894    8.0570  C     
31   C         0.7526   -9.7790    6.8077  C     
32   C         0.3371  -11.0349    6.3241  C     
33   C         0.6150  -12.1146    7.1684  C     
34   S         1.4193  -11.4450    8.5348  S     
35   C         0.3584  -13.5446    6.8900  C     
36   N         0.2696  -14.4329    8.0988  N     
37   C        -0.6729  -13.9535    9.1672  C     
38   C        -2.1706  -14.2170    8.8608  C     
39   C        -2.4106  -15.7117    8.5388  C     
40   C        -1.4570  -16.2036    7.4233  C     
41   C         0.0201  -15.8733    7.7655  C     
42   H         1.3040   -7.1147    7.5037  H     
43   H         2.7465   -9.8465   10.3788  H     
44   H         3.0991   -4.5264   10.6235  H     
45   H         3.6953   -5.4900   11.8566  H     
46   H         1.9422   -8.8688   12.9027  H     
47   H         6.6350   -7.9820   13.6585  H     
48   H         5.6420   -7.3584   11.5939  H     
49   H         5.5983  -10.3238   17.3953  H     
50   H         4.2370  -10.5691   16.4607  H     
51   H         0.9120  -10.0948   14.4179  H     
52   H         1.9255  -11.9260   16.6472  H     
53   H         0.3108  -12.0241   15.9200  H     
54   H         0.7996  -10.5730   16.8070  H     
55   H         4.0034  -12.0544   14.7126  H     
56   H         4.7880  -13.7375   13.1897  H     
57   H         3.3804  -14.4707   11.3648  H     
58   H         1.2037  -13.5588   11.0762  H     
59   H         0.6018   -8.9321    6.2560  H     
60   H        -0.1219  -11.1444    5.4183  H     
61   H        -0.5501  -13.6308    6.2926  H     
62   H         1.1925  -13.8765    6.2623  H     
63   H         1.2115  -14.4270    8.5115  H     
64   H        -0.4179  -14.4634   10.1005  H     
65   H        -0.5478  -12.8843    9.3510  H     
66   H        -2.7749  -13.9266    9.7255  H     
67   H        -2.4845  -13.6032    8.0126  H     
68   H        -2.2476  -16.3054    9.4424  H     
69   H        -3.4462  -15.8556    8.2243  H     
70   H        -1.5693  -17.2831    7.3010  H     
71   H        -1.7283  -15.7291    6.4766  H     
72   H         0.6508  -16.1833    6.9308  H     
73   H         0.3238  -16.4790    8.6236  H     
@<TRIPOS>BOND
     1    1    2 2
     2    1    6 1
     3    2    3 1
     4    2   30 1
     5    3    4 2
     6    4    5 1
     7    4    8 1
     8    5    6 2
     9    5    7 1
    10    8    9 2
    11    8   13 1
    12    9   10 1
    13   10   11 2
    14   10   17 1
    15   11   12 1
    16   11   14 1
    17   12   13 2
    18   14   15 2
    19   14   16 am
    20   17   18 1
    21   18   19 1
    22   18   20 1
    23   19   21 2
    24   19   25 1
    25   21   22 1
    26   22   23 2
    27   23   24 1
    28   24   25 2
    29   25   26 1
    30   26   27 1
    31   26   28 1
    32   26   29 1
    33   30   31 2
    34   30   34 1
    35   31   32 1
    36   32   33 2
    37   33   34 1
    38   33   35 1
    39   35   36 1
    40   36   37 1
    41   36   41 1
    42   37   38 1
    43   38   39 1
    44   39   40 1
    45   40   41 1
    46    1   42 1
    47    3   43 1
    48    7   44 1
    49    7   45 1
    50    9   46 1
    51   12   47 1
    52   13   48 1
    53   16   49 1
    54   16   50 1
    55   18   51 1
    56   20   52 1
    57   20   53 1
    58   20   54 1
    59   21   55 1
    60   22   56 1
    61   23   57 1
    62   24   58 1
    63   31   59 1
    64   32   60 1
    65   35   61 1
    66   35   62 1
    67   36   63 1
    68   37   64 1
    69   37   65 1
    70   38   66 1
    71   38   67 1
    72   39   68 1
    73   39   69 1
    74   40   70 1
    75   40   71 1
    76   41   72 1
    77   41   73 1
@<TRIPOS>PROPERTY_DATA
  Total_Score	| 11.0360
  Crash		| -1.5761
  Polar		| 5.1192
  FragIndex	| 1
  FragRMSD	| 0.459

