@<TRIPOS>MOLECULE
BindingDB_50385929
 71 75 0 0 0
SMALL
NO_CHARGES


@<TRIPOS>ATOM
1    C         1.8245   -7.4392    8.3160  C     
2    C         1.8127   -8.7624    8.8181  C     
3    C         2.4733   -8.9711   10.0556  C     
4    C         3.0713   -7.9155   10.7817  C     
5    C         2.9987   -6.6164   10.2247  C     
6    N         2.3950   -6.4359    9.0239  N     
7    N         3.4652   -5.5202   10.8504  N     
8    C         3.6659   -8.1845   12.0450  C     
9    C         2.9153   -8.8352   13.0525  C     
10   C         3.5041   -9.2341   14.2743  C     
11   C         4.8643   -8.9030   14.5512  C     
12   C         5.5887   -8.2040   13.5450  C     
13   C         5.0121   -7.8649   12.3107  C     
14   C         5.5119   -9.2348   15.7552  C     
15   O         6.6049   -8.7629   16.0431  O     
16   N         5.0473  -10.0756   16.6598  N     
17   O         2.7382   -9.8903   15.2121  O     
18   C         1.6697  -10.8001   14.8404  C     
19   C         2.0562  -11.8442   13.8273  C     
20   C         1.1675  -11.4627   16.1571  C     
21   C         3.3470  -12.4115   13.9603  C     
22   C         3.8358  -13.3634   13.0505  C     
23   C         3.0339  -13.7761   11.9803  C     
24   C         1.7394  -13.2541   11.8364  C     
25   C         1.2177  -12.2946   12.7492  C     
26   C        -0.1905  -11.8073   12.5474  C     
27   F        -0.9020  -12.4422   11.5535  F     
28   F        -0.9319  -11.9899   13.6902  F     
29   F        -0.1948  -10.4751   12.2109  F     
30   C         1.1584   -9.8345    8.1412  C     
31   C         0.4897   -9.8428    6.9064  C     
32   C        -0.1086  -11.0673    6.5428  C     
33   C         0.0516  -12.0993    7.4784  C     
34   S         0.9689  -11.4344    8.7654  S     
35   C        -0.4939  -13.4710    7.4496  C     
36   N         0.5709  -14.5296    7.4965  N     
37   C         0.0693  -15.8714    7.9360  C     
38   C        -0.6392  -16.6401    6.7906  C     
39   O         0.2261  -16.7441    5.6433  O     
40   C         0.6784  -15.4729    5.1360  C     
41   C         1.3858  -14.6485    6.2421  C     
42   H         1.3741   -7.1965    7.4305  H     
43   H         2.5210   -9.9133   10.4499  H     
44   H         3.3686   -4.6513   10.4312  H     
45   H         3.8546   -5.5867   11.7362  H     
46   H         1.9222   -9.0313   12.8950  H     
47   H         6.5730   -7.9508   13.6888  H     
48   H         5.5862   -7.3962   11.6001  H     
49   H         5.5670  -10.2521   17.4592  H     
50   H         4.2062  -10.5373   16.5303  H     
51   H         0.8497  -10.1886   14.4661  H     
52   H         1.9808  -12.0035   16.6514  H     
53   H         0.3530  -12.1617   15.9528  H     
54   H         0.8019  -10.6941   16.8421  H     
55   H         3.9667  -12.1150   14.7182  H     
56   H         4.7806  -13.7404   13.1573  H     
57   H         3.3931  -14.4636   11.3115  H     
58   H         1.1842  -13.5933   11.0493  H     
59   H         0.4163   -9.0198    6.3002  H     
60   H        -0.6374  -11.1835    5.6774  H     
61   H        -1.1356  -13.5544    8.3298  H     
62   H        -1.1287  -13.5980    6.5696  H     
63   H         1.2275  -14.2395    8.2261  H     
64   H         0.9254  -16.4628    8.2699  H     
65   H        -0.6040  -15.7838    8.7924  H     
66   H        -0.8816  -17.6498    7.1294  H     
67   H        -1.5750  -16.1455    6.5167  H     
68   H         1.3832  -15.6628    4.3240  H     
69   H        -0.1648  -14.9148    4.7209  H     
70   H         1.6429  -13.6659    5.8428  H     
71   H         2.3293  -15.1409    6.4947  H     
@<TRIPOS>BOND
     1    1    2 2
     2    1    6 1
     3    2    3 1
     4    2   30 1
     5    3    4 2
     6    4    5 1
     7    4    8 1
     8    5    6 2
     9    5    7 1
    10    8    9 2
    11    8   13 1
    12    9   10 1
    13   10   11 2
    14   10   17 1
    15   11   12 1
    16   11   14 1
    17   12   13 2
    18   14   15 2
    19   14   16 am
    20   17   18 1
    21   18   19 1
    22   18   20 1
    23   19   21 2
    24   19   25 1
    25   21   22 1
    26   22   23 2
    27   23   24 1
    28   24   25 2
    29   25   26 1
    30   26   27 1
    31   26   28 1
    32   26   29 1
    33   30   31 2
    34   30   34 1
    35   31   32 1
    36   32   33 2
    37   33   34 1
    38   33   35 1
    39   35   36 1
    40   36   37 1
    41   36   41 1
    42   37   38 1
    43   38   39 1
    44   39   40 1
    45   40   41 1
    46    1   42 1
    47    3   43 1
    48    7   44 1
    49    7   45 1
    50    9   46 1
    51   12   47 1
    52   13   48 1
    53   16   49 1
    54   16   50 1
    55   18   51 1
    56   20   52 1
    57   20   53 1
    58   20   54 1
    59   21   55 1
    60   22   56 1
    61   23   57 1
    62   24   58 1
    63   31   59 1
    64   32   60 1
    65   35   61 1
    66   35   62 1
    67   36   63 1
    68   37   64 1
    69   37   65 1
    70   38   66 1
    71   38   67 1
    72   40   68 1
    73   40   69 1
    74   41   70 1
    75   41   71 1
@<TRIPOS>PROPERTY_DATA
  Total_Score	| 11.3015
  Crash		| -1.1452
  Polar		| 4.2558
  FragIndex	| 1
  FragRMSD	| 0.477

