@<TRIPOS>MOLECULE
BindingDB_50385924
 69 72 0 0 0
SMALL
NO_CHARGES


@<TRIPOS>ATOM
1    C         1.7902   -7.3130    8.3193  C     
2    C         1.8467   -8.6828    8.6612  C     
3    C         2.5111   -8.9812    9.8802  C     
4    C         3.0425   -7.9786   10.7245  C     
5    C         2.9384   -6.6367   10.2989  C     
6    N         2.3325   -6.3620    9.1191  N     
7    N         3.4013   -5.5918   11.0113  N     
8    C         3.5880   -8.3279   11.9836  C     
9    C         2.7723   -8.9618   12.9477  C     
10   C         3.2591   -9.2520   14.2356  C     
11   C         4.5989   -8.9396   14.5846  C     
12   C         5.4052   -8.2935   13.6116  C     
13   C         4.9093   -7.9806   12.3359  C     
14   C         5.1149   -9.1863   15.8566  C     
15   O         4.9027   -8.3969   16.7740  O     
16   N         5.9663  -10.1511   16.1136  N     
17   O         2.3602   -9.7848   15.1202  O     
18   C         1.4948  -10.8848   14.7433  C     
19   C         2.0105  -11.9111   13.7501  C     
20   C         0.9359  -11.4784   16.0684  C     
21   C         3.3545  -12.3495   13.8951  C     
22   C         3.9327  -13.2876   13.0285  C     
23   C         3.1852  -13.8150   11.9744  C     
24   C         1.8619  -13.3872   11.7883  C     
25   C         1.2511  -12.4395   12.6487  C     
26   C        -0.1719  -12.0615   12.3881  C     
27   F        -0.7524  -12.5950   11.2595  F     
28   F        -0.9525  -12.4871   13.4344  F     
29   F        -0.2886  -10.7022   12.2226  F     
30   C         1.2622   -9.6724    7.7914  C     
31   C         1.2316  -11.0895    7.8620  C     
32   C         0.5157  -11.7100    6.8089  C     
33   C        -0.0533  -10.8579    5.8609  C     
34   S         0.3270   -9.2728    6.3875  S     
35   C        -0.9034  -11.2132    4.7006  C     
36   N        -0.1897  -11.1602    3.3826  N     
37   C         0.8299  -12.2396    3.2090  C     
38   C        -1.1234  -11.1346    2.2240  C     
39   C         1.8328  -11.9158    8.9356  C     
40   H         1.3446   -6.9891    7.4574  H     
41   H         2.6413   -9.9501   10.1755  H     
42   H         3.3114   -4.6905   10.6581  H     
43   H         3.8414   -5.7428   11.8611  H     
44   H         1.7922   -9.1675   12.7184  H     
45   H         6.3612   -7.9989   13.8492  H     
46   H         5.5135   -7.4942   11.6690  H     
47   H         6.3204  -10.2561   17.0103  H     
48   H         6.2458  -10.7557   15.4084  H     
49   H         0.6339  -10.3798   14.3062  H     
50   H         1.7167  -11.5298   16.8213  H     
51   H         0.5072  -12.4749   15.9078  H     
52   H         0.1479  -10.8284   16.4729  H     
53   H         3.9386  -12.0017   14.6572  H     
54   H         4.9024  -13.5853   13.1612  H     
55   H         3.6067  -14.4937   11.3464  H     
56   H         1.3550  -13.7987   11.0077  H     
57   H         0.4126  -12.7249    6.7391  H     
58   H        -1.3242  -12.2134    4.8484  H     
59   H        -1.7361  -10.5082    4.7042  H     
60   H         0.3208  -10.2737    3.3478  H     
61   H         1.5282  -12.2599    4.0468  H     
62   H         1.4158  -12.0662    2.3001  H     
63   H         0.3550  -13.2260    3.1353  H     
64   H        -1.7201  -12.0489    2.1744  H     
65   H        -0.5721  -11.0300    1.2857  H     
66   H        -1.7985  -10.2819    2.2971  H     
67   H         2.9214  -11.9307    8.8262  H     
68   H         1.4849  -12.9515    8.8961  H     
69   H         1.5600  -11.5142    9.9142  H     
@<TRIPOS>BOND
     1    1    2 2
     2    1    6 1
     3    2    3 1
     4    2   30 1
     5    3    4 2
     6    4    5 1
     7    4    8 1
     8    5    6 2
     9    5    7 1
    10    8    9 2
    11    8   13 1
    12    9   10 1
    13   10   11 2
    14   10   17 1
    15   11   12 1
    16   11   14 1
    17   12   13 2
    18   14   15 2
    19   14   16 am
    20   17   18 1
    21   18   19 1
    22   18   20 1
    23   19   21 2
    24   19   25 1
    25   21   22 1
    26   22   23 2
    27   23   24 1
    28   24   25 2
    29   25   26 1
    30   26   27 1
    31   26   28 1
    32   26   29 1
    33   30   31 2
    34   30   34 1
    35   31   32 1
    36   31   39 1
    37   32   33 2
    38   33   34 1
    39   33   35 1
    40   35   36 1
    41   36   37 1
    42   36   38 1
    43    1   40 1
    44    3   41 1
    45    7   42 1
    46    7   43 1
    47    9   44 1
    48   12   45 1
    49   13   46 1
    50   16   47 1
    51   16   48 1
    52   18   49 1
    53   20   50 1
    54   20   51 1
    55   20   52 1
    56   21   53 1
    57   22   54 1
    58   23   55 1
    59   24   56 1
    60   32   57 1
    61   35   58 1
    62   35   59 1
    63   36   60 1
    64   37   61 1
    65   37   62 1
    66   37   63 1
    67   38   64 1
    68   38   65 1
    69   38   66 1
    70   39   67 1
    71   39   68 1
    72   39   69 1
@<TRIPOS>PROPERTY_DATA
  Total_Score	| 11.0051
  Crash		| -1.9395
  Polar		| 4.9182
  FragIndex	| 1
  FragRMSD	| 0.926

