@<TRIPOS>MOLECULE
BindingDB_50385921
 65 68 0 0 0
SMALL
NO_CHARGES


@<TRIPOS>ATOM
1    C         1.2908   -7.4829    7.7525  C     
2    C         1.3412   -8.7948    8.2741  C     
3    N         1.9140   -8.9435    9.5005  N     
4    C         2.4267   -7.9241   10.2463  C     
5    C         2.3403   -6.6160    9.7067  C     
6    N         1.7828   -6.4567    8.4827  N     
7    N         2.7765   -5.5216   10.3590  N     
8    C         3.0816   -8.2283   11.4668  C     
9    C         2.4070   -8.8562   12.5347  C     
10   C         3.0853   -9.2201   13.7287  C     
11   C         4.4652   -8.8978   13.8970  C     
12   C         5.1137   -8.2351   12.8187  C     
13   C         4.4479   -7.9233   11.6229  C     
14   C         5.2131   -9.1869   15.0598  C     
15   O         6.3822   -8.8306   15.1801  O     
16   N         4.7786   -9.8501   16.1130  N     
17   O         2.3936   -9.8473   14.7460  O     
18   C         1.5006  -10.9581   14.4779  C     
19   C         2.0632  -12.0095   13.5577  C     
20   C         1.0960  -11.5790   15.8442  C     
21   C         3.3725  -12.4786   13.8433  C     
22   C         4.0144  -13.4243   13.0294  C     
23   C         3.3572  -13.9268   11.9022  C     
24   C         2.0536  -13.5006   11.6042  C     
25   C         1.3745  -12.5571   12.4218  C     
26   C        -0.0387  -12.1966   12.0648  C     
27   F        -0.5955  -12.9303   11.0399  F     
28   F        -0.8703  -12.4013   13.1387  F     
29   F        -0.1127  -10.8873   11.6587  F     
30   C         0.8762   -9.9331    7.5722  C     
31   C         0.2912  -10.0068    6.2952  C     
32   C        -0.0794  -11.2925    5.8561  C     
33   C         0.2368  -12.2967    6.7828  C     
34   S         0.9424  -11.5558    8.1557  S     
35   C        -0.8119  -11.5458    4.5879  C     
36   N        -0.0537  -11.2094    3.3337  N     
37   C         1.0896  -12.1212    3.0510  C     
38   C        -0.9597  -11.0974    2.1453  C     
39   H         0.8969   -7.2842    6.8358  H     
40   H         2.7320   -4.6465    9.9393  H     
41   H         3.1492   -5.6030   11.2505  H     
42   H         1.4039   -9.0390   12.4526  H     
43   H         6.1050   -7.9819   12.8745  H     
44   H         4.9710   -7.4699   10.8648  H     
45   H         5.3723  -10.0039   16.8667  H     
46   H         3.8801  -10.2084   16.1479  H     
47   H         0.5892  -10.5193   14.0644  H     
48   H         1.9715  -11.9456   16.3814  H     
49   H         0.3930  -12.4030   15.7023  H     
50   H         0.6050  -10.8180   16.4633  H     
51   H         3.8830  -12.1225   14.6524  H     
52   H         4.9601  -13.7407   13.2449  H     
53   H         3.8237  -14.6125   11.3017  H     
54   H         1.6120  -13.8987   10.7724  H     
55   H         0.1048   -9.1761    5.7230  H     
56   H         0.0447  -13.2952    6.6859  H     
57   H        -1.1390  -12.5893    4.5380  H     
58   H        -1.7203  -10.9388    4.6521  H     
59   H         0.3579  -10.2810    3.4404  H     
60   H         1.7708  -12.1619    3.9008  H     
61   H         1.6624  -11.7598    2.1962  H     
62   H         0.7447  -13.1368    2.8357  H     
63   H        -1.4514  -12.0509    1.9352  H     
64   H        -0.4017  -10.7886    1.2610  H     
65   H        -1.7284  -10.3407    2.3261  H     
@<TRIPOS>BOND
     1    1    2 2
     2    1    6 1
     3    2    3 1
     4    2   30 1
     5    3    4 2
     6    4    5 1
     7    4    8 1
     8    5    6 2
     9    5    7 1
    10    8    9 2
    11    8   13 1
    12    9   10 1
    13   10   11 2
    14   10   17 1
    15   11   12 1
    16   11   14 1
    17   12   13 2
    18   14   15 2
    19   14   16 am
    20   17   18 1
    21   18   19 1
    22   18   20 1
    23   19   21 2
    24   19   25 1
    25   21   22 1
    26   22   23 2
    27   23   24 1
    28   24   25 2
    29   25   26 1
    30   26   27 1
    31   26   28 1
    32   26   29 1
    33   30   31 2
    34   30   34 1
    35   31   32 1
    36   32   33 2
    37   32   35 1
    38   33   34 1
    39   35   36 1
    40   36   37 1
    41   36   38 1
    42    1   39 1
    43    7   40 1
    44    7   41 1
    45    9   42 1
    46   12   43 1
    47   13   44 1
    48   16   45 1
    49   16   46 1
    50   18   47 1
    51   20   48 1
    52   20   49 1
    53   20   50 1
    54   21   51 1
    55   22   52 1
    56   23   53 1
    57   24   54 1
    58   31   55 1
    59   33   56 1
    60   35   57 1
    61   35   58 1
    62   36   59 1
    63   37   60 1
    64   37   61 1
    65   37   62 1
    66   38   63 1
    67   38   64 1
    68   38   65 1
@<TRIPOS>PROPERTY_DATA
  Total_Score	| 9.0718
  Crash		| -1.3007
  Polar		| 3.4343
  FragIndex	| 1
  FragRMSD	| 1.193

