@<TRIPOS>MOLECULE
BindingDB_50385915
 60 62 0 0 0
SMALL
NO_CHARGES


@<TRIPOS>ATOM
1    C         1.7409   -7.2415    8.1981  C     
2    C         1.8125   -8.5985    8.5856  C     
3    C         2.4697   -8.8763    9.8154  C     
4    C         2.9882   -7.8483   10.6367  C     
5    C         2.8121   -6.5103   10.1998  C     
6    N         2.2239   -6.2663    9.0024  N     
7    N         3.1820   -5.4374   10.9271  N     
8    C         3.6663   -8.1698   11.8459  C     
9    C         3.0087   -8.8676   12.8832  C     
10   C         3.6712   -9.2015   14.0791  C     
11   C         5.0522   -8.8921   14.2454  C     
12   C         5.6916   -8.1535   13.2185  C     
13   C         5.0152   -7.7983   12.0359  C     
14   C         5.7904   -9.3107   15.3517  C     
15   O         6.6502   -8.5954   15.8478  O     
16   N         5.6199  -10.4946   15.9011  N     
17   O         2.9395   -9.8751   15.0206  O     
18   C         2.4743   -9.1635   16.1980  C     
19   C         3.3006   -9.5559   17.3397  C     
20   C         2.4434   -7.6134   16.0844  C     
21   C         1.2287   -9.6328    7.7984  C     
22   C         0.9482   -9.6472    6.4131  C     
23   C         0.3210  -10.8155    5.9265  C     
24   C         0.0772  -11.7703    6.9276  C     
25   S         0.6669  -11.1423    8.4110  S     
26   C        -0.0498  -11.0471    4.5065  C     
27   N        -0.8642   -9.9726    3.8448  N     
28   C        -1.6067  -10.4941    2.6550  C     
29   C        -1.7692   -9.2268    4.7761  C     
30   C         3.0001  -10.4168   18.3316  C     
31   C         1.7647  -11.1621   18.5035  C     
32   F         1.8183  -11.9379   19.6370  F     
33   F         0.6918  -10.3146   18.6500  F     
34   F         1.5489  -12.0003   17.4379  F     
35   H         1.2815   -6.9610    7.3291  H     
36   H         2.5816   -9.8505   10.1136  H     
37   H         3.0347   -4.5452   10.5813  H     
38   H         3.5637   -5.5510   11.8147  H     
39   H         2.0231   -9.1269   12.7701  H     
40   H         6.6880   -7.9050   13.2959  H     
41   H         5.5283   -7.3104   11.3004  H     
42   H         6.1278  -10.7519   16.6877  H     
43   H         4.9806  -11.1161   15.5252  H     
44   H         1.4442   -9.4839   16.3454  H     
45   H         4.2109   -9.1529   17.3753  H     
46   H         3.4389   -7.2170   15.8812  H     
47   H         2.0714   -7.1591   17.0136  H     
48   H         1.7739   -7.3114   15.2786  H     
49   H         1.1942   -8.8697    5.7929  H     
50   H        -0.3538  -12.6858    6.8010  H     
51   H         0.8928  -11.1399    3.9634  H     
52   H        -0.5795  -12.0027    4.4253  H     
53   H        -0.1880   -9.3081    3.4584  H     
54   H        -0.9266  -11.0042    1.9656  H     
55   H        -2.0670   -9.6725    2.1009  H     
56   H        -2.3928  -11.1978    2.9476  H     
57   H        -2.4568   -9.9160    5.2840  H     
58   H        -2.3688   -8.4781    4.2303  H     
59   H        -1.1670   -8.7011    5.5307  H     
60   H         3.7043  -10.5566   19.0203  H     
@<TRIPOS>BOND
     1    1    2 2
     2    1    6 1
     3    2    3 1
     4    2   21 1
     5    3    4 2
     6    4    5 1
     7    4    8 1
     8    5    6 2
     9    5    7 1
    10    8    9 2
    11    8   13 1
    12    9   10 1
    13   10   11 2
    14   10   17 1
    15   11   12 1
    16   11   14 1
    17   12   13 2
    18   14   15 2
    19   14   16 am
    20   17   18 1
    21   18   19 1
    22   18   20 1
    23   19   30 2
    24   21   22 2
    25   21   25 1
    26   22   23 1
    27   23   24 2
    28   23   26 1
    29   24   25 1
    30   26   27 1
    31   27   28 1
    32   27   29 1
    33   30   31 1
    34   31   32 1
    35   31   33 1
    36   31   34 1
    37    1   35 1
    38    3   36 1
    39    7   37 1
    40    7   38 1
    41    9   39 1
    42   12   40 1
    43   13   41 1
    44   16   42 1
    45   16   43 1
    46   18   44 1
    47   19   45 1
    48   20   46 1
    49   20   47 1
    50   20   48 1
    51   22   49 1
    52   24   50 1
    53   26   51 1
    54   26   52 1
    55   27   53 1
    56   28   54 1
    57   28   55 1
    58   28   56 1
    59   29   57 1
    60   29   58 1
    61   29   59 1
    62   30   60 1
@<TRIPOS>PROPERTY_DATA
  Total_Score	| 12.6183
  Crash		| -1.8351
  Polar		| 4.6227
  FragIndex	| 1
  FragRMSD	| 0.268

