@<TRIPOS>MOLECULE
BindingDB_50385922
 66 69 0 0 0
SMALL
NO_CHARGES


@<TRIPOS>ATOM
1    C         1.6842   -7.2186    8.2135  C     
2    C         1.8224   -8.5876    8.5443  C     
3    C         2.5798   -8.8790    9.7082  C     
4    C         3.1142   -7.8529   10.5275  C     
5    C         2.9084   -6.5099   10.1320  C     
6    N         2.2230   -6.2562    8.9909  N     
7    N         3.3078   -5.4450   10.8475  N     
8    C         3.7307   -8.1832   11.7666  C     
9    C         2.9685   -8.7602   12.7858  C     
10   C         3.5419   -9.1875   14.0122  C     
11   C         4.9124   -8.8894   14.2884  C     
12   C         5.6486   -8.2240   13.2636  C     
13   C         5.0880   -7.9090   12.0172  C     
14   C         5.5756   -9.2190   15.4909  C     
15   O         6.6467   -8.6955   15.7939  O     
16   N         5.1538  -10.0806   16.3933  N     
17   O         2.7534   -9.8557   14.9343  O     
18   C         1.7324  -10.8366   14.5725  C     
19   C         2.2084  -11.9400   13.6524  C     
20   C         1.1509  -11.4069   15.8809  C     
21   C         3.4979  -12.4685   13.9122  C     
22   C         4.0902  -13.4179   13.0713  C     
23   C         3.3937  -13.8987   11.9584  C     
24   C         2.0911  -13.4394   11.7078  C     
25   C         1.4707  -12.4629   12.5402  C     
26   C         0.0719  -12.0366   12.2181  C     
27   F        -0.5584  -12.7456   11.2265  F     
28   F        -0.7476  -12.2009   13.2987  F     
29   F         0.0491  -10.7270   11.8126  F     
30   C         1.1978   -9.5978    7.7522  C     
31   C         1.0782  -10.9761    8.0094  C     
32   C         0.3785  -11.7223    7.0439  C     
33   C        -0.0851  -10.9794    5.9512  C     
34   S         0.3933   -9.3588    6.2426  S     
35   C        -0.8347  -11.4545    4.7681  C     
36   N        -0.0942  -11.2313    3.4796  N     
37   C         0.9505  -12.2688    3.2219  C     
38   C        -1.0102  -11.0954    2.3117  C     
39   H         1.1660   -6.9116    7.3917  H     
40   H         2.7293   -9.8541    9.9854  H     
41   H         3.0914   -4.5539   10.5339  H     
42   H         3.7633   -5.5580   11.6958  H     
43   H         1.9681   -8.8888   12.6244  H     
44   H         6.6331   -7.9737   13.3965  H     
45   H         5.6625   -7.4752   11.2912  H     
46   H         5.6855  -10.2516   17.1898  H     
47   H         4.3182  -10.5571   16.2728  H     
48   H         0.9069  -10.2779   14.1236  H     
49   H         1.9150  -11.9323   16.4592  H     
50   H         0.3344  -12.1063   15.6628  H     
51   H         0.7462  -10.5952   16.4959  H     
52   H         4.0402  -12.1276   14.7038  H     
53   H         5.0371  -13.7470   13.2529  H     
54   H         3.8360  -14.5760   11.3328  H     
55   H         1.6067  -13.8302   10.8964  H     
56   H         1.4744  -11.4277    8.8333  H     
57   H         0.2389  -12.7298    7.1260  H     
58   H        -1.0847  -12.5143    4.8763  H     
59   H        -1.7836  -10.9073    4.7720  H     
60   H         0.3977  -10.3350    3.5435  H     
61   H         1.6613  -12.3120    4.0472  H     
62   H         1.5197  -12.0290    2.3210  H     
63   H         0.5040  -13.2602    3.0998  H     
64   H        -1.5890  -12.0071    2.1498  H     
65   H        -0.4413  -10.8755    1.4062  H     
66   H        -1.6984  -10.2641    2.4700  H     
@<TRIPOS>BOND
     1    1    2 2
     2    1    6 1
     3    2    3 1
     4    2   30 1
     5    3    4 2
     6    4    5 1
     7    4    8 1
     8    5    6 2
     9    5    7 1
    10    8    9 2
    11    8   13 1
    12    9   10 1
    13   10   11 2
    14   10   17 1
    15   11   12 1
    16   11   14 1
    17   12   13 2
    18   14   15 2
    19   14   16 am
    20   17   18 1
    21   18   19 1
    22   18   20 1
    23   19   21 2
    24   19   25 1
    25   21   22 1
    26   22   23 2
    27   23   24 1
    28   24   25 2
    29   25   26 1
    30   26   27 1
    31   26   28 1
    32   26   29 1
    33   30   31 2
    34   30   34 1
    35   31   32 1
    36   32   33 2
    37   33   34 1
    38   33   35 1
    39   35   36 1
    40   36   37 1
    41   36   38 1
    42    1   39 1
    43    3   40 1
    44    7   41 1
    45    7   42 1
    46    9   43 1
    47   12   44 1
    48   13   45 1
    49   16   46 1
    50   16   47 1
    51   18   48 1
    52   20   49 1
    53   20   50 1
    54   20   51 1
    55   21   52 1
    56   22   53 1
    57   23   54 1
    58   24   55 1
    59   31   56 1
    60   32   57 1
    61   35   58 1
    62   35   59 1
    63   36   60 1
    64   37   61 1
    65   37   62 1
    66   37   63 1
    67   38   64 1
    68   38   65 1
    69   38   66 1
@<TRIPOS>PROPERTY_DATA
  Total_Score	| 10.1605
  Crash		| -1.7360
  Polar		| 4.3109
  FragIndex	| 1
  FragRMSD	| 0.548

