@<TRIPOS>MOLECULE
BindingDB_50385925
 54 57 0 0 0
SMALL
NO_CHARGES


@<TRIPOS>ATOM
1    C         1.6739   -7.2978    8.2349  C     
2    C         1.8093   -8.6580    8.5943  C     
3    C         2.5535   -8.9310    9.7706  C     
4    C         3.0662   -7.9039   10.6035  C     
5    C         2.8575   -6.5648   10.1766  C     
6    N         2.1994   -6.3250    9.0153  N     
7    N         3.2379   -5.4812   10.8821  N     
8    C         3.7167   -8.2414   11.8343  C     
9    C         2.9964   -8.9101   12.8585  C     
10   C         3.5798   -9.2497   14.0953  C     
11   C         4.9420   -8.9097   14.3550  C     
12   C         5.6649   -8.2535   13.3234  C     
13   C         5.0704   -7.9414   12.0849  C     
14   C         5.5871   -9.2198   15.5659  C     
15   O         6.6189   -8.6542   15.8948  O     
16   N         5.1631  -10.1075   16.4429  N     
17   O         2.8585  -10.0205   14.9825  O     
18   C         1.7028  -10.8007   14.5839  C     
19   C         2.1220  -11.8898   13.6338  C     
20   C         1.0538  -11.4044   15.8597  C     
21   C         3.4015  -12.4682   13.8443  C     
22   C         3.8938  -13.5093   13.0417  C     
23   C         3.1115  -14.0011   11.9926  C     
24   C         1.8455  -13.4463   11.7524  C     
25   C         1.3194  -12.3945   12.5565  C     
26   C        -0.0450  -11.8701   12.2250  C     
27   F        -0.7578  -12.6124   11.3103  F     
28   F        -0.8574  -11.8355   13.3307  F     
29   F         0.0538  -10.6131   11.6841  F     
30   C         1.1921   -9.7013    7.8422  C     
31   C         0.7131   -9.6552    6.5219  C     
32   C         0.1110  -10.8351    6.0541  C     
33   C         0.0910  -11.8781    6.9774  C     
34   S         0.8351  -11.2946    8.4104  S     
35   H         1.1540   -7.0142    7.4029  H     
36   H         2.7356   -9.9050   10.0293  H     
37   H         3.0850   -4.5915   10.5260  H     
38   H         3.6662   -5.5794   11.7458  H     
39   H         2.0231   -9.1532   12.7005  H     
40   H         6.6472   -7.9895   13.4558  H     
41   H         5.6444   -7.4916   11.3603  H     
42   H         5.6690  -10.2610   17.2590  H     
43   H         4.3490  -10.6097   16.2942  H     
44   H         0.9669  -10.1372   14.1270  H     
45   H         1.7612  -12.0357   16.4025  H     
46   H         0.1781  -12.0072   15.6039  H     
47   H         0.7347  -10.6061   16.5370  H     
48   H         4.0071  -12.1301   14.5946  H     
49   H         4.8179  -13.9099   13.2249  H     
50   H         3.4601  -14.7625   11.4048  H     
51   H         1.3088  -13.8371   10.9730  H     
52   H         0.7981   -8.8286    5.9244  H     
53   H        -0.2860  -10.9225    5.1149  H     
54   H        -0.3044  -12.8110    6.8382  H     
@<TRIPOS>BOND
     1    1    2 2
     2    1    6 1
     3    2    3 1
     4    2   30 1
     5    3    4 2
     6    4    5 1
     7    4    8 1
     8    5    6 2
     9    5    7 1
    10    8    9 2
    11    8   13 1
    12    9   10 1
    13   10   11 2
    14   10   17 1
    15   11   12 1
    16   11   14 1
    17   12   13 2
    18   14   15 2
    19   14   16 am
    20   17   18 1
    21   18   19 1
    22   18   20 1
    23   19   21 2
    24   19   25 1
    25   21   22 1
    26   22   23 2
    27   23   24 1
    28   24   25 2
    29   25   26 1
    30   26   27 1
    31   26   28 1
    32   26   29 1
    33   30   31 2
    34   30   34 1
    35   31   32 1
    36   32   33 2
    37   33   34 1
    38    1   35 1
    39    3   36 1
    40    7   37 1
    41    7   38 1
    42    9   39 1
    43   12   40 1
    44   13   41 1
    45   16   42 1
    46   16   43 1
    47   18   44 1
    48   20   45 1
    49   20   46 1
    50   20   47 1
    51   21   48 1
    52   22   49 1
    53   23   50 1
    54   24   51 1
    55   31   52 1
    56   32   53 1
    57   33   54 1
@<TRIPOS>PROPERTY_DATA
  Total_Score	| 9.7186
  Crash		| -1.1468
  Polar		| 3.2714
  FragIndex	| 1
  FragRMSD	| 0.441

