@<TRIPOS>MOLECULE
BindingDB_50385927
 38 40 0 0 0
SMALL
NO_CHARGES


@<TRIPOS>ATOM
1    C         1.6914   -7.4293    8.3133  C     
2    C         1.7544   -8.7696    8.7712  C     
3    C         2.4493   -8.9935    9.9816  C     
4    C         3.0068   -7.9265   10.7320  C     
5    C         2.8573   -6.6088   10.2234  C     
6    N         2.2328   -6.4214    9.0375  N     
7    N         3.2591   -5.5061   10.8812  N     
8    C         3.6980   -8.1974   11.9398  C     
9    C         3.0511   -8.8519   13.0071  C     
10   C         3.7396   -9.1641   14.1944  C     
11   C         5.0888   -8.7624   14.3518  C     
12   C         5.7301   -8.0594   13.2974  C     
13   C         5.0446   -7.8107   12.0918  C     
14   C         5.8076   -9.0869   15.4660  C     
15   O         6.4856   -8.2284   16.0437  O     
16   N         5.7718  -10.3293   15.9425  N     
17   O         3.0589   -9.7507   15.2392  O     
18   C         2.5808  -11.0950   15.0501  C     
19   C         1.1571   -9.8271    8.0282  C     
20   C         1.2924  -11.2172    8.1895  C     
21   C         0.6084  -12.0141    7.2531  C     
22   C        -0.1187  -11.2970    6.3172  C     
23   S         0.1068   -9.6350    6.6583  S     
24   H         1.2279   -7.1836    7.4354  H     
25   H         2.5438   -9.9439   10.3316  H     
26   H         3.1348   -4.6289   10.4844  H     
27   H         3.6677   -5.5569   11.7603  H     
28   H         2.0590   -9.0821   12.9326  H     
29   H         6.7254   -7.7963   13.3739  H     
30   H         5.5339   -7.3467   11.3051  H     
31   H         6.2250  -10.5586   16.7672  H     
32   H         5.2637  -11.0064   15.4527  H     
33   H         1.8122  -11.1488   14.2756  H     
34   H         2.1327  -11.4257   15.9907  H     
35   H         3.3965  -11.7782   14.7968  H     
36   H         1.8702  -11.6520    8.9076  H     
37   H         0.6497  -13.0276    7.2641  H     
38   H        -0.6881  -11.6783    5.5612  H     
@<TRIPOS>BOND
     1    1    2 2
     2    1    6 1
     3    2    3 1
     4    2   19 1
     5    3    4 2
     6    4    5 1
     7    4    8 1
     8    5    6 2
     9    5    7 1
    10    8    9 2
    11    8   13 1
    12    9   10 1
    13   10   11 2
    14   10   17 1
    15   11   12 1
    16   11   14 1
    17   12   13 2
    18   14   15 2
    19   14   16 am
    20   17   18 1
    21   19   20 2
    22   19   23 1
    23   20   21 1
    24   21   22 2
    25   22   23 1
    26    1   24 1
    27    3   25 1
    28    7   26 1
    29    7   27 1
    30    9   28 1
    31   12   29 1
    32   13   30 1
    33   16   31 1
    34   16   32 1
    35   18   33 1
    36   18   34 1
    37   18   35 1
    38   20   36 1
    39   21   37 1
    40   22   38 1
@<TRIPOS>PROPERTY_DATA
  Total_Score	| 7.9594
  Crash		| -0.4736
  Polar		| 3.2820
  FragIndex	| 1
  FragRMSD	| 0.885

