@<TRIPOS>MOLECULE
BindingDB_16242
 36 38 0 0 0
SMALL
NO_CHARGES


@<TRIPOS>ATOM
1    C        21.0824   -8.4143   17.7936  C     
2    C        22.2969   -8.1173   18.2939  C     
3    C        22.4479   -7.2030   19.2911  C     
4    C        21.3821   -6.5391   19.7828  C     
5    C        19.9211   -7.7603   18.2511  C     
6    C        20.0946   -6.7777   19.2759  C     
7    C        18.9835   -6.0318   19.7362  C     
8    C        17.6848   -6.2111   19.2028  C     
9    C        17.5349   -7.2121   18.2104  C     
10   C        18.6102   -7.9893   17.7374  C     
11   C        18.1805   -8.8935   16.7646  C     
12   S        16.0976   -7.6330   17.3390  S     
13   O        15.5943   -6.3938   16.4715  O     
14   O        15.0556   -8.2907   18.3456  O     
15   N        16.8956   -8.8072   16.4393  N     
16   O        18.8988   -9.7448   16.2592  O     
17   C        16.1773   -9.6483   15.5136  C     
18   C        15.6814  -10.9025   16.1232  C     
19   O        14.8623  -11.7085   15.3964  O     
20   O        15.9312  -11.2288   17.4127  O     
21   C        16.6247   -5.3644   19.6410  C     
22   O        15.3261   -5.6401   19.3874  O     
23   O        16.9096   -4.1772   20.2508  O     
24   C        15.9983   -3.1525   20.6663  C     
25   C        15.2701   -2.5721   19.5266  C     
26   O        13.9197   -2.4636   19.5523  O     
27   O        15.9264   -2.2129   18.4030  O     
28   H        21.0393   -9.0884   17.0660  H     
29   H        23.0996   -8.5694   17.9229  H     
30   H        23.3538   -7.0119   19.6474  H     
31   H        21.5275   -5.8666   20.5006  H     
32   H        19.1412   -5.3251   20.4594  H     
33   H        15.3158   -9.1100   15.1042  H     
34   H        16.8197   -9.9107   14.6660  H     
35   H        15.3031   -3.5498   21.4082  H     
36   H        16.5834   -2.3654   21.1350  H     
@<TRIPOS>BOND
     1    1    2 2
     2    1    5 1
     3    2    3 1
     4    3    4 2
     5    4    6 1
     6    5    6 1
     7    5   10 2
     8    6    7 2
     9    7    8 1
    10    8    9 2
    11    8   21 1
    12    9   10 1
    13    9   12 1
    14   10   11 1
    15   11   15 1
    16   11   16 2
    17   12   13 2
    18   12   14 2
    19   12   15 1
    20   15   17 1
    21   17   18 1
    22   18   19 2
    23   18   20 1
    24   21   22 2
    25   21   23 1
    26   23   24 1
    27   24   25 1
    28   25   26 2
    29   25   27 1
    30    1   28 1
    31    2   29 1
    32    3   30 1
    33    4   31 1
    34    7   32 1
    35   17   33 1
    36   17   34 1
    37   24   35 1
    38   24   36 1
@<TRIPOS>PROPERTY_DATA
  Total_Score	| 8.9976
  Crash		| -0.5359
  Polar		| 4.8305
  FragIndex	| 1
  FragRMSD	| 0.482

