@<TRIPOS>MOLECULE
BindingDB_16244
 30 32 0 0 0
SMALL
NO_CHARGES


@<TRIPOS>ATOM
1    C        21.2037   -8.3189   17.7171  C     
2    C        22.3781   -7.9501   18.2885  C     
3    C        22.4316   -7.1610   19.3892  C     
4    C        21.3095   -6.6865   19.9503  C     
5    C        19.9633   -7.8054   18.2176  C     
6    C        20.0590   -6.9707   19.3886  C     
7    C        18.9081   -6.4151   19.9919  C     
8    C        17.6419   -6.6423   19.4446  C     
9    C        17.5420   -7.4291   18.2938  C     
10   C        18.6497   -8.0326   17.6716  C     
11   C        18.1778   -8.7804   16.5857  C     
12   S        16.0647   -7.7743   17.4917  S     
13   O        15.5055   -6.4459   16.8213  O     
14   O        15.1241   -8.5774   18.4863  O     
15   N        16.8597   -8.7717   16.4003  N     
16   C        16.1120   -9.5698   15.4631  C     
17   C        15.6711  -10.8537   16.0357  C     
18   O        16.0463  -11.2608   17.2724  O     
19   O        14.8519  -11.6483   15.3194  O     
20   N        21.2970   -9.1725   16.7495  N     
21   O        21.3094  -10.3179   16.9864  O     
22   O        21.6924   -8.7955   15.6031  O     
23   O        18.8786   -9.4194   15.8161  O     
24   H        23.2447   -8.2777   17.9156  H     
25   H        23.3143   -6.9429   19.7973  H     
26   H        21.3897   -6.1197   20.7649  H     
27   H        18.9805   -5.8349   20.8338  H     
28   H        16.8109   -6.2352   19.8790  H     
29   H        15.2181   -9.0388   15.1278  H     
30   H        16.7200   -9.7573   14.5733  H     
@<TRIPOS>BOND
     1    1    2 2
     2    1    5 1
     3    1   20 am
     4    2    3 1
     5    3    4 2
     6    4    6 1
     7    5    6 1
     8    5   10 2
     9    6    7 2
    10    7    8 1
    11    8    9 2
    12    9   10 1
    13    9   12 1
    14   10   11 1
    15   11   15 1
    16   11   23 2
    17   12   13 2
    18   12   14 2
    19   12   15 1
    20   15   16 1
    21   16   17 1
    22   17   18 2
    23   17   19 1
    24   20   21 2
    25   20   22 1
    26    2   24 1
    27    3   25 1
    28    4   26 1
    29    7   27 1
    30    8   28 1
    31   16   29 1
    32   16   30 1
@<TRIPOS>PROPERTY_DATA
  Total_Score	| 5.8404
  Crash		| -0.3513
  Polar		| 2.0151
  FragIndex	| 1
  FragRMSD	| 0.743

