@<TRIPOS>MOLECULE
BindingDB_16247
 30 32 0 0 0
SMALL
NO_CHARGES


@<TRIPOS>ATOM
1    C        20.9608   -8.2120   17.5739  C     
2    C        22.1494   -7.9693   18.1571  C     
3    C        22.2287   -7.3280   19.3558  C     
4    C        21.1251   -6.8615   19.9804  C     
5    C        19.7589   -7.7831   18.1603  C     
6    C        19.8492   -7.0575   19.3978  C     
7    C        18.6635   -6.5393   19.9813  C     
8    C        17.4178   -6.7025   19.3559  C     
9    C        17.3523   -7.4307   18.1629  C     
10   C        18.4783   -8.0180   17.5765  C     
11   C        18.0897   -8.7968   16.4964  C     
12   S        15.9359   -7.7752   17.2620  S     
13   O        15.4044   -6.4217   16.6169  O     
14   O        14.9637   -8.5648   18.2395  O     
15   N        16.7844   -8.7845   16.2140  N     
16   C        16.0402   -9.7170   15.4010  C     
17   C        15.5900  -10.9492   16.0721  C     
18   O        14.8395  -11.8522   15.3998  O     
19   O        15.9878  -11.2192   17.3391  O     
20   O        18.8608   -9.5713   15.9425  O     
21   N        21.2907   -6.2516   21.1074  N     
22   H        20.9644   -8.6763   16.7002  H     
23   H        22.9880   -8.2629   17.7062  H     
24   H        23.1312   -7.1968   19.7591  H     
25   H        18.6925   -6.0105   20.8581  H     
26   H        16.5718   -6.2996   19.7690  H     
27   H        15.1700   -9.1840   15.0033  H     
28   H        16.6453  -10.0335   14.5437  H     
29   H        20.5555   -5.9119   21.5752  H     
30   H        22.1532   -6.1182   21.4453  H     
@<TRIPOS>BOND
     1    1    2 2
     2    1    5 1
     3    2    3 1
     4    3    4 2
     5    4    6 1
     6    4   21 1
     7    5    6 1
     8    5   10 2
     9    6    7 2
    10    7    8 1
    11    8    9 2
    12    9   10 1
    13    9   12 1
    14   10   11 1
    15   11   15 1
    16   11   20 2
    17   12   13 2
    18   12   14 2
    19   12   15 1
    20   15   16 1
    21   16   17 1
    22   17   18 2
    23   17   19 1
    24    1   22 1
    25    2   23 1
    26    3   24 1
    27    7   25 1
    28    8   26 1
    29   16   27 1
    30   16   28 1
    31   21   29 1
    32   21   30 1
@<TRIPOS>PROPERTY_DATA
  Total_Score	| 6.1847
  Crash		| -0.3658
  Polar		| 2.3681
  FragIndex	| 1
  FragRMSD	| 0.205

