@<TRIPOS>MOLECULE
BindingDB_16243
 28 30 0 0 0
SMALL
NO_CHARGES


@<TRIPOS>ATOM
1    C        21.0219   -8.1463   17.5878  C     
2    C        22.1968   -7.9470   18.2168  C     
3    C        22.2453   -7.3757   19.4549  C     
4    C        21.1238   -6.9444   20.0650  C     
5    C        19.8056   -7.7641   18.1715  C     
6    C        19.8754   -7.0982   19.4411  C     
7    C        18.7018   -6.5948   20.0484  C     
8    C        17.4626   -6.7267   19.4072  C     
9    C        17.3985   -7.4118   18.1821  C     
10   C        18.5301   -7.9542   17.5592  C     
11   C        18.1505   -8.6839   16.4402  C     
12   S        15.9826   -7.7246   17.2725  S     
13   O        15.4548   -6.3404   16.6814  O     
14   O        15.0502   -8.5648   18.2526  O     
15   N        16.8389   -8.7046   16.2004  N     
16   O        18.9198   -9.3862   15.7996  O     
17   C        16.1447   -9.6344   15.3440  C     
18   C        15.7001  -10.8455   16.0377  C     
19   O        14.9982  -11.7866   15.3732  O     
20   O        16.1197  -11.0981   17.3040  O     
21   H        21.0446   -8.5472   16.6816  H     
22   H        23.0461   -8.2041   17.7748  H     
23   H        23.1216   -7.2693   19.9165  H     
24   H        21.1963   -6.5085   20.9642  H     
25   H        18.7480   -6.0919   20.9457  H     
26   H        16.6190   -6.3367   19.8332  H     
27   H        15.2734   -9.1261   14.9130  H     
28   H        16.7744   -9.9503   14.5000  H     
@<TRIPOS>BOND
     1    1    2 2
     2    1    5 1
     3    2    3 1
     4    3    4 2
     5    4    6 1
     6    5    6 1
     7    5   10 2
     8    6    7 2
     9    7    8 1
    10    8    9 2
    11    9   10 1
    12    9   12 1
    13   10   11 1
    14   11   15 1
    15   11   16 2
    16   12   13 2
    17   12   14 2
    18   12   15 1
    19   15   17 1
    20   17   18 1
    21   18   19 2
    22   18   20 1
    23    1   21 1
    24    2   22 1
    25    3   23 1
    26    4   24 1
    27    7   25 1
    28    8   26 1
    29   17   27 1
    30   17   28 1
@<TRIPOS>PROPERTY_DATA
  Total_Score	| 5.9781
  Crash		| -0.2326
  Polar		| 2.3743
  FragIndex	| 1
  FragRMSD	| 0.202

