@<TRIPOS>MOLECULE
BindingDB_16246
 30 32 0 0 0
SMALL
NO_CHARGES


@<TRIPOS>ATOM
1    C        21.1100   -8.0025   17.5777  C     
2    C        22.2652   -7.8046   18.2562  C     
3    C        22.2738   -7.3037   19.5216  C     
4    C        21.1312   -6.9276   20.1245  C     
5    C        19.8562   -7.7213   18.1875  C     
6    C        19.8976   -7.0971   19.4826  C     
7    C        18.7150   -6.6401   20.1065  C     
8    C        17.4770   -6.7740   19.4634  C     
9    C        17.4304   -7.4338   18.2282  C     
10   C        18.5686   -7.9760   17.6143  C     
11   C        18.1680   -8.7700   16.5435  C     
12   S        16.0152   -7.7464   17.3137  S     
13   O        15.5035   -6.3813   16.6704  O     
14   O        15.0310   -8.5442   18.2791  O     
15   N        16.8623   -8.7490   16.2620  N     
16   C        16.1322   -9.6655   15.4139  C     
17   C        15.6171  -10.8590   16.1055  C     
18   O        14.7775  -11.7085   15.4746  O     
19   O        16.0232  -11.1431   17.3636  O     
20   O        18.9021   -9.6051   16.0342  O     
21   N        21.2268   -8.2941   16.3301  N     
22   H        23.1475   -7.9679   17.8148  H     
23   H        23.1451   -7.1676   19.9873  H     
24   H        21.1829   -6.5280   21.0353  H     
25   H        18.7490   -6.1824   21.0234  H     
26   H        16.6237   -6.4229   19.9065  H     
27   H        15.2970   -9.1252   14.9583  H     
28   H        16.7694  -10.0288   14.5963  H     
29   H        20.5151   -8.1490   15.7427  H     
30   H        22.0634   -8.5241   15.9773  H     
@<TRIPOS>BOND
     1    1    2 2
     2    1    5 1
     3    1   21 1
     4    2    3 1
     5    3    4 2
     6    4    6 1
     7    5    6 1
     8    5   10 2
     9    6    7 2
    10    7    8 1
    11    8    9 2
    12    9   10 1
    13    9   12 1
    14   10   11 1
    15   11   15 1
    16   11   20 2
    17   12   13 2
    18   12   14 2
    19   12   15 1
    20   15   16 1
    21   16   17 1
    22   17   18 2
    23   17   19 1
    24    2   22 1
    25    3   23 1
    26    4   24 1
    27    7   25 1
    28    8   26 1
    29   16   27 1
    30   16   28 1
    31   21   29 1
    32   21   30 1
@<TRIPOS>PROPERTY_DATA
  Total_Score	| 6.0650
  Crash		| -0.2257
  Polar		| 2.3072
  FragIndex	| 1
  FragRMSD	| 0.197

