@<TRIPOS>MOLECULE
BindingDB_16248
 28 30 0 0 0
SMALL
NO_CHARGES


@<TRIPOS>ATOM
1    C        21.0779   -8.3412   17.5846  C     
2    C        22.2861   -8.1222   18.1429  C     
3    C        22.4105   -7.3735   19.2770  C     
4    C        21.3287   -6.8345   19.8741  C     
5    C        19.9032   -7.7948   18.1376  C     
6    C        20.0482   -7.0186   19.3293  C     
7    C        18.9106   -6.4421   19.9376  C     
8    C        17.6084   -6.5949   19.3895  C     
9    C        17.4960   -7.3453   18.1959  C     
10   C        18.5986   -7.9613   17.5814  C     
11   C        18.1922   -8.6764   16.4623  C     
12   S        16.0619   -7.6901   17.3128  S     
13   O        15.5049   -6.3751   16.6212  O     
14   O        15.0927   -8.5615   18.2184  O     
15   N        16.8935   -8.6281   16.1995  N     
16   C        16.2384   -9.2386   15.0799  C     
17   O        18.9450   -9.3289   15.7523  O     
18   C        16.5094   -5.9854   20.0623  C     
19   O        15.3174   -5.7723   19.4537  O     
20   O        16.6083   -5.5278   21.3364  O     
21   H        21.0555   -8.8924   16.7630  H     
22   H        23.1001   -8.5046   17.7214  H     
23   H        23.3137   -7.2188   19.6615  H     
24   H        21.4562   -6.2990   20.7045  H     
25   H        19.0524   -5.8803   20.7890  H     
26   H        16.6544   -8.8439   14.1508  H     
27   H        15.1645   -9.0429   15.0805  H     
28   H        16.3857  -10.3211   15.1016  H     
@<TRIPOS>BOND
     1    1    2 2
     2    1    5 1
     3    2    3 1
     4    3    4 2
     5    4    6 1
     6    5    6 1
     7    5   10 2
     8    6    7 2
     9    7    8 1
    10    8    9 2
    11    8   18 1
    12    9   10 1
    13    9   12 1
    14   10   11 1
    15   11   15 1
    16   11   17 2
    17   12   13 2
    18   12   14 2
    19   12   15 1
    20   15   16 1
    21   18   19 2
    22   18   20 1
    23    1   21 1
    24    2   22 1
    25    3   23 1
    26    4   24 1
    27    7   25 1
    28   16   26 1
    29   16   27 1
    30   16   28 1
@<TRIPOS>PROPERTY_DATA
  Total_Score	| 7.6433
  Crash		| -0.1848
  Polar		| 3.7623
  FragIndex	| 1
  FragRMSD	| 0.190

