@<TRIPOS>MOLECULE
BindingDB_16245
 30 32 0 0 0
SMALL
NO_CHARGES


@<TRIPOS>ATOM
1    C        20.9916   -8.5847   17.4486  C     
2    C        22.2260   -8.3410   17.9260  C     
3    C        22.4261   -7.4828   18.9628  C     
4    C        21.3970   -6.8327   19.5527  C     
5    C        19.8601   -7.9540   17.9957  C     
6    C        20.0743   -7.0481   19.0888  C     
7    C        18.9667   -6.3716   19.6606  C     
8    C        17.6680   -6.5621   19.1655  C     
9    C        17.4810   -7.4420   18.0940  C     
10   C        18.5333   -8.1553   17.5117  C     
11   C        18.0404   -8.9886   16.5121  C     
12   S        15.9889   -7.7800   17.3094  S     
13   O        15.5235   -6.4579   16.5579  O     
14   O        15.0241   -8.4106   18.4021  O     
15   N        16.7273   -8.9180   16.3095  N     
16   C        15.9576   -9.7330   15.4087  C     
17   C        15.6201  -11.0248   16.0309  C     
18   O        14.7184  -11.8298   15.4162  O     
19   O        15.9200  -11.2644   17.3341  O     
20   O        18.7303   -9.7735   15.8765  O     
21   N        21.6625   -6.0093   20.5183  N     
22   O        21.4974   -6.3220   21.6327  O     
23   O        22.2240   -4.8960   20.2654  O     
24   H        20.9140   -9.2143   16.6890  H     
25   H        23.0087   -8.7958   17.5101  H     
26   H        23.3613   -7.3290   19.2745  H     
27   H        19.0861   -5.7145   20.4299  H     
28   H        16.8745   -6.0634   19.5655  H     
29   H        15.0125   -9.2539   15.1279  H     
30   H        16.5300   -9.8766   14.4832  H     
@<TRIPOS>BOND
     1    1    2 2
     2    1    5 1
     3    2    3 1
     4    3    4 2
     5    4    6 1
     6    4   21 am
     7    5    6 1
     8    5   10 2
     9    6    7 2
    10    7    8 1
    11    8    9 2
    12    9   10 1
    13    9   12 1
    14   10   11 1
    15   11   15 1
    16   11   20 2
    17   12   13 2
    18   12   14 2
    19   12   15 1
    20   15   16 1
    21   16   17 1
    22   17   18 2
    23   17   19 1
    24   21   22 2
    25   21   23 1
    26    1   24 1
    27    2   25 1
    28    3   26 1
    29    7   27 1
    30    8   28 1
    31   16   29 1
    32   16   30 1
@<TRIPOS>PROPERTY_DATA
  Total_Score	| 6.1062
  Crash		| -0.6673
  Polar		| 3.1407
  FragIndex	| 1
  FragRMSD	| 0.288

