@<TRIPOS>MOLECULE
BindingDB_16240
 30 32 0 0 0
SMALL
NO_CHARGES


@<TRIPOS>ATOM
1    C        21.0678   -8.3298   17.5209  C     
2    C        22.2790   -8.1209   18.0747  C     
3    C        22.4113   -7.4149   19.2313  C     
4    C        21.3367   -6.8988   19.8547  C     
5    C        19.8883   -7.8200   18.1028  C     
6    C        20.0521   -7.0779   19.3182  C     
7    C        18.9255   -6.5336   19.9664  C     
8    C        17.6268   -6.6594   19.4269  C     
9    C        17.4903   -7.3722   18.2036  C     
10   C        18.5776   -7.9854   17.5630  C     
11   C        18.1600   -8.7415   16.4757  C     
12   S        16.0484   -7.7097   17.3108  S     
13   O        15.5083   -6.3810   16.6224  O     
14   O        15.0206   -8.4867   18.2449  O     
15   N        16.8521   -8.7293   16.2363  N     
16   O        18.8985   -9.4964   15.8601  O     
17   C        16.1448   -9.6638   15.3839  C     
18   C        15.7273  -10.8937   16.0547  C     
19   O        14.9169  -11.7716   15.4152  O     
20   O        16.0912  -11.1446   17.3336  O     
21   C        16.5088   -6.1150   20.1243  C     
22   O        15.3867   -5.7164   19.4846  O     
23   O        16.5977   -5.7734   21.4348  O     
24   H        21.0445   -8.8479   16.6860  H     
25   H        23.0925   -8.5003   17.6291  H     
26   H        23.3233   -7.2752   19.6126  H     
27   H        21.4782   -6.3871   20.6879  H     
28   H        19.0520   -6.0180   20.8453  H     
29   H        15.2421   -9.1979   14.9749  H     
30   H        16.7923   -9.9252   14.5423  H     
@<TRIPOS>BOND
     1    1    2 2
     2    1    5 1
     3    2    3 1
     4    3    4 2
     5    4    6 1
     6    5    6 1
     7    5   10 2
     8    6    7 2
     9    7    8 1
    10    8    9 2
    11    8   21 1
    12    9   10 1
    13    9   12 1
    14   10   11 1
    15   11   15 1
    16   11   16 2
    17   12   13 2
    18   12   14 2
    19   12   15 1
    20   15   17 1
    21   17   18 1
    22   18   19 2
    23   18   20 1
    24   21   22 2
    25   21   23 1
    26    1   24 1
    27    2   25 1
    28    3   26 1
    29    4   27 1
    30    7   28 1
    31   17   29 1
    32   17   30 1
@<TRIPOS>PROPERTY_DATA
  Total_Score	| 8.9544
  Crash		| -0.2511
  Polar		| 5.2571
  FragIndex	| 1
  FragRMSD	| 0.131

