@<TRIPOS>MOLECULE
BindingDB_50211825
 44 45 0 0 0
SMALL
NO_CHARGES


@<TRIPOS>ATOM
1    C        15.7580    6.5047   14.1470  C     
2    C        15.1929    6.5162   15.4553  C     
3    C        14.9817    5.3060   16.1579  C     
4    C        15.4283    4.0847   15.5971  C     
5    C        16.0569    4.0879   14.3322  C     
6    C        16.2242    5.2813   13.5969  C     
7    S        15.2844    2.5561   16.4411  S     
8    N        16.1546    1.2777   15.7708  N     
9    O        15.9706    2.7538   17.8627  O     
10   O        13.7668    2.1544   16.7027  O     
11   S        17.0361    5.1717   12.0466  S     
12   N        18.0983    6.4282   11.6925  N     
13   O        17.8357    3.8145   11.8068  O     
14   O        15.9409    5.2055   10.8938  O     
15   Cl       14.1978    5.3459   17.6723  Cl    
16   Cl       14.9379    7.9732   16.3036  Cl    
17   N        15.9094    7.6599   13.4193  N     
18   C        14.9729    8.5536   13.1033  C     
19   N        15.1976    9.6471   12.3867  N     
20   O        13.8080    8.3936   13.4373  O     
21   S        16.6809   10.1729   11.7833  S     
22   C        16.7675   11.9211   11.7450  C     
23   O        17.8710    9.7035   12.7321  O     
24   O        16.9111    9.6224   10.3093  O     
25   C        17.9593   12.5947   12.0923  C     
26   C        18.0235   13.9988   12.0659  C     
27   C        16.8978   14.7675   11.6971  C     
28   C        15.7090   14.0916   11.3439  C     
29   C        15.6442   12.6850   11.3670  C     
30   C        16.9720   16.2449   11.6915  C     
31   H        16.3904    3.2027   13.9360  H     
32   H        16.6311    0.6609   16.3495  H     
33   H        16.0950    1.0964   14.8202  H     
34   H        17.9552    6.9690   10.9013  H     
35   H        18.8719    6.5858   12.2572  H     
36   H        16.7553    7.7630   12.9699  H     
37   H        14.4242   10.1953   12.1864  H     
38   H        18.7915   12.0734   12.3758  H     
39   H        18.8984   14.4638   12.3219  H     
40   H        14.8778   14.6209   11.0656  H     
41   H        14.7608   12.2337   11.1100  H     
42   H        17.1936   16.6038   12.7000  H     
43   H        16.0311   16.6964   11.3651  H     
44   H        17.7627   16.5700   11.0113  H     
@<TRIPOS>BOND
     1    1    2 2
     2    1    6 1
     3    1   17 1
     4    2    3 1
     5    2   16 1
     6    3    4 2
     7    3   15 1
     8    4    5 1
     9    4    7 1
    10    5    6 2
    11    6   11 1
    12    7    8 am
    13    7    9 2
    14    7   10 2
    15   11   12 am
    16   11   13 2
    17   11   14 2
    18   17   18 am
    19   18   19 am
    20   18   20 2
    21   19   21 1
    22   21   22 1
    23   21   23 2
    24   21   24 2
    25   22   25 2
    26   22   29 1
    27   25   26 1
    28   26   27 2
    29   27   28 1
    30   27   30 1
    31   28   29 2
    32    5   31 1
    33    8   32 1
    34    8   33 1
    35   12   34 1
    36   12   35 1
    37   17   36 1
    38   19   37 1
    39   25   38 1
    40   26   39 1
    41   28   40 1
    42   29   41 1
    43   30   42 1
    44   30   43 1
    45   30   44 1
@<TRIPOS>PROPERTY_DATA
  Total_Score	| 5.4534
  Crash		| -2.8300
  Polar		| 3.8894
  FragIndex	| 1
  FragRMSD	| 0.625

