@<TRIPOS>MOLECULE
BindingDB_50190241
 26 27 0 0 0
SMALL
NO_CHARGES


@<TRIPOS>ATOM
1    C        15.9465    4.3598   14.5804  C     
2    C        15.3242    4.5265   15.8330  C     
3    C        14.9271    5.8325   16.2326  C     
4    C        15.1282    6.9230   15.3608  C     
5    S        14.2362    6.1606   17.8029  S     
6    S        15.1881    3.0969   16.8388  S     
7    N        14.0540    2.9904   18.0727  N     
8    O        14.9908    1.7735   15.9798  O     
9    O        16.5948    2.8317   17.5306  O     
10   C        16.1691    5.4583   13.7321  C     
11   C        15.7536    6.7533   14.1051  C     
12   N        15.9215    7.8472   13.3237  N     
13   C        16.5279    7.9039   12.0309  C     
14   N        17.3509    6.7946   11.6669  N     
15   S        17.0052    5.2501   12.2325  S     
16   O        16.1073    4.4467   11.1938  O     
17   O        18.3548    4.4782   12.5513  O     
18   H        16.2682    3.4371   14.2866  H     
19   H        14.8329    7.8597   15.6526  H     
20   H        13.0324    5.6467   17.4554  H     
21   H        13.1786    2.6169   17.8995  H     
22   H        14.2632    3.3581   18.9537  H     
23   H        15.5545    8.6809   13.6606  H     
24   H        15.7366    8.0157   11.2879  H     
25   H        17.1510    8.7966   11.9942  H     
26   H        17.9226    6.8914   10.8814  H     
@<TRIPOS>BOND
     1    1    2 2
     2    1   10 1
     3    2    3 1
     4    2    6 1
     5    3    4 2
     6    3    5 1
     7    4   11 1
     8    6    7 am
     9    6    8 2
    10    6    9 2
    11   10   11 2
    12   10   15 1
    13   11   12 1
    14   12   13 1
    15   13   14 1
    16   14   15 1
    17   15   16 2
    18   15   17 2
    19    1   18 1
    20    4   19 1
    21    5   20 1
    22    7   21 1
    23    7   22 1
    24   12   23 1
    25   13   24 1
    26   13   25 1
    27   14   26 1
@<TRIPOS>PROPERTY_DATA
  Total_Score	| 6.2226
  Crash		| -1.0567
  Polar		| 4.0824
  FragIndex	| 1
  FragRMSD	| 0.944

