@<TRIPOS>MOLECULE
BindingDB_15246
 49 50 0 0 0
SMALL
NO_CHARGES


@<TRIPOS>ATOM
1    C        -3.5335   10.8259  -20.1789  C     
2    O        -3.0301   11.5900  -20.9893  O     
3    N        -2.8237    9.8573  -19.6036  N     
4    N        -4.8275   11.0388  -19.9606  N     
5    C        -1.4902    9.5162  -19.6954  C     
6    C        -0.4704   10.3359  -20.2477  C     
7    C        -1.1098    8.2606  -19.1385  C     
8    C         0.8708    9.9091  -20.2877  C     
9    C         0.2440    7.8471  -19.1621  C     
10   C         1.2279    8.6548  -19.7616  C     
11   Cl        2.0710   10.9158  -20.9289  Cl    
12   N        -5.4250    9.1572  -18.5826  N     
13   N        -7.9038   10.1806  -18.2236  N     
14   C        -5.7123   10.3439  -19.1832  C     
15   C        -7.5981    9.0004  -17.6283  C     
16   C        -7.0127   10.8659  -18.9877  C     
17   C        -6.3025    8.4681  -17.7971  C     
18   O        -5.9440    7.2591  -17.2533  O     
19   C        -5.4021    5.8936  -15.3297  C     
20   C        -5.2451    7.3082  -15.9768  C     
21   C        -3.7533    7.7000  -16.2066  C     
22   N        -5.2698    5.8171  -13.8347  N     
23   C        -5.4811    4.4219  -13.3414  C     
24   C        -4.0439    6.4175  -13.2357  C     
25   O        -2.0012    7.4752  -18.4663  O     
26   C        -2.6992    6.5288  -19.3025  C     
27   H        -3.3422    9.2738  -19.0345  H     
28   H        -5.2065   11.8139  -20.4133  H     
29   H        -0.6850   11.2681  -20.5929  H     
30   H         0.5142    6.9510  -18.7406  H     
31   H         2.2001    8.3332  -19.7827  H     
32   H        -8.3014    8.5078  -17.0703  H     
33   H        -7.3040   11.7472  -19.4065  H     
34   H        -6.4216    5.5716  -15.5662  H     
35   H        -4.7259    5.1793  -15.8092  H     
36   H        -5.7179    8.0383  -15.3066  H     
37   H        -3.2535    6.9320  -16.7933  H     
38   H        -3.2018    7.8312  -15.2739  H     
39   H        -3.6955    8.6560  -16.7357  H     
40   H        -6.0420    6.3704  -13.4632  H     
41   H        -6.4267    4.0228  -13.7079  H     
42   H        -5.5296    4.4039  -12.2511  H     
43   H        -4.6730    3.7617  -13.6659  H     
44   H        -3.1403    6.1227  -13.7808  H     
45   H        -3.9143    6.1359  -12.1857  H     
46   H        -4.1416    7.5042  -13.2396  H     
47   H        -3.2703    7.0318  -20.0948  H     
48   H        -3.4014    5.9803  -18.6734  H     
49   H        -2.0042    5.8052  -19.7439  H     
@<TRIPOS>BOND
     1    1    2 2
     2    1    3 am
     3    1    4 am
     4    3    5 1
     5    4   14 1
     6    5    6 2
     7    5    7 1
     8    6    8 1
     9    7    9 2
    10    7   25 1
    11    8   10 2
    12    8   11 1
    13    9   10 1
    14   12   14 1
    15   12   17 2
    16   13   15 2
    17   13   16 1
    18   14   16 2
    19   15   17 1
    20   17   18 1
    21   18   20 1
    22   19   20 1
    23   19   22 1
    24   20   21 1
    25   22   23 1
    26   22   24 1
    27   25   26 1
    28    3   27 1
    29    4   28 1
    30    6   29 1
    31    9   30 1
    32   10   31 1
    33   15   32 1
    34   16   33 1
    35   19   34 1
    36   19   35 1
    37   20   36 1
    38   21   37 1
    39   21   38 1
    40   21   39 1
    41   22   40 1
    42   23   41 1
    43   23   42 1
    44   23   43 1
    45   24   44 1
    46   24   45 1
    47   24   46 1
    48   26   47 1
    49   26   48 1
    50   26   49 1
@<TRIPOS>PROPERTY_DATA
  Total_Score	| 10.0200
  Crash		| -1.1113
  Polar		| 4.7164
  FragIndex	| 1
  FragRMSD	| 1.095

