@<TRIPOS>MOLECULE
BindingDB_29039
 42 43 0 0 0
SMALL
NO_CHARGES


@<TRIPOS>ATOM
1    C         5.0588  -34.7187   -0.7178  C     
2    C         6.0118  -33.7533   -0.3564  C     
3    C         7.1063  -33.4619   -1.2097  C     
4    C         7.2071  -34.1554   -2.4381  C     
5    C         6.2578  -35.1310   -2.7941  C     
6    C         5.1754  -35.4279   -1.9305  C     
7    C         8.0650  -32.4796   -0.8349  C     
8    N         4.2002  -36.3333   -2.2161  N     
9    C         4.2819  -37.4818   -2.8793  C     
10   C         3.1750  -38.2572   -2.9798  C     
11   O         5.3325  -37.9044   -3.3461  O     
12   C         2.5081  -38.4162   -4.1518  C     
13   C         2.7760  -38.8004   -1.8943  C     
14   N         2.4073  -39.2709   -0.9159  N     
15   C         1.3421  -39.2787   -4.3051  C     
16   O         2.8813  -37.7352   -5.2465  O     
17   C         8.6202  -32.4646    0.4681  C     
18   C         9.5303  -31.4607    0.8505  C     
19   C         9.9100  -30.4683   -0.0686  C     
20   C         9.4183  -30.5022   -1.3968  C     
21   C         8.4748  -31.4840   -1.7516  C     
22   O         9.7504  -29.5764   -2.3532  O     
23   C        11.1582  -29.4290   -2.6488  C     
24   C        11.3433  -29.0497   -4.1321  C     
25   H         4.2751  -34.8969   -0.0830  H     
26   H         5.8935  -33.2510    0.5276  H     
27   H         7.9782  -33.9672   -3.0845  H     
28   H         6.3439  -35.5923   -3.6954  H     
29   H         3.3411  -36.1566   -1.7966  H     
30   H         1.5812  -40.2941   -3.9858  H     
31   H         1.0189  -39.3198   -5.3463  H     
32   H         0.5200  -38.8938   -3.7014  H     
33   H         3.0626  -36.8167   -4.9457  H     
34   H         8.3840  -33.2023    1.1416  H     
35   H         9.9151  -31.4707    1.8000  H     
36   H        10.5554  -29.7302    0.2212  H     
37   H         8.0814  -31.4588   -2.6905  H     
38   H        11.5678  -28.6319   -2.0229  H     
39   H        11.7209  -30.3505   -2.4600  H     
40   H        10.9265  -29.8320   -4.7676  H     
41   H        12.4003  -28.9371   -4.3628  H     
42   H        10.8359  -28.1114   -4.3536  H     
@<TRIPOS>BOND
     1    1    2 1
     2    1    6 2
     3    2    3 2
     4    3    4 1
     5    3    7 1
     6    4    5 2
     7    5    6 1
     8    6    8 1
     9    7   17 2
    10    7   21 1
    11    8    9 am
    12    9   10 1
    13    9   11 2
    14   10   12 2
    15   10   13 1
    16   12   15 1
    17   12   16 1
    18   13   14 3
    19   17   18 1
    20   18   19 2
    21   19   20 1
    22   20   21 2
    23   20   22 1
    24   22   23 1
    25   23   24 1
    26    1   25 1
    27    2   26 1
    28    4   27 1
    29    5   28 1
    30    8   29 1
    31   15   30 1
    32   15   31 1
    33   15   32 1
    34   16   33 1
    35   17   34 1
    36   18   35 1
    37   19   36 1
    38   21   37 1
    39   23   38 1
    40   23   39 1
    41   24   40 1
    42   24   41 1
    43   24   42 1
@<TRIPOS>PROPERTY_DATA
  Total_Score	| 8.0477
  Crash		| -1.6781
  Polar		| 2.5726
  FragIndex	| 1
  FragRMSD	| 1.296

