@<TRIPOS>MOLECULE
BindingDB_29038
 35 36 0 0 0
SMALL
NO_CHARGES


@<TRIPOS>ATOM
1    C         5.1287  -34.8239   -0.6171  C     
2    C         6.0675  -33.8202   -0.3004  C     
3    C         7.0713  -33.4374   -1.2197  C     
4    C         7.1087  -34.0906   -2.4747  C     
5    C         6.1819  -35.0964   -2.7972  C     
6    C         5.1866  -35.4784   -1.8706  C     
7    C         8.0328  -32.4409   -0.8823  C     
8    N         4.2412  -36.4034   -2.1735  N     
9    C         4.3815  -37.5493   -2.8143  C     
10   C         3.2958  -38.3420   -2.9877  C     
11   O         5.4666  -37.9514   -3.2209  O     
12   C         2.7357  -38.5093   -4.2089  C     
13   C         2.8228  -38.8953   -1.9358  C     
14   N         2.4011  -39.3730   -0.9783  N     
15   C         1.6438  -39.4316   -4.4870  C     
16   O         3.1891  -37.8152   -5.2549  O     
17   C         8.6983  -32.4858    0.3661  C     
18   C         9.6629  -31.5203    0.6930  C     
19   C         9.9838  -30.4960   -0.2199  C     
20   C         9.3153  -30.4356   -1.4539  C     
21   C         8.3495  -31.4016   -1.7848  C     
22   Cl        3.9688  -35.2489    0.5502  Cl    
23   H         6.0013  -33.3600    0.6140  H     
24   H         7.8308  -33.8386   -3.1625  H     
25   H         6.2194  -35.5237   -3.7253  H     
26   H         3.3653  -36.2369   -1.7889  H     
27   H         1.9247  -40.4319   -4.1575  H     
28   H         1.4233  -39.4735   -5.5558  H     
29   H         0.7428  -39.1167   -3.9590  H     
30   H         3.2352  -36.8800   -4.9460  H     
31   H         8.5076  -33.2314    1.0393  H     
32   H        10.1576  -31.5753    1.5918  H     
33   H        10.6956  -29.8061    0.0107  H     
34   H         9.5432  -29.6887   -2.1180  H     
35   H         7.8706  -31.3267   -2.6853  H     
@<TRIPOS>BOND
     1    1    2 1
     2    1    6 2
     3    1   22 1
     4    2    3 2
     5    3    4 1
     6    3    7 1
     7    4    5 2
     8    5    6 1
     9    6    8 1
    10    7   17 2
    11    7   21 1
    12    8    9 am
    13    9   10 1
    14    9   11 2
    15   10   12 2
    16   10   13 1
    17   12   15 1
    18   12   16 1
    19   13   14 3
    20   17   18 1
    21   18   19 2
    22   19   20 1
    23   20   21 2
    24    2   23 1
    25    4   24 1
    26    5   25 1
    27    8   26 1
    28   15   27 1
    29   15   28 1
    30   15   29 1
    31   16   30 1
    32   17   31 1
    33   18   32 1
    34   19   33 1
    35   20   34 1
    36   21   35 1
@<TRIPOS>PROPERTY_DATA
  Total_Score	| 7.1859
  Crash		| -1.7958
  Polar		| 2.1785
  FragIndex	| 1
  FragRMSD	| 1.378

