@<TRIPOS>MOLECULE
BindingDB_29036
 35 36 0 0 0
SMALL
NO_CHARGES


@<TRIPOS>ATOM
1    C         5.0656  -34.5729   -0.8651  C     
2    C         5.9881  -33.5620   -0.5440  C     
3    C         7.1619  -33.3774   -1.3106  C     
4    C         7.3793  -34.2469   -2.4062  C     
5    C         6.4468  -35.2452   -2.7378  C     
6    C         5.2773  -35.4374   -1.9639  C     
7    C         8.1133  -32.3680   -0.9604  C     
8    N         4.2970  -36.3559   -2.2241  N     
9    C         4.3519  -37.5218   -2.8570  C     
10   C         3.2217  -38.2652   -2.9687  C     
11   O         5.3901  -38.0054   -3.2838  O     
12   C         2.5447  -38.4123   -4.1323  C     
13   C         2.8092  -38.8113   -1.8822  C     
14   N         2.4358  -39.2858   -0.9048  N     
15   C         1.3698  -39.2566   -4.2933  C     
16   O         2.9384  -37.7507   -5.2289  O     
17   C         8.7183  -31.4903   -1.9080  C     
18   C         9.7092  -30.5665   -1.4888  C     
19   C        10.0377  -30.4550   -0.1273  C     
20   C         9.4266  -31.2913    0.8165  C     
21   C         8.4937  -32.2533    0.4029  C     
22   Cl       10.5881  -29.5849   -2.5620  Cl    
23   Cl        8.2150  -31.4630   -3.5342  Cl    
24   H         4.2243  -34.6788   -0.2887  H     
25   H         5.7913  -32.9545    0.2533  H     
26   H         8.2167  -34.1574   -2.9753  H     
27   H         6.6252  -35.8211   -3.5638  H     
28   H         3.4356  -36.1452   -1.8434  H     
29   H         1.5949  -40.2783   -3.9914  H     
30   H         1.0403  -39.2831   -5.3303  H     
31   H         0.5490  -38.8787   -3.6851  H     
32   H         3.1850  -36.8417   -4.9423  H     
33   H        10.7351  -29.7688    0.1841  H     
34   H         9.6768  -31.2109    1.8027  H     
35   H         8.0985  -32.8819    1.1054  H     
@<TRIPOS>BOND
     1    1    2 1
     2    1    6 2
     3    2    3 2
     4    3    4 1
     5    3    7 1
     6    4    5 2
     7    5    6 1
     8    6    8 1
     9    7   17 2
    10    7   21 1
    11    8    9 am
    12    9   10 1
    13    9   11 2
    14   10   12 2
    15   10   13 1
    16   12   15 1
    17   12   16 1
    18   13   14 3
    19   17   18 1
    20   17   23 1
    21   18   19 2
    22   18   22 1
    23   19   20 1
    24   20   21 2
    25    1   24 1
    26    2   25 1
    27    4   26 1
    28    5   27 1
    29    8   28 1
    30   15   29 1
    31   15   30 1
    32   15   31 1
    33   16   32 1
    34   19   33 1
    35   20   34 1
    36   21   35 1
@<TRIPOS>PROPERTY_DATA
  Total_Score	| 6.4523
  Crash		| -1.9688
  Polar		| 2.5573
  FragIndex	| 1
  FragRMSD	| 1.381

