@<TRIPOS>MOLECULE
BindingDB_29029
 39 40 0 0 0
SMALL
NO_CHARGES


@<TRIPOS>ATOM
1    C         5.1470  -34.7632   -0.7503  C     
2    C         6.0757  -33.7570   -0.4345  C     
3    C         7.1294  -33.4153   -1.3202  C     
4    C         7.2029  -34.1089   -2.5551  C     
5    C         6.2549  -35.0938   -2.8941  C     
6    C         5.2144  -35.4401   -1.9937  C     
7    C         8.0924  -32.4224   -0.9634  C     
8    N         4.2490  -36.3607   -2.2733  N     
9    C         4.3445  -37.5521   -2.8555  C     
10   C         3.2375  -38.3315   -2.9469  C     
11   O         5.4031  -38.0108   -3.2620  O     
12   C         2.5384  -38.4491   -4.1031  C     
13   C         2.8952  -38.9395   -1.8771  C     
14   N         2.5870  -39.4755   -0.9093  N     
15   C         1.4181  -39.3612   -4.2715  C     
16   O         2.8633  -37.7249   -5.1792  O     
17   C         8.4292  -32.2665    0.4102  C     
18   C         9.3398  -31.2821    0.8242  C     
19   C         9.9749  -30.4718   -0.1324  C     
20   C         9.7030  -30.6566   -1.5004  C     
21   C         8.7289  -31.5941   -1.9267  C     
22   Cl        3.9795  -35.1722    0.4207  Cl    
23   O         8.4319  -31.7743   -3.2575  O     
24   C         8.3969  -30.5848   -4.0886  C     
25   H         5.9772  -33.2666    0.4596  H     
26   H         7.9627  -33.9116   -3.2102  H     
27   H         6.3332  -35.5458   -3.8036  H     
28   H         3.3671  -36.1561   -1.9132  H     
29   H         1.7511  -40.3892   -4.0922  H     
30   H         1.0077  -39.3113   -5.2818  H     
31   H         0.6183  -39.1165   -3.5651  H     
32   H         3.0055  -36.8054   -4.8716  H     
33   H         8.0198  -32.8751    1.1301  H     
34   H         9.5517  -31.1690    1.8172  H     
35   H        10.6355  -29.7491    0.1591  H     
36   H        10.2137  -30.0999   -2.1996  H     
37   H         7.6463  -29.8657   -3.7322  H     
38   H         8.1283  -30.8826   -5.1023  H     
39   H         9.3762  -30.0844   -4.1233  H     
@<TRIPOS>BOND
     1    1    2 1
     2    1    6 2
     3    1   22 1
     4    2    3 2
     5    3    4 1
     6    3    7 1
     7    4    5 2
     8    5    6 1
     9    6    8 1
    10    7   17 2
    11    7   21 1
    12    8    9 am
    13    9   10 1
    14    9   11 2
    15   10   12 2
    16   10   13 1
    17   12   15 1
    18   12   16 1
    19   13   14 3
    20   17   18 1
    21   18   19 2
    22   19   20 1
    23   20   21 2
    24   21   23 1
    25   23   24 1
    26    2   25 1
    27    4   26 1
    28    5   27 1
    29    8   28 1
    30   15   29 1
    31   15   30 1
    32   15   31 1
    33   16   32 1
    34   17   33 1
    35   18   34 1
    36   19   35 1
    37   20   36 1
    38   24   37 1
    39   24   38 1
    40   24   39 1
@<TRIPOS>PROPERTY_DATA
  Total_Score	| 6.7238
  Crash		| -2.5483
  Polar		| 2.5783
  FragIndex	| 1
  FragRMSD	| 1.383

