@<TRIPOS>MOLECULE
BindingDB_29032
 35 36 0 0 0
SMALL
NO_CHARGES


@<TRIPOS>ATOM
1    C         5.0101  -34.8334   -0.6062  C     
2    C         5.9565  -33.8347   -0.2814  C     
3    C         7.0110  -33.4907   -1.1679  C     
4    C         7.0687  -34.1751   -2.4088  C     
5    C         6.1286  -35.1682   -2.7425  C     
6    C         5.1060  -35.5261   -1.8367  C     
7    C         7.9937  -32.5113   -0.8011  C     
8    N         4.1715  -36.4694   -2.1413  N     
9    C         4.3502  -37.6561   -2.7081  C     
10   C         3.2705  -38.4318   -2.9657  C     
11   O         5.4639  -38.0794   -3.0049  O     
12   C         2.6702  -39.2100   -2.0300  C     
13   C         2.8092  -38.3105   -4.1554  C     
14   N         2.3972  -38.1854   -5.2263  N     
15   C         1.5444  -40.0910   -2.3117  C     
16   O         3.0778  -39.1984   -0.7555  O     
17   C         8.5536  -31.6441   -1.7730  C     
18   C         9.5602  -30.7228   -1.4314  C     
19   C         9.9986  -30.6190   -0.0982  C     
20   C         9.4437  -31.4602    0.8817  C     
21   C         8.4649  -32.4074    0.5314  C     
22   Cl        3.8060  -35.2084    0.5309  Cl    
23   Cl       10.3017  -29.7819   -2.6305  Cl    
24   H         5.8602  -33.3498    0.6179  H     
25   H         7.8099  -33.9704   -3.0818  H     
26   H         6.1883  -35.6169   -3.6590  H     
27   H         3.2723  -36.2787   -1.8390  H     
28   H         0.6931  -39.5198   -2.6835  H     
29   H         1.2235  -40.6341   -1.4182  H     
30   H         1.8321  -40.8327   -3.0645  H     
31   H         4.0363  -38.9888   -0.7531  H     
32   H         8.2313  -31.6758   -2.7441  H     
33   H        10.7261  -29.9477    0.1582  H     
34   H         9.7737  -31.4034    1.8529  H     
35   H         8.1155  -33.0359    1.2666  H     
@<TRIPOS>BOND
     1    1    2 1
     2    1    6 2
     3    1   22 1
     4    2    3 2
     5    3    4 1
     6    3    7 1
     7    4    5 2
     8    5    6 1
     9    6    8 1
    10    7   17 2
    11    7   21 1
    12    8    9 am
    13    9   10 1
    14    9   11 2
    15   10   12 2
    16   10   13 1
    17   12   15 1
    18   12   16 1
    19   13   14 3
    20   17   18 1
    21   18   19 2
    22   18   23 1
    23   19   20 1
    24   20   21 2
    25    2   24 1
    26    4   25 1
    27    5   26 1
    28    8   27 1
    29   15   28 1
    30   15   29 1
    31   15   30 1
    32   16   31 1
    33   17   32 1
    34   19   33 1
    35   20   34 1
    36   21   35 1
@<TRIPOS>PROPERTY_DATA
  Total_Score	| 6.3465
  Crash		| -2.1930
  Polar		| 2.3467
  FragIndex	| 1
  FragRMSD	| 0.309

