@<TRIPOS>MOLECULE
BindingDB_29025
 35 36 0 0 0
SMALL
NO_CHARGES


@<TRIPOS>ATOM
1    C         5.0856  -34.7578   -0.5704  C     
2    C         6.0234  -33.7614   -0.2339  C     
3    C         7.0485  -33.4041   -1.1387  C     
4    C         7.0923  -34.0516   -2.3990  C     
5    C         6.1656  -35.0590   -2.7250  C     
6    C         5.1694  -35.4406   -1.8010  C     
7    C         8.0045  -32.4103   -0.7951  C     
8    N         4.2254  -36.3855   -2.0612  N     
9    C         4.3515  -37.5255   -2.7248  C     
10   C         3.2605  -38.3177   -2.8960  C     
11   O         5.4180  -37.9086   -3.1930  O     
12   C         2.6798  -38.4710   -4.1087  C     
13   C         2.8041  -38.8920   -1.8484  C     
14   N         2.3898  -39.3953   -0.9030  N     
15   C         1.5842  -39.3919   -4.3829  C     
16   O         3.1122  -37.7643   -5.1636  O     
17   C         8.7010  -32.4565    0.4389  C     
18   C         9.6862  -31.4981    0.7406  C     
19   C         9.9850  -30.4802   -0.1816  C     
20   C         9.2941  -30.4143   -1.4053  C     
21   C         8.3069  -31.3697   -1.7047  C     
22   H         4.3598  -35.0013    0.1096  H     
23   H         5.9424  -33.3014    0.6749  H     
24   H         7.8150  -33.8060   -3.0843  H     
25   H         6.2196  -35.5050   -3.6461  H     
26   H         3.3695  -36.2461   -1.6326  H     
27   H         1.8645  -40.3948   -4.0640  H     
28   H         1.3511  -39.4318   -5.4467  H     
29   H         0.6878  -39.0825   -3.8460  H     
30   H         3.2838  -36.8555   -4.8278  H     
31   H         8.5181  -33.2025    1.1135  H     
32   H        10.2015  -31.5574    1.6201  H     
33   H        10.7104  -29.7903    0.0267  H     
34   H         9.5129  -29.6772   -2.0783  H     
35   H         7.8079  -31.2918   -2.5951  H     
@<TRIPOS>BOND
     1    1    2 1
     2    1    6 2
     3    2    3 2
     4    3    4 1
     5    3    7 1
     6    4    5 2
     7    5    6 1
     8    6    8 1
     9    7   17 2
    10    7   21 1
    11    8    9 am
    12    9   10 1
    13    9   11 2
    14   10   12 2
    15   10   13 1
    16   12   15 1
    17   12   16 1
    18   13   14 3
    19   17   18 1
    20   18   19 2
    21   19   20 1
    22   20   21 2
    23    1   22 1
    24    2   23 1
    25    4   24 1
    26    5   25 1
    27    8   26 1
    28   15   27 1
    29   15   28 1
    30   15   29 1
    31   16   30 1
    32   17   31 1
    33   18   32 1
    34   19   33 1
    35   20   34 1
    36   21   35 1
@<TRIPOS>PROPERTY_DATA
  Total_Score	| 7.3513
  Crash		| -1.3088
  Polar		| 2.3273
  FragIndex	| 1
  FragRMSD	| 1.386

