@<TRIPOS>MOLECULE
BindingDB_29037
 35 36 0 0 0
SMALL
NO_CHARGES


@<TRIPOS>ATOM
1    C         5.0511  -34.6901   -0.5884  C     
2    C         5.9847  -33.6884   -0.2688  C     
3    C         7.0326  -33.3651   -1.1593  C     
4    C         7.1267  -34.0885   -2.3743  C     
5    C         6.1922  -35.0896   -2.6947  C     
6    C         5.1532  -35.4136   -1.7962  C     
7    C         7.9934  -32.3725   -0.8232  C     
8    N         4.2007  -36.3556   -2.0502  N     
9    C         4.3054  -37.4771   -2.7582  C     
10   C         3.2103  -38.2725   -2.9305  C     
11   O         5.3618  -37.8523   -3.2563  O     
12   C         2.6856  -38.4942   -4.1565  C     
13   C         2.7290  -38.8019   -1.8720  C     
14   N         2.2869  -39.2678   -0.9231  N     
15   C         1.6161  -39.4440   -4.4280  C     
16   O         3.1553  -37.8349   -5.2218  O     
17   C         8.4011  -31.3586   -1.7320  C     
18   C         9.4106  -30.4412   -1.3718  C     
19   C        10.0039  -30.5031   -0.1012  C     
20   C         9.5844  -31.4737    0.8250  C     
21   C         8.5921  -32.4028    0.4647  C     
22   Cl        7.6824  -31.1202   -3.2553  Cl    
23   H         4.2980  -34.9015    0.0757  H     
24   H         5.8755  -33.1859    0.6150  H     
25   H         7.8830  -33.8859   -3.0383  H     
26   H         6.2681  -35.5586   -3.5955  H     
27   H         3.3526  -36.2221   -1.6025  H     
28   H         1.8984  -40.4352   -4.0644  H     
29   H         1.4124  -39.5291   -5.4971  H     
30   H         0.6960  -39.1277   -3.9317  H     
31   H         3.1338  -36.8848   -4.9875  H     
32   H         9.7168  -29.7158   -2.0241  H     
33   H        10.7329  -29.8356    0.1507  H     
34   H        10.0094  -31.5182    1.7510  H     
35   H         8.3219  -33.1193    1.1464  H     
@<TRIPOS>BOND
     1    1    2 1
     2    1    6 2
     3    2    3 2
     4    3    4 1
     5    3    7 1
     6    4    5 2
     7    5    6 1
     8    6    8 1
     9    7   17 2
    10    7   21 1
    11    8    9 am
    12    9   10 1
    13    9   11 2
    14   10   12 2
    15   10   13 1
    16   12   15 1
    17   12   16 1
    18   13   14 3
    19   17   18 1
    20   17   22 1
    21   18   19 2
    22   19   20 1
    23   20   21 2
    24    1   23 1
    25    2   24 1
    26    4   25 1
    27    5   26 1
    28    8   27 1
    29   15   28 1
    30   15   29 1
    31   15   30 1
    32   16   31 1
    33   18   32 1
    34   19   33 1
    35   20   34 1
    36   21   35 1
@<TRIPOS>PROPERTY_DATA
  Total_Score	| 6.5723
  Crash		| -1.9403
  Polar		| 2.1333
  FragIndex	| 1
  FragRMSD	| 1.380

