@<TRIPOS>MOLECULE
BindingDB_29026
 39 41 0 0 0
SMALL
NO_CHARGES


@<TRIPOS>ATOM
1    C         5.0339  -34.7826   -0.6064  C     
2    C         5.9704  -33.7940   -0.2572  C     
3    C         7.0239  -33.4529   -1.1390  C     
4    C         7.1007  -34.1163   -2.3871  C     
5    C         6.1744  -35.1146   -2.7300  C     
6    C         5.1492  -35.4755   -1.8267  C     
7    C         7.9735  -32.4564   -0.7896  C     
8    N         4.2254  -36.4407   -2.0985  N     
9    C         4.4062  -37.6102   -2.6948  C     
10   C         3.3315  -38.3774   -2.9588  C     
11   O         5.5139  -38.0227   -3.0173  O     
12   C         2.7578  -39.1779   -2.0299  C     
13   C         2.8802  -38.2470   -4.1510  C     
14   N         2.4879  -38.0932   -5.2233  N     
15   C         1.6699  -40.1119   -2.3027  C     
16   O         3.1964  -39.2016   -0.7698  O     
17   C         8.6474  -32.4876    0.4554  C     
18   C         9.6072  -31.5083    0.7712  C     
19   C         9.9019  -30.4865   -0.1498  C     
20   C         9.2367  -30.4431   -1.3868  C     
21   C         8.2781  -31.4197   -1.7031  C     
22   C         0.4901  -40.1408   -1.3125  C     
23   C         0.2948  -39.5578   -2.7158  C     
24   H         4.2865  -35.0110    0.0493  H     
25   H         5.8682  -33.3142    0.6420  H     
26   H         7.8430  -33.8852   -3.0583  H     
27   H         6.2488  -35.5635   -3.6471  H     
28   H         3.3294  -36.2750   -1.7553  H     
29   H         1.9174  -41.0748   -2.7586  H     
30   H         3.3981  -38.2682   -0.5317  H     
31   H         8.4690  -33.2372    1.1291  H     
32   H        10.1064  -31.5526    1.6632  H     
33   H        10.6052  -29.7797    0.0726  H     
34   H         9.4543  -29.7047   -2.0609  H     
35   H         7.7989  -31.3625   -2.6067  H     
36   H         0.0473  -41.1213   -1.1364  H     
37   H         0.5188  -39.4140   -0.4967  H     
38   H         0.1982  -38.4707   -2.7648  H     
39   H        -0.2958  -40.1773   -3.3929  H     
@<TRIPOS>BOND
     1    1    2 1
     2    1    6 2
     3    2    3 2
     4    3    4 1
     5    3    7 1
     6    4    5 2
     7    5    6 1
     8    6    8 1
     9    7   17 2
    10    7   21 1
    11    8    9 am
    12    9   10 1
    13    9   11 2
    14   10   12 2
    15   10   13 1
    16   12   15 1
    17   12   16 1
    18   13   14 3
    19   15   22 1
    20   15   23 1
    21   17   18 1
    22   18   19 2
    23   19   20 1
    24   20   21 2
    25   22   23 1
    26    1   24 1
    27    2   25 1
    28    4   26 1
    29    5   27 1
    30    8   28 1
    31   15   29 1
    32   16   30 1
    33   17   31 1
    34   18   32 1
    35   19   33 1
    36   20   34 1
    37   21   35 1
    38   22   36 1
    39   22   37 1
    40   23   38 1
    41   23   39 1
@<TRIPOS>PROPERTY_DATA
  Total_Score	| 7.9884
  Crash		| -1.4241
  Polar		| 2.1900
  FragIndex	| 1
  FragRMSD	| 0.327

