@<TRIPOS>MOLECULE
BindingDB_29034
 35 36 0 0 0
SMALL
NO_CHARGES


@<TRIPOS>ATOM
1    C         4.9164  -34.3508   -1.1372  C     
2    C         5.8422  -33.3640   -0.7681  C     
3    C         7.1179  -33.3058   -1.3642  C     
4    C         7.4554  -34.2737   -2.3496  C     
5    C         6.5154  -35.2585   -2.7195  C     
6    C         5.2415  -35.3268   -2.1040  C     
7    C         8.0216  -32.2870   -0.9589  C     
8    N         4.2673  -36.2551   -2.3735  N     
9    C         4.3315  -37.4570   -2.9337  C     
10   C         3.1987  -38.1949   -3.0094  C     
11   O         5.3770  -37.9699   -3.3114  O     
12   C         2.4751  -38.2877   -4.1488  C     
13   C         2.8272  -38.7540   -1.9234  C     
14   N         2.4833  -39.2429   -0.9451  N     
15   C         1.2711  -39.1065   -4.2830  C     
16   O         2.8297  -37.5994   -5.2465  O     
17   C         8.4755  -32.1675    0.3805  C     
18   C         9.4111  -31.1684    0.7183  C     
19   C         9.8865  -30.2769   -0.2591  C     
20   C         9.4264  -30.3782   -1.5827  C     
21   C         8.5016  -31.3762   -1.9288  C     
22   Cl        7.9699  -33.2142    1.6194  Cl    
23   Cl        9.0027  -34.3490   -3.0543  Cl    
24   H         4.0027  -34.3693   -0.6659  H     
25   H         5.5740  -32.6760   -0.0579  H     
26   H         6.7731  -35.9383   -3.4370  H     
27   H         3.3849  -36.0091   -2.0474  H     
28   H         1.4923  -40.1514   -4.0487  H     
29   H         0.8774  -39.0651   -5.3014  H     
30   H         0.4954  -38.7430   -3.6040  H     
31   H         3.0900  -36.7063   -4.9326  H     
32   H         9.7530  -31.0883    1.6775  H     
33   H        10.5670  -29.5508   -0.0099  H     
34   H         9.7722  -29.7284   -2.2948  H     
35   H         8.1830  -31.4337   -2.9003  H     
@<TRIPOS>BOND
     1    1    2 1
     2    1    6 2
     3    2    3 2
     4    3    4 1
     5    3    7 1
     6    4    5 2
     7    4   23 1
     8    5    6 1
     9    6    8 1
    10    7   17 2
    11    7   21 1
    12    8    9 am
    13    9   10 1
    14    9   11 2
    15   10   12 2
    16   10   13 1
    17   12   15 1
    18   12   16 1
    19   13   14 3
    20   17   18 1
    21   17   22 1
    22   18   19 2
    23   19   20 1
    24   20   21 2
    25    1   24 1
    26    2   25 1
    27    5   26 1
    28    8   27 1
    29   15   28 1
    30   15   29 1
    31   15   30 1
    32   16   31 1
    33   18   32 1
    34   19   33 1
    35   20   34 1
    36   21   35 1
@<TRIPOS>PROPERTY_DATA
  Total_Score	| 6.4358
  Crash		| -2.2906
  Polar		| 2.8066
  FragIndex	| 1
  FragRMSD	| 1.395

