@<TRIPOS>MOLECULE
BindingDB_15654
 43 45 0 0 0
SMALL
NO_CHARGES


@<TRIPOS>ATOM
1    C         8.0833   32.9791   60.9721  C     
2    C         8.5274   33.0590   58.7505  C     
3    C         9.2255   34.2211   59.2196  C     
4    N         7.8479   32.3859   59.6841  N     
5    C         7.1188   31.1184   59.5722  C     
6    C         6.3676   30.7516   57.0910  C     
7    C         4.8773   30.8137   57.5048  C     
8    C         4.6953   31.7040   58.7629  C     
9    C         5.5938   31.2144   59.9318  C     
10   C         7.2676   30.2790   58.2617  C     
11   O         8.6516   32.7336   57.5757  O     
12   C         8.9628   34.2346   60.7394  C     
13   C        10.1891   34.2992   61.5340  C     
14   O        10.4211   35.3224   62.1763  O     
15   N        11.0554   33.2890   61.5347  N     
16   C        12.1985   33.2123   62.2686  C     
17   C        14.4889   33.8928   62.7989  C     
18   C        13.3239   34.0323   62.0198  C     
19   C        12.2592   32.2508   63.2972  C     
20   C        13.4122   32.1217   64.0821  C     
21   C        14.5344   32.9482   63.8411  C     
22   Cl       15.9046   32.8293   64.8298  Cl    
23   H         7.1353   33.2683   61.4364  H     
24   H         8.5749   32.2432   61.6191  H     
25   H        10.2899   34.1459   58.9663  H     
26   H         8.8124   35.1184   58.7434  H     
27   H         7.5584   30.4782   60.3426  H     
28   H         6.4860   30.0640   56.2476  H     
29   H         6.6685   31.7515   56.7510  H     
30   H         4.2862   31.2253   56.6829  H     
31   H         4.5118   29.8016   57.7155  H     
32   H         4.9439   32.7365   58.5211  H     
33   H         3.6442   31.6713   59.0739  H     
34   H         5.2461   30.2198   60.2274  H     
35   H         5.4280   31.8632   60.7966  H     
36   H         8.3080   30.2608   57.9483  H     
37   H         6.9914   29.2374   58.4895  H     
38   H         8.3477   35.1126   60.9673  H     
39   H        10.7785   32.4743   61.0781  H     
40   H        15.2974   34.4893   62.6121  H     
41   H        13.3051   34.7268   61.2693  H     
42   H        11.4528   31.6590   63.4897  H     
43   H        13.4357   31.4351   64.8374  H     
@<TRIPOS>BOND
     1    1    4 1
     2    1   12 1
     3    2    3 1
     4    2    4 1
     5    2   11 2
     6    3   12 1
     7    4    5 1
     8    5    9 1
     9    5   10 1
    10    6    7 1
    11    6   10 1
    12    7    8 1
    13    8    9 1
    14   12   13 1
    15   13   14 2
    16   13   15 am
    17   15   16 1
    18   16   18 1
    19   16   19 2
    20   17   18 2
    21   17   21 1
    22   19   20 1
    23   20   21 2
    24   21   22 1
    25    1   23 1
    26    1   24 1
    27    3   25 1
    28    3   26 1
    29    5   27 1
    30    6   28 1
    31    6   29 1
    32    7   30 1
    33    7   31 1
    34    8   32 1
    35    8   33 1
    36    9   34 1
    37    9   35 1
    38   10   36 1
    39   10   37 1
    40   12   38 1
    41   15   39 1
    42   17   40 1
    43   18   41 1
    44   19   42 1
    45   20   43 1
@<TRIPOS>PROPERTY_DATA
  Total_Score	| 4.5551
  Crash		| -1.3602
  Polar		| 1.0458
  FragIndex	| 1
  FragRMSD	| 1.267

