@<TRIPOS>MOLECULE
BindingDB_50219576
 60 63 0 0 0
SMALL
NO_CHARGES


@<TRIPOS>ATOM
1    S        44.4320   13.6966    0.6136  S     
2    C        44.7810   15.1077    1.5150  C     
3    C        45.8167   14.7421    2.3857  C     
4    C        46.2751   13.4130    2.2415  C     
5    C        45.6119   12.6214    1.2799  C     
6    C        44.1443   16.3519    1.3504  C     
7    O        44.5992   17.4804    1.9374  O     
8    O        43.1337   16.5054    0.4744  O     
9    C        45.8172   11.2797    0.8223  C     
10   C        46.2599   10.2003    1.6458  C     
11   C        46.3810    8.8825    1.1442  C     
12   C        46.0425    8.6333   -0.1975  C     
13   C        45.6542    9.6766   -1.0420  C     
14   C        45.5461   10.9763   -0.5402  C     
15   Br       47.7015   12.8429    3.2684  Br    
16   O        46.3287   15.6256    3.3044  O     
17   C        45.8591   15.4159    4.6487  C     
18   C        45.5265   16.7172    5.2334  C     
19   O        46.4518   17.3760    5.9737  O     
20   O        44.2344   17.0994    5.3238  O     
21   N        46.7943    7.7801    1.8322  N     
22   C        48.0166    7.5560    2.5490  C     
23   N        49.7115    5.5343    3.8120  N     
24   C        49.0470    6.4944    4.6616  C     
25   C        47.7539    7.0130    3.9809  C     
26   C        48.7950    6.4781    1.7248  C     
27   C        50.0384    5.9273    2.4646  C     
28   S        50.2512    4.0650    4.4540  S     
29   C        49.1163    2.6781    4.2400  C     
30   O        51.6717    3.6956    3.8299  O     
31   O        50.6355    4.2249    5.9858  O     
32   C        48.5361    2.6399    2.8708  C     
33   C        47.1407    2.7409    2.6597  C     
34   C        46.5949    2.6746    1.3639  C     
35   C        47.4426    2.5151    0.2515  C     
36   C        48.8350    2.4283    0.4361  C     
37   C        49.3770    2.4823    1.7334  C     
38   Cl       49.8608    2.2425   -0.9014  Cl    
39   H        46.4209   10.3472    2.6365  H     
40   H        46.1311    7.6986   -0.5997  H     
41   H        45.4478    9.4952   -2.0252  H     
42   H        45.2699   11.7045   -1.2016  H     
43   H        44.9851   14.7649    4.7402  H     
44   H        46.6637   14.9510    5.2165  H     
45   H        46.2997    6.9685    1.6354  H     
46   H        48.6276    8.4632    2.6103  H     
47   H        48.7756    6.0742    5.6318  H     
48   H        49.7119    7.3417    4.8338  H     
49   H        47.3242    7.8074    4.5961  H     
50   H        47.0242    6.1940    3.9417  H     
51   H        48.1307    5.6290    1.5155  H     
52   H        49.1068    6.8991    0.7687  H     
53   H        50.8146    6.6952    2.4971  H     
54   H        50.4270    5.0922    1.8774  H     
55   H        49.6470    1.7398    4.4348  H     
56   H        48.3298    2.7681    4.9960  H     
57   H        46.5055    2.8667    3.4495  H     
58   H        45.5858    2.7346    1.2248  H     
59   H        47.0450    2.4696   -0.6861  H     
60   H        50.3884    2.4154    1.8671  H     
@<TRIPOS>BOND
     1    1    2 1
     2    1    5 1
     3    2    3 2
     4    2    6 1
     5    3    4 1
     6    3   16 1
     7    4    5 2
     8    4   15 1
     9    5    9 1
    10    6    7 2
    11    6    8 1
    12    9   10 2
    13    9   14 1
    14   10   11 1
    15   11   12 2
    16   11   21 1
    17   12   13 1
    18   13   14 2
    19   16   17 1
    20   17   18 1
    21   18   19 1
    22   18   20 2
    23   21   22 1
    24   22   25 1
    25   22   26 1
    26   23   24 1
    27   23   27 1
    28   23   28 1
    29   24   25 1
    30   26   27 1
    31   28   29 1
    32   28   30 2
    33   28   31 2
    34   29   32 1
    35   32   33 2
    36   32   37 1
    37   33   34 1
    38   34   35 2
    39   35   36 1
    40   36   37 2
    41   36   38 1
    42   10   39 1
    43   12   40 1
    44   13   41 1
    45   14   42 1
    46   17   43 1
    47   17   44 1
    48   21   45 1
    49   22   46 1
    50   24   47 1
    51   24   48 1
    52   25   49 1
    53   25   50 1
    54   26   51 1
    55   26   52 1
    56   27   53 1
    57   27   54 1
    58   29   55 1
    59   29   56 1
    60   33   57 1
    61   34   58 1
    62   35   59 1
    63   37   60 1
@<TRIPOS>PROPERTY_DATA
  Total_Score	| 10.6088
  Crash		| -3.6494
  Polar		| 9.2045
  FragIndex	| 1
  FragRMSD	| 1.267

