@<TRIPOS>MOLECULE
BindingDB_14236
 44 47 0 0 0
SMALL
NO_CHARGES


@<TRIPOS>ATOM
1    C        44.6184   15.1923    1.7346  C     
2    C        45.5424   14.8001    2.7267  C     
3    S        44.3063   13.8142    0.7440  S     
4    C        44.0511   16.4568    1.5199  C     
5    O        43.0943   16.6418    0.5934  O     
6    O        44.5193   17.5555    2.1524  O     
7    O        46.0064   15.5960    3.7434  O     
8    C        47.2123   16.3134    3.4070  C     
9    C        47.8278   16.8412    4.6341  C     
10   O        47.0983   17.5663    5.5115  O     
11   O        49.1683   17.0135    4.6661  O     
12   C        45.9194   13.4506    2.6144  C     
13   C        45.3467   12.7317    1.5763  C     
14   C        45.7588   11.3936    1.4666  C     
15   C        46.7079   11.0380    2.4373  C     
16   C        47.2715    9.7525    2.4914  C     
17   C        46.8371    8.7630    1.5737  C     
18   C        45.8772    9.1306    0.5946  C     
19   C        45.3435   10.4311    0.5317  C     
20   S        46.9955   12.4017    3.4459  S     
21   N        47.2495    7.4594    1.5729  N     
22   C        48.1323    6.7427    2.4529  C     
23   C        48.7368    6.1091    4.8915  C     
24   C        50.1846    6.5932    4.6304  C     
25   C        50.5846    6.3477    3.1527  C     
26   C        49.6258    7.1012    2.1922  C     
27   C        47.7313    6.8407    3.9571  C     
28   H        47.9420   15.6599    2.9205  H     
29   H        46.9831   17.1400    2.7325  H     
30   H        47.9842    9.5486    3.2019  H     
31   H        45.5451    8.4375   -0.0811  H     
32   H        44.6430   10.6636   -0.1837  H     
33   H        46.8554    6.9126    0.8685  H     
34   H        48.0173    5.6897    2.1700  H     
35   H        48.6579    5.0268    4.7301  H     
36   H        48.4816    6.3192    5.9329  H     
37   H        50.2547    7.6644    4.8450  H     
38   H        50.8721    6.0650    5.2951  H     
39   H        51.6082    6.7038    3.0024  H     
40   H        50.5643    5.2728    2.9270  H     
41   H        49.8857    6.8449    1.1607  H     
42   H        49.7707    8.1778    2.3114  H     
43   H        47.6811    7.8858    4.2639  H     
44   H        46.7356    6.4167    4.0972  H     
@<TRIPOS>BOND
     1    1    2 2
     2    1    3 1
     3    1    4 1
     4    2    7 1
     5    2   12 1
     6    3   13 1
     7    4    5 2
     8    4    6 1
     9    7    8 1
    10    8    9 1
    11    9   10 2
    12    9   11 1
    13   12   13 2
    14   12   20 1
    15   13   14 1
    16   14   15 2
    17   14   19 1
    18   15   16 1
    19   15   20 1
    20   16   17 2
    21   17   18 1
    22   17   21 1
    23   18   19 2
    24   21   22 1
    25   22   26 1
    26   22   27 1
    27   23   24 1
    28   23   27 1
    29   24   25 1
    30   25   26 1
    31    8   28 1
    32    8   29 1
    33   16   30 1
    34   18   31 1
    35   19   32 1
    36   21   33 1
    37   22   34 1
    38   23   35 1
    39   23   36 1
    40   24   37 1
    41   24   38 1
    42   25   39 1
    43   25   40 1
    44   26   41 1
    45   26   42 1
    46   27   43 1
    47   27   44 1
@<TRIPOS>PROPERTY_DATA
  Total_Score	| 13.0147
  Crash		| -1.1095
  Polar		| 7.4430
  FragIndex	| 1
  FragRMSD	| 0.765

