@<TRIPOS>MOLECULE
BindingDB_50219602
 60 63 0 0 0
SMALL
NO_CHARGES


@<TRIPOS>ATOM
1    S        44.4230   13.7470    0.9847  S     
2    C        44.8150   15.2393    1.7430  C     
3    C        45.9223   14.9796    2.5626  C     
4    C        46.3698   13.6439    2.5372  C     
5    C        45.6524   12.7685    1.6985  C     
6    C        44.1533   16.4615    1.5209  C     
7    O        43.1251   16.5525    0.6522  O     
8    O        44.5877   17.6145    2.0737  O     
9    C        45.8464   11.3641    1.4820  C     
10   C        46.8070   10.6240    2.2204  C     
11   C        46.9831    9.2293    2.0616  C     
12   C        46.1721    8.5522    1.1263  C     
13   C        45.2143    9.2534    0.3744  C     
14   C        45.0596   10.6413    0.5469  C     
15   O        46.5163   15.9792    3.2925  O     
16   C        46.6360   15.7911    4.7135  C     
17   C        45.3561   15.5610    5.4055  C     
18   O        44.3255   16.4280    5.2509  O     
19   O        45.2419   14.5617    6.3122  O     
20   N        47.8907    8.6249    2.8714  N     
21   C        48.1377    7.2171    3.0533  C     
22   N        49.8498    4.9174    3.6915  N     
23   C        49.4763    5.1613    2.3168  C     
24   C        49.1401    6.6473    2.0126  C     
25   C        48.7105    7.0091    4.4803  C     
26   C        49.0723    5.5278    4.7473  C     
27   S        50.7119    3.4968    4.0605  S     
28   C        50.2077    1.9064    3.3612  C     
29   O        52.2418    3.7402    3.6906  O     
30   O        50.7739    3.2796    5.6331  O     
31   C        48.9104    1.9847    2.6506  C     
32   C        47.7046    2.1352    3.3746  C     
33   C        46.4737    2.2356    2.7024  C     
34   C        46.4284    2.1707    1.2975  C     
35   C        47.6150    1.9882    0.5693  C     
36   C        48.8455    1.8877    1.2400  C     
37   H        47.1785   13.3575    3.0985  H     
38   H        47.3936   11.1052    2.9077  H     
39   H        46.2527    7.5436    0.9947  H     
40   H        44.6178    8.7482   -0.2882  H     
41   H        44.3472   11.1118   -0.0121  H     
42   H        47.3231   14.9615    4.9104  H     
43   H        47.0788   16.7040    5.1231  H     
44   H        48.3780    9.2162    3.4723  H     
45   H        47.1897    6.6694    2.9964  H     
46   H        50.2743    4.8405    1.6389  H     
47   H        48.5917    4.5587    2.0849  H     
48   H        48.7078    6.7235    1.0108  H     
49   H        50.0615    7.2410    2.0246  H     
50   H        49.6095    7.6235    4.6059  H     
51   H        47.9720    7.3381    5.2201  H     
52   H        48.1492    4.9560    4.8761  H     
53   H        49.6175    5.5112    5.6955  H     
54   H        51.0008    1.5786    2.6885  H     
55   H        50.1517    1.1705    4.1685  H     
56   H        47.7185    2.1921    4.3966  H     
57   H        45.6114    2.3619    3.2371  H     
58   H        45.5353    2.2533    0.8118  H     
59   H        47.5841    1.9415   -0.4488  H     
60   H        49.6991    1.7634    0.6920  H     
@<TRIPOS>BOND
     1    1    2 1
     2    1    5 1
     3    2    3 2
     4    2    6 1
     5    3    4 1
     6    3   15 1
     7    4    5 2
     8    5    9 1
     9    6    7 2
    10    6    8 1
    11    9   10 2
    12    9   14 1
    13   10   11 1
    14   11   12 2
    15   11   20 1
    16   12   13 1
    17   13   14 2
    18   15   16 1
    19   16   17 1
    20   17   18 1
    21   17   19 2
    22   20   21 1
    23   21   24 1
    24   21   25 1
    25   22   23 1
    26   22   26 1
    27   22   27 1
    28   23   24 1
    29   25   26 1
    30   27   28 1
    31   27   29 2
    32   27   30 2
    33   28   31 1
    34   31   32 2
    35   31   36 1
    36   32   33 1
    37   33   34 2
    38   34   35 1
    39   35   36 2
    40    4   37 1
    41   10   38 1
    42   12   39 1
    43   13   40 1
    44   14   41 1
    45   16   42 1
    46   16   43 1
    47   20   44 1
    48   21   45 1
    49   23   46 1
    50   23   47 1
    51   24   48 1
    52   24   49 1
    53   25   50 1
    54   25   51 1
    55   26   52 1
    56   26   53 1
    57   28   54 1
    58   28   55 1
    59   32   56 1
    60   33   57 1
    61   34   58 1
    62   35   59 1
    63   36   60 1
@<TRIPOS>PROPERTY_DATA
  Total_Score	| 11.8229
  Crash		| -1.8021
  Polar		| 8.6397
  FragIndex	| 1
  FragRMSD	| 1.082

