@<TRIPOS>MOLECULE
BindingDB_14230
 26 28 0 0 0
SMALL
NO_CHARGES


@<TRIPOS>ATOM
1    C        44.5955   15.1994    1.7101  C     
2    C        45.5165   14.7898    2.6953  C     
3    S        44.2648   13.8402    0.7013  S     
4    C        44.0394   16.4669    1.5086  C     
5    O        44.4945   17.5762    2.1395  O     
6    O        43.1388   16.6511    0.5094  O     
7    O        45.9839   15.5896    3.7263  O     
8    C        47.2076   16.2833    3.4147  C     
9    C        47.8264   16.8447    4.6344  C     
10   O        47.1023   17.5772    5.5346  O     
11   O        49.1611   17.0135    4.6360  O     
12   C        45.8717   13.4369    2.5675  C     
13   C        45.2905   12.7318    1.5109  C     
14   C        45.6806   11.3837    1.4008  C     
15   C        46.5993   11.0049    2.4029  C     
16   C        47.1163    9.6967    2.4579  C     
17   C        46.6815    8.7606    1.4987  C     
18   C        45.7570    9.1307    0.5006  C     
19   C        45.2529   10.4515    0.4430  C     
20   S        46.9046   12.3517    3.4221  S     
21   H        47.9524   15.6008    2.9824  H     
22   H        47.0192   17.0900    2.6886  H     
23   H        47.7946    9.4392    3.1729  H     
24   H        47.0344    7.8010    1.5287  H     
25   H        45.4552    8.4540   -0.1969  H     
26   H        44.5852   10.7228   -0.2864  H     
@<TRIPOS>BOND
     1    1    2 2
     2    1    3 1
     3    1    4 1
     4    2    7 1
     5    2   12 1
     6    3   13 1
     7    4    5 2
     8    4    6 1
     9    7    8 1
    10    8    9 1
    11    9   10 2
    12    9   11 1
    13   12   13 2
    14   12   20 1
    15   13   14 1
    16   14   15 2
    17   14   19 1
    18   15   16 1
    19   15   20 1
    20   16   17 2
    21   17   18 1
    22   18   19 2
    23    8   21 1
    24    8   22 1
    25   16   23 1
    26   17   24 1
    27   18   25 1
    28   19   26 1
@<TRIPOS>PROPERTY_DATA
  Total_Score	| 10.5439
  Crash		| -0.4548
  Polar		| 7.4361
  FragIndex	| 1
  FragRMSD	| 0.142

