@<TRIPOS>MOLECULE
BindingDB_14235
 44 47 0 0 0
SMALL
NO_CHARGES


@<TRIPOS>ATOM
1    C        44.6658   15.1652    1.7658  C     
2    C        45.6309   14.6730    2.6670  C     
3    S        44.1870   13.8643    0.7296  S     
4    C        44.1418   16.4622    1.6633  C     
5    O        44.7041   17.5081    2.3197  O     
6    O        43.1085   16.7298    0.8345  O     
7    O        46.1216   15.4779    3.6611  O     
8    C        47.3086   16.2291    3.3785  C     
9    C        47.8021   16.8880    4.6035  C     
10   O        46.9695   17.5152    5.4823  O     
11   O        49.1395   16.9701    4.8126  O     
12   C        45.9163   13.3087    2.4520  C     
13   C        45.2091   12.6891    1.4337  C     
14   C        45.4619   11.3280    1.2201  C     
15   C        46.4612   10.8157    2.0715  C     
16   C        46.8822    9.4636    1.9917  C     
17   C        46.2398    8.6356    1.0283  C     
18   C        45.2266    9.1494    0.1919  C     
19   C        44.8404   10.5004    0.2714  C     
20   S        46.9422   12.1032    3.1296  S     
21   N        47.8538    9.0316    2.8420  N     
22   C        48.3561    7.6990    3.0013  C     
23   C        50.5021    5.7839    3.9036  C     
24   C        50.2769    6.0758    2.3965  C     
25   C        49.6680    7.4952    2.1831  C     
26   C        48.6042    7.4100    4.5061  C     
27   C        49.2075    5.9951    4.7344  C     
28   H        48.0802   15.5471    3.0205  H     
29   H        47.1344   17.0142    2.6385  H     
30   H        46.4954    7.6451    0.9347  H     
31   H        44.7775    8.5292   -0.4947  H     
32   H        44.0981   10.8559   -0.3418  H     
33   H        48.2330    9.7075    3.4295  H     
34   H        47.6112    6.9845    2.6606  H     
35   H        50.8510    4.7545    4.0228  H     
36   H        51.2848    6.4486    4.2853  H     
37   H        51.2342    6.0084    1.8712  H     
38   H        49.6064    5.3281    1.9690  H     
39   H        49.4732    7.6381    1.1138  H     
40   H        50.4175    8.2413    2.4855  H     
41   H        49.2908    8.1529    4.9300  H     
42   H        47.6554    7.4708    5.0495  H     
43   H        48.4695    5.2349    4.4525  H     
44   H        49.4388    5.8623    5.7979  H     
@<TRIPOS>BOND
     1    1    2 2
     2    1    3 1
     3    1    4 1
     4    2    7 1
     5    2   12 1
     6    3   13 1
     7    4    5 2
     8    4    6 1
     9    7    8 1
    10    8    9 1
    11    9   10 2
    12    9   11 1
    13   12   13 2
    14   12   20 1
    15   13   14 1
    16   14   15 2
    17   14   19 1
    18   15   16 1
    19   15   20 1
    20   16   17 2
    21   16   21 1
    22   17   18 1
    23   18   19 2
    24   21   22 1
    25   22   25 1
    26   22   26 1
    27   23   24 1
    28   23   27 1
    29   24   25 1
    30   26   27 1
    31    8   28 1
    32    8   29 1
    33   17   30 1
    34   18   31 1
    35   19   32 1
    36   21   33 1
    37   22   34 1
    38   23   35 1
    39   23   36 1
    40   24   37 1
    41   24   38 1
    42   25   39 1
    43   25   40 1
    44   26   41 1
    45   26   42 1
    46   27   43 1
    47   27   44 1
@<TRIPOS>PROPERTY_DATA
  Total_Score	| 11.7635
  Crash		| -1.0196
  Polar		| 7.0389
  FragIndex	| 1
  FragRMSD	| 0.446

