@<TRIPOS>MOLECULE
BindingDB_14238
 52 55 0 0 0
SMALL
NO_CHARGES


@<TRIPOS>ATOM
1    C        44.5985   15.2420    1.7405  C     
2    C        45.5563   14.8643    2.7030  C     
3    S        44.2339   13.8464    0.7822  S     
4    C        44.0351   16.5134    1.5337  C     
5    O        44.4452   17.5988    2.2284  O     
6    O        43.1063   16.7061    0.5771  O     
7    O        46.0530   15.6528    3.7038  O     
8    C        47.1904   16.4471    3.3284  C     
9    C        47.8047   16.9444    4.5671  C     
10   O        49.1557   16.9670    4.6931  O     
11   O        47.0687   17.5856    5.4989  O     
12   C        45.9123   13.5134    2.5951  C     
13   C        45.2957   12.7654    1.5956  C     
14   C        45.6883   11.4203    1.5177  C     
15   C        46.6753   11.0944    2.4677  C     
16   C        47.2507    9.8185    2.5323  C     
17   C        46.8127    8.8159    1.6343  C     
18   C        45.8015    9.1389    0.6920  C     
19   C        45.2337   10.4291    0.6310  C     
20   S        47.0103   12.4828    3.4273  S     
21   N        47.3248    7.5572    1.5900  N     
22   C        48.3913    6.9927    2.3718  C     
23   C        49.8057    4.8749    2.6824  C     
24   C        49.0993    6.1351    4.7079  C     
25   C        48.0222    6.9014    3.8828  C     
26   C        48.7011    5.5681    1.8443  C     
27   N        49.5064    4.8880    4.0979  N     
28   C        49.4551    2.2556    5.4890  C     
29   C        48.4275    1.8375    4.4058  C     
30   S        50.3465    3.7680    5.0623  S     
31   O        51.6730    3.2935    4.3172  O     
32   O        50.8295    4.4510    6.4274  O     
33   H        47.9318   15.8726    2.7683  H     
34   H        46.8821   17.3011    2.7257  H     
35   H        47.9809    9.6406    3.2224  H     
36   H        45.4640    8.4297    0.0375  H     
37   H        44.5084   10.6433   -0.0534  H     
38   H        46.9840    6.9834    0.8848  H     
39   H        49.3010    7.5877    2.2654  H     
40   H        49.9089    3.8530    2.3022  H     
41   H        50.7589    5.3940    2.5196  H     
42   H        49.9890    6.7707    4.8253  H     
43   H        48.6883    5.9367    5.7155  H     
44   H        47.9153    7.9061    4.2955  H     
45   H        47.0641    6.3856    3.9946  H     
46   H        47.7953    4.9529    1.8794  H     
47   H        49.0292    5.6299    0.8045  H     
48   H        48.9321    2.4292    6.4395  H     
49   H        50.1854    1.4412    5.6139  H     
50   H        47.6898    2.6335    4.2557  H     
51   H        47.9082    0.9290    4.7324  H     
52   H        48.9354    1.6272    3.4563  H     
@<TRIPOS>BOND
     1    1    2 2
     2    1    3 1
     3    1    4 1
     4    2    7 1
     5    2   12 1
     6    3   13 1
     7    4    5 2
     8    4    6 1
     9    7    8 1
    10    8    9 1
    11    9   10 2
    12    9   11 1
    13   12   13 2
    14   12   20 1
    15   13   14 1
    16   14   15 2
    17   14   19 1
    18   15   16 1
    19   15   20 1
    20   16   17 2
    21   17   18 1
    22   17   21 1
    23   18   19 2
    24   21   22 1
    25   22   25 1
    26   22   26 1
    27   23   26 1
    28   23   27 1
    29   24   25 1
    30   24   27 1
    31   27   30 1
    32   28   29 1
    33   28   30 1
    34   30   31 2
    35   30   32 2
    36    8   33 1
    37    8   34 1
    38   16   35 1
    39   18   36 1
    40   19   37 1
    41   21   38 1
    42   22   39 1
    43   23   40 1
    44   23   41 1
    45   24   42 1
    46   24   43 1
    47   25   44 1
    48   25   45 1
    49   26   46 1
    50   26   47 1
    51   28   48 1
    52   28   49 1
    53   29   50 1
    54   29   51 1
    55   29   52 1
@<TRIPOS>PROPERTY_DATA
  Total_Score	| 12.4883
  Crash		| -1.2522
  Polar		| 7.3289
  FragIndex	| 1
  FragRMSD	| 0.699

