@<TRIPOS>MOLECULE
BindingDB_50219589
 63 66 0 0 0
SMALL
NO_CHARGES


@<TRIPOS>ATOM
1    S        44.5618   13.5523    0.5730  S     
2    C        44.8303   14.9325    1.5702  C     
3    C        45.8360   14.5623    2.4669  C     
4    C        46.3892   13.2662    2.2687  C     
5    C        45.7640   12.5116    1.2475  C     
6    C        44.2097   16.1925    1.4083  C     
7    O        43.2462   16.3931    0.4813  O     
8    O        44.6673   17.3018    2.0384  O     
9    C        46.0417   11.1999    0.7537  C     
10   C        46.3509   10.1041    1.5968  C     
11   C        46.4524    8.7931    1.0737  C     
12   C        46.2676    8.5711   -0.3055  C     
13   C        46.0511    9.6604   -1.1631  C     
14   C        45.9348   10.9546   -0.6354  C     
15   O        46.2723   15.4342    3.4191  O     
16   C        45.6199   15.2965    4.6994  C     
17   C        45.3675   16.6477    5.2258  C     
18   O        46.3550   17.3331    5.8510  O     
19   O        44.0923   17.0884    5.3258  O     
20   N        46.6701    7.7118    1.8664  N     
21   C        47.9080    7.4285    2.5122  C     
22   N        49.5637    5.3913    3.8027  N     
23   C        48.9942    6.4218    4.6375  C     
24   C        47.7117    7.0296    3.9950  C     
25   C        48.5708    6.2601    1.7314  C     
26   C        49.8428    5.7104    2.4282  C     
27   S        50.2171    3.9769    4.4701  S     
28   C        49.1897    2.4771    4.3388  C     
29   O        51.6323    3.6826    3.7918  O     
30   O        50.6494    4.1844    5.9754  O     
31   C        48.5286    2.3930    3.0099  C     
32   C        49.2721    2.0476    1.8614  C     
33   C        48.6671    2.0402    0.5869  C     
34   C        47.3067    2.3788    0.4537  C     
35   C        46.5507    2.6969    1.5929  C     
36   C        47.1555    2.6928    2.8646  C     
37   C        47.5901   12.8530    3.0288  C     
38   H        46.3922   10.2272    2.6157  H     
39   H        46.3303    7.6337   -0.6937  H     
40   H        45.9719    9.5144   -2.1712  H     
41   H        45.7782   11.7266   -1.2889  H     
42   H        44.6574   14.7697    4.6466  H     
43   H        46.2743   14.7394    5.3788  H     
44   H        46.1492    6.9150    1.6205  H     
45   H        48.5839    8.3026    2.4774  H     
46   H        48.7247    6.0372    5.6277  H     
47   H        49.7383    7.2087    4.7752  H     
48   H        47.4192    7.9116    4.5770  H     
49   H        46.9073    6.2966    4.0738  H     
50   H        47.8473    5.4344    1.6420  H     
51   H        48.8246    6.5823    0.7155  H     
52   H        50.6374    6.4615    2.3775  H     
53   H        50.1796    4.8351    1.8580  H     
54   H        49.8041    1.6078    4.5210  H     
55   H        48.4441    2.5305    5.1455  H     
56   H        50.2667    1.8093    1.9355  H     
57   H        49.2170    1.8048   -0.2421  H     
58   H        46.8717    2.3958   -0.4698  H     
59   H        45.5626    2.9342    1.5000  H     
60   H        46.5872    2.9431    3.6779  H     
61   H        48.3061   13.6764    3.0239  H     
62   H        48.0814   11.9905    2.5845  H     
63   H        47.2979   12.6171    4.0501  H     
@<TRIPOS>BOND
     1    1    2 1
     2    1    5 1
     3    2    3 2
     4    2    6 1
     5    3    4 1
     6    3   15 1
     7    4    5 2
     8    4   37 1
     9    5    9 1
    10    6    7 2
    11    6    8 1
    12    9   10 2
    13    9   14 1
    14   10   11 1
    15   11   12 2
    16   11   20 1
    17   12   13 1
    18   13   14 2
    19   15   16 1
    20   16   17 1
    21   17   18 1
    22   17   19 2
    23   20   21 1
    24   21   24 1
    25   21   25 1
    26   22   23 1
    27   22   26 1
    28   22   27 1
    29   23   24 1
    30   25   26 1
    31   27   28 1
    32   27   29 2
    33   27   30 2
    34   28   31 1
    35   31   32 2
    36   31   36 1
    37   32   33 1
    38   33   34 2
    39   34   35 1
    40   35   36 2
    41   10   38 1
    42   12   39 1
    43   13   40 1
    44   14   41 1
    45   16   42 1
    46   16   43 1
    47   20   44 1
    48   21   45 1
    49   23   46 1
    50   23   47 1
    51   24   48 1
    52   24   49 1
    53   25   50 1
    54   25   51 1
    55   26   52 1
    56   26   53 1
    57   28   54 1
    58   28   55 1
    59   32   56 1
    60   33   57 1
    61   34   58 1
    62   35   59 1
    63   36   60 1
    64   37   61 1
    65   37   62 1
    66   37   63 1
@<TRIPOS>PROPERTY_DATA
  Total_Score	| 11.8592
  Crash		| -2.6746
  Polar		| 8.7275
  FragIndex	| 1
  FragRMSD	| 0.840

