@<TRIPOS>MOLECULE
BindingDB_50219599
 60 63 0 0 0
SMALL
NO_CHARGES


@<TRIPOS>ATOM
1    S        44.3845   13.5784    0.7922  S     
2    C        44.7427   15.0435    1.6274  C     
3    C        45.6691   14.7059    2.6190  C     
4    C        46.0000   13.3246    2.6679  C     
5    C        45.4070   12.5042    1.6832  C     
6    C        44.2291   16.3207    1.3066  C     
7    O        43.2334   16.4519    0.4003  O     
8    O        44.7732   17.4571    1.8017  O     
9    C        45.5831   11.1159    1.3552  C     
10   C        46.7955   10.4287    1.5940  C     
11   C        47.0414    9.1311    1.0788  C     
12   C        46.0404    8.5257    0.2782  C     
13   C        44.8043    9.1544    0.0862  C     
14   C        44.5744   10.4315    0.6257  C     
15   O        46.2407   15.6685    3.3975  O     
16   C        46.1073   15.5223    4.8236  C     
17   C        45.6669   16.8122    5.3465  C     
18   O        46.4833   17.4922    6.1784  O     
19   O        44.3453   17.0922    5.3680  O     
20   N        48.1863    8.4404    1.2974  N     
21   C        48.5876    7.9046    2.5724  C     
22   N        49.6980    5.5285    3.8967  N     
23   C        48.3033    5.8030    4.0707  C     
24   C        47.7575    6.6137    2.8677  C     
25   C        50.1068    7.5637    2.5483  C     
26   C        50.5687    6.6634    3.7364  C     
27   S        50.3228    4.0192    4.3521  S     
28   C        49.1987    2.6122    4.1579  C     
29   O        51.6070    3.6653    3.4780  O     
30   O        50.8262    4.0846    5.8620  O     
31   C        48.5428    2.5368    2.8278  C     
32   C        49.2961    2.2326    1.6646  C     
33   C        48.6832    2.1693    0.3968  C     
34   C        47.3006    2.3889    0.2718  C     
35   C        46.5340    2.6706    1.4191  C     
36   C        47.1491    2.7432    2.6861  C     
37   Cl       46.9743   12.7261    3.9128  Cl    
38   H        47.5907   10.9118    2.0325  H     
39   H        46.1929    7.5955   -0.1208  H     
40   H        44.0534    8.6797   -0.4277  H     
41   H        43.6600   10.8521    0.4609  H     
42   H        45.4149   14.7215    5.1350  H     
43   H        47.1004   15.2659    5.2225  H     
44   H        48.5060    7.9176    0.5255  H     
45   H        48.4087    8.6423    3.3616  H     
46   H        47.7159    4.8791    4.1149  H     
47   H        48.1474    6.3476    5.0039  H     
48   H        46.7249    6.8765    3.0722  H     
49   H        47.7612    5.9606    1.9904  H     
50   H        50.3497    7.0337    1.6189  H     
51   H        50.6840    8.4950    2.5581  H     
52   H        50.5532    7.2483    4.6593  H     
53   H        51.6106    6.3775    3.5506  H     
54   H        49.7661    1.6806    4.3240  H     
55   H        48.4561    2.6818    4.9611  H     
56   H        50.3007    2.0488    1.7325  H     
57   H        49.2428    1.9538   -0.4226  H     
58   H        46.8542    2.3359   -0.6387  H     
59   H        45.5232    2.8245    1.3351  H     
60   H        46.5650    2.9474    3.4949  H     
@<TRIPOS>BOND
     1    1    2 1
     2    1    5 1
     3    2    3 2
     4    2    6 1
     5    3    4 1
     6    3   15 1
     7    4    5 2
     8    4   37 1
     9    5    9 1
    10    6    7 2
    11    6    8 1
    12    9   10 2
    13    9   14 1
    14   10   11 1
    15   11   12 2
    16   11   20 1
    17   12   13 1
    18   13   14 2
    19   15   16 1
    20   16   17 1
    21   17   18 1
    22   17   19 2
    23   20   21 1
    24   21   24 1
    25   21   25 1
    26   22   23 1
    27   22   26 1
    28   22   27 1
    29   23   24 1
    30   25   26 1
    31   27   28 1
    32   27   29 2
    33   27   30 2
    34   28   31 1
    35   31   32 2
    36   31   36 1
    37   32   33 1
    38   33   34 2
    39   34   35 1
    40   35   36 2
    41   10   38 1
    42   12   39 1
    43   13   40 1
    44   14   41 1
    45   16   42 1
    46   16   43 1
    47   20   44 1
    48   21   45 1
    49   23   46 1
    50   23   47 1
    51   24   48 1
    52   24   49 1
    53   25   50 1
    54   25   51 1
    55   26   52 1
    56   26   53 1
    57   28   54 1
    58   28   55 1
    59   32   56 1
    60   33   57 1
    61   34   58 1
    62   35   59 1
    63   36   60 1
@<TRIPOS>PROPERTY_DATA
  Total_Score	| 11.4970
  Crash		| -2.8134
  Polar		| 8.8667
  FragIndex	| 1
  FragRMSD	| 1.338

