@<TRIPOS>MOLECULE
BindingDB_14233
 47 50 0 0 0
SMALL
NO_CHARGES


@<TRIPOS>ATOM
1    C        44.6936   15.1482    1.7310  C     
2    C        45.6735   14.6763    2.6262  C     
3    S        44.2636   13.8386    0.6948  S     
4    C        44.1001   16.4194    1.6599  C     
5    O        43.0894   16.6769    0.8033  O     
6    O        44.5680   17.4652    2.3792  O     
7    O        46.1448   15.3981    3.6912  O     
8    C        47.2152   16.3030    3.3751  C     
9    C        47.8163   16.8217    4.6147  C     
10   O        49.1566   16.9905    4.6525  O     
11   O        47.0959   17.5598    5.4909  O     
12   C        46.0029   13.3231    2.4234  C     
13   C        45.3322   12.6873    1.3880  C     
14   C        45.6170   11.3252    1.2021  C     
15   C        46.5812   10.8299    2.1031  C     
16   C        46.9507    9.4629    2.1169  C     
17   C        46.3279    8.6109    1.1678  C     
18   C        45.3793    9.1062    0.2481  C     
19   C        45.0158   10.4654    0.2695  C     
20   S        47.0345   12.1409    3.1362  S     
21   N        47.8348    9.0249    3.0485  N     
22   C        47.9376    7.7174    3.6265  C     
23   C        49.3774    7.3256    4.0649  C     
24   C        49.3802    5.9130    4.7381  C     
25   C        50.3870    7.3587    2.8728  C     
26   C        51.8069    6.9036    3.2886  C     
27   C        51.7874    5.5006    3.9500  C     
28   C        50.8003    5.4471    5.1472  C     
29   H        47.9973   15.7817    2.8149  H     
30   H        46.8621   17.1481    2.7812  H     
31   H        46.5664    7.6201    1.1140  H     
32   H        44.9437    8.4777   -0.4292  H     
33   H        44.3124   10.8153   -0.3815  H     
34   H        48.3811    9.7156    3.4703  H     
35   H        47.2982    7.7338    4.5089  H     
36   H        47.5308    6.9357    2.9768  H     
37   H        49.7140    8.0467    4.8158  H     
38   H        48.7570    5.9341    5.6381  H     
39   H        48.9505    5.1741    4.0550  H     
40   H        50.0292    6.7104    2.0665  H     
41   H        50.4483    8.3761    2.4791  H     
42   H        52.4516    6.8707    2.4048  H     
43   H        52.2304    7.6232    3.9912  H     
44   H        51.4903    4.7496    3.2087  H     
45   H        52.7935    5.2461    4.2981  H     
46   H        51.1788    6.0891    5.9510  H     
47   H        50.7520    4.4219    5.5314  H     
@<TRIPOS>BOND
     1    1    2 2
     2    1    3 1
     3    1    4 1
     4    2    7 1
     5    2   12 1
     6    3   13 1
     7    4    5 2
     8    4    6 1
     9    7    8 1
    10    8    9 1
    11    9   10 2
    12    9   11 1
    13   12   13 2
    14   12   20 1
    15   13   14 1
    16   14   15 2
    17   14   19 1
    18   15   16 1
    19   15   20 1
    20   16   17 2
    21   16   21 1
    22   17   18 1
    23   18   19 2
    24   21   22 1
    25   22   23 1
    26   23   24 1
    27   23   25 1
    28   24   28 1
    29   25   26 1
    30   26   27 1
    31   27   28 1
    32    8   29 1
    33    8   30 1
    34   17   31 1
    35   18   32 1
    36   19   33 1
    37   21   34 1
    38   22   35 1
    39   22   36 1
    40   23   37 1
    41   24   38 1
    42   24   39 1
    43   25   40 1
    44   25   41 1
    45   26   42 1
    46   26   43 1
    47   27   44 1
    48   27   45 1
    49   28   46 1
    50   28   47 1
@<TRIPOS>PROPERTY_DATA
  Total_Score	| 12.6783
  Crash		| -1.2598
  Polar		| 7.1298
  FragIndex	| 1
  FragRMSD	| 1.098

