@<TRIPOS>MOLECULE
BindingDB_14237
 42 45 0 0 0
SMALL
NO_CHARGES


@<TRIPOS>ATOM
1    C        44.6425   15.1968    1.7007  C     
2    C        45.5742   14.8099    2.6818  C     
3    S        44.3048   13.8142    0.7161  S     
4    C        44.0661   16.4566    1.5086  C     
5    O        44.5685   17.5586    2.1031  O     
6    O        43.1002   16.6355    0.5810  O     
7    O        46.0048   15.5969    3.7149  O     
8    C        47.2014   16.3460    3.4316  C     
9    C        47.7861   16.8354    4.6886  C     
10   O        47.0482   17.5827    5.5374  O     
11   O        49.1264   17.0031    4.7495  O     
12   C        45.9419   13.4631    2.5654  C     
13   C        45.3424   12.7304    1.5448  C     
14   C        45.7177   11.3790    1.4563  C     
15   C        46.6891   11.0409    2.4157  C     
16   C        47.2602    9.7633    2.4789  C     
17   C        46.8136    8.7614    1.5840  C     
18   C        45.8008    9.0950    0.6369  C     
19   C        45.2600   10.3946    0.5649  C     
20   S        47.0188   12.4177    3.3972  S     
21   N        47.2912    7.4873    1.5422  N     
22   C        48.1388    6.7649    2.4600  C     
23   C        48.7636    6.1395    4.8742  C     
24   C        50.5494    6.3889    3.2734  C     
25   C        49.6434    7.0970    2.2337  C     
26   C        47.7150    6.8330    3.9601  C     
27   O        50.0946    6.6421    4.6183  O     
28   H        47.9519   15.7220    2.9365  H     
29   H        46.9696   17.1981    2.7870  H     
30   H        47.9839    9.5750    3.1795  H     
31   H        45.4626    8.3903   -0.0239  H     
32   H        44.5448   10.6167   -0.1336  H     
33   H        47.0905    7.0077    0.7177  H     
34   H        48.0154    5.7160    2.1629  H     
35   H        48.5193    6.3418    5.9212  H     
36   H        48.7349    5.0511    4.7367  H     
37   H        50.5930    5.3132    3.0747  H     
38   H        51.5669    6.7828    3.1896  H     
39   H        49.9375    6.7847    1.2268  H     
40   H        49.8152    8.1695    2.3158  H     
41   H        47.6116    7.8766    4.2803  H     
42   H        46.7456    6.3439    4.0877  H     
@<TRIPOS>BOND
     1    1    2 2
     2    1    3 1
     3    1    4 1
     4    2    7 1
     5    2   12 1
     6    3   13 1
     7    4    5 2
     8    4    6 1
     9    7    8 1
    10    8    9 1
    11    9   10 2
    12    9   11 1
    13   12   13 2
    14   12   20 1
    15   13   14 1
    16   14   15 2
    17   14   19 1
    18   15   16 1
    19   15   20 1
    20   16   17 2
    21   17   18 1
    22   17   21 1
    23   18   19 2
    24   21   22 1
    25   22   25 1
    26   22   26 1
    27   23   26 1
    28   23   27 1
    29   24   25 1
    30   24   27 1
    31    8   28 1
    32    8   29 1
    33   16   30 1
    34   18   31 1
    35   19   32 1
    36   21   33 1
    37   22   34 1
    38   23   35 1
    39   23   36 1
    40   24   37 1
    41   24   38 1
    42   25   39 1
    43   25   40 1
    44   26   41 1
    45   26   42 1
@<TRIPOS>PROPERTY_DATA
  Total_Score	| 12.6116
  Crash		| -0.8701
  Polar		| 7.5158
  FragIndex	| 1
  FragRMSD	| 0.437

