@<TRIPOS>MOLECULE
BindingDB_14232
 26 28 0 0 0
SMALL
NO_CHARGES


@<TRIPOS>ATOM
1    C        44.6216   15.1907    1.6785  C     
2    C        45.5426   14.7966    2.6773  C     
3    S        44.2872   13.8192    0.6749  S     
4    C        44.0687   16.4683    1.4678  C     
5    O        43.1655   16.6676    0.4854  O     
6    O        44.4552   17.5646    2.1761  O     
7    O        46.0015   15.5848    3.6972  O     
8    C        47.2976   16.1546    3.4428  C     
9    C        47.8117   16.8175    4.6394  C     
10   O        49.1494   17.0028    4.7586  O     
11   O        47.0202   17.5070    5.5054  O     
12   C        45.8870   13.4358    2.5638  C     
13   C        45.3162   12.7280    1.5167  C     
14   C        45.7049   11.3822    1.4203  C     
15   C        46.6202   11.0051    2.4203  C     
16   C        47.1431    9.7003    2.4887  C     
17   C        46.7155    8.7551    1.5304  C     
18   C        45.7950    9.1294    0.5214  C     
19   C        45.2887   10.4416    0.4613  C     
20   S        46.9156   12.3695    3.4329  S     
21   Cl       47.2853    7.1612    1.6066  Cl    
22   H        48.0399   15.3914    3.1602  H     
23   H        47.2429   16.8991    2.6349  H     
24   H        47.8105    9.4477    3.2138  H     
25   H        45.4878    8.4462   -0.1700  H     
26   H        44.6228   10.7075   -0.2658  H     
@<TRIPOS>BOND
     1    1    2 2
     2    1    3 1
     3    1    4 1
     4    2    7 1
     5    2   12 1
     6    3   13 1
     7    4    5 2
     8    4    6 1
     9    7    8 1
    10    8    9 1
    11    9   10 2
    12    9   11 1
    13   12   13 2
    14   12   20 1
    15   13   14 1
    16   14   15 2
    17   14   19 1
    18   15   16 1
    19   15   20 1
    20   16   17 2
    21   17   18 1
    22   17   21 1
    23   18   19 2
    24    8   22 1
    25    8   23 1
    26   16   24 1
    27   18   25 1
    28   19   26 1
@<TRIPOS>PROPERTY_DATA
  Total_Score	| 10.5172
  Crash		| -0.4891
  Polar		| 7.1665
  FragIndex	| 1
  FragRMSD	| 1.041

