@<TRIPOS>MOLECULE
BindingDB_14239
 59 63 0 0 0
SMALL
NO_CHARGES


@<TRIPOS>ATOM
1    C        44.7034   15.2212    1.4079  C     
2    C        45.7185   14.9271    2.3353  C     
3    S        44.3021   13.7573    0.5824  S     
4    C        44.0978   16.4687    1.1839  C     
5    O        44.5411   17.5890    1.7968  O     
6    O        43.1293   16.6130    0.2531  O     
7    O        46.2636   15.8503    3.1751  O     
8    C        46.1640   15.5592    4.5807  C     
9    C        45.7601   16.8003    5.2536  C     
10   O        44.4437   17.0987    5.3504  O     
11   O        46.6211   17.4370    6.0751  O     
12   C        46.1030   13.5787    2.3010  C     
13   C        45.4394   12.7583    1.3940  C     
14   C        45.8334   11.4105    1.3965  C     
15   C        46.8534   11.1556    2.3306  C     
16   C        47.4055    9.8783    2.5002  C     
17   C        46.9122    8.8079    1.7142  C     
18   C        45.8729    9.0611    0.7825  C     
19   C        45.3341   10.3544    0.6157  C     
20   S        47.2386   12.6158    3.1549  S     
21   N        47.3867    7.5385    1.7839  N     
22   C        48.5322    7.0607    2.5058  C     
23   C        50.2514    5.1663    2.5701  C     
24   C        49.3948    6.0605    4.7178  C     
25   C        48.2043    6.7520    3.9987  C     
26   C        49.0594    5.7863    1.7978  C     
27   N        49.8913    4.9451    3.9490  N     
28   C        49.0913    2.1181    4.4099  C     
29   S        50.2691    3.4642    4.6821  S     
30   O        51.7104    3.0025    4.1924  O     
31   O        50.4938    3.6630    6.2444  O     
32   C        48.5088    2.1692    3.0467  C     
33   C        47.4281    2.3920    0.4356  C     
34   C        48.7608    1.9787    0.6123  C     
35   C        49.2974    1.8657    1.9095  C     
36   C        47.1593    2.5459    2.8536  C     
37   C        46.6215    2.6548    1.5581  C     
38   H        45.4305   14.7826    4.8204  H     
39   H        47.1457   15.2431    4.9461  H     
40   H        48.1484    9.7484    3.1887  H     
41   H        45.4911    8.2986    0.2192  H     
42   H        44.5812   10.5168   -0.0570  H     
43   H        46.9339    6.8832    1.2273  H     
44   H        49.3334    7.8051    2.4614  H     
45   H        50.5374    4.2410    2.0586  H     
46   H        51.1078    5.8478    2.5317  H     
47   H        50.2069    6.7814    4.8512  H     
48   H        49.0556    5.7637    5.7128  H     
49   H        47.9554    7.6758    4.5280  H     
50   H        47.3315    6.0956    4.0525  H     
51   H        48.2558    5.0474    1.7316  H     
52   H        49.3768    6.0315    0.7806  H     
53   H        49.5942    1.1607    4.5647  H     
54   H        48.3137    2.2054    5.1721  H     
55   H        47.0392    2.4890   -0.5051  H     
56   H        49.3404    1.7677   -0.2028  H     
57   H        50.2638    1.5531    2.0196  H     
58   H        46.5561    2.7489    3.6543  H     
59   H        45.6482    2.9388    1.4320  H     
@<TRIPOS>BOND
     1    1    2 2
     2    1    3 1
     3    1    4 1
     4    2    7 1
     5    2   12 1
     6    3   13 1
     7    4    5 2
     8    4    6 1
     9    7    8 1
    10    8    9 1
    11    9   10 2
    12    9   11 1
    13   12   13 2
    14   12   20 1
    15   13   14 1
    16   14   15 2
    17   14   19 1
    18   15   16 1
    19   15   20 1
    20   16   17 2
    21   17   18 1
    22   17   21 1
    23   18   19 2
    24   21   22 1
    25   22   25 1
    26   22   26 1
    27   23   26 1
    28   23   27 1
    29   24   25 1
    30   24   27 1
    31   27   29 1
    32   28   29 1
    33   28   32 1
    34   29   30 2
    35   29   31 2
    36   32   35 1
    37   32   36 2
    38   33   34 1
    39   33   37 2
    40   34   35 2
    41   36   37 1
    42    8   38 1
    43    8   39 1
    44   16   40 1
    45   18   41 1
    46   19   42 1
    47   21   43 1
    48   22   44 1
    49   23   45 1
    50   23   46 1
    51   24   47 1
    52   24   48 1
    53   25   49 1
    54   25   50 1
    55   26   51 1
    56   26   52 1
    57   28   53 1
    58   28   54 1
    59   33   55 1
    60   34   56 1
    61   35   57 1
    62   36   58 1
    63   37   59 1
@<TRIPOS>PROPERTY_DATA
  Total_Score	| 12.7005
  Crash		| -1.7675
  Polar		| 8.5468
  FragIndex	| 1
  FragRMSD	| 0.842

