@<TRIPOS>MOLECULE
BindingDB_14234
 47 50 0 0 0
SMALL
NO_CHARGES


@<TRIPOS>ATOM
1    C        44.5966   15.2238    1.7012  C     
2    C        45.5488   14.8560    2.6702  C     
3    S        44.2336   13.8302    0.7461  S     
4    C        44.0330   16.4823    1.4850  C     
5    O        44.5215   17.5891    2.0785  O     
6    O        43.1416   16.6756    0.4961  O     
7    O        45.9759   15.6772    3.6801  O     
8    C        47.1692   16.4279    3.3837  C     
9    C        47.7765   16.9158    4.6323  C     
10   O        47.0658   17.5908    5.5675  O     
11   O        49.1228   16.9874    4.7102  O     
12   C        45.9233   13.5075    2.5748  C     
13   C        45.2941   12.7683    1.5752  C     
14   C        45.6573   11.4199    1.4906  C     
15   C        46.6778   11.0816    2.3981  C     
16   C        47.2511    9.8033    2.4221  C     
17   C        46.7580    8.7956    1.5533  C     
18   C        45.6603    9.1222    0.6978  C     
19   C        45.1239   10.4283    0.6457  C     
20   S        47.0172   12.4530    3.3845  S     
21   N        47.2145    7.5106    1.4884  N     
22   C        48.5193    6.9764    1.7705  C     
23   C        49.4325    7.5274    2.9092  C     
24   C        50.2805    5.4823    4.9959  C     
25   C        48.8475    6.0692    5.0009  C     
26   C        48.7774    7.4627    4.3275  C     
27   C        50.8415    6.8507    2.9095  C     
28   C        50.8697    5.4423    3.5633  C     
29   H        47.9187   15.7980    2.8943  H     
30   H        46.9394   17.2782    2.7315  H     
31   H        47.9549    9.6229    3.1342  H     
32   H        45.2583    8.4100    0.0737  H     
33   H        44.3553   10.6419   -0.0046  H     
34   H        46.7399    6.9753    0.8317  H     
35   H        48.3360    5.9203    1.9773  H     
36   H        49.0917    7.0135    0.8370  H     
37   H        49.6510    8.5719    2.6582  H     
38   H        50.9245    6.0923    5.6404  H     
39   H        50.2553    4.4681    5.4046  H     
40   H        48.1690    5.3827    4.4862  H     
41   H        48.5043    6.1641    6.0340  H     
42   H        49.2917    8.1849    4.9657  H     
43   H        47.7280    7.7664    4.2848  H     
44   H        51.2218    6.7714    1.8800  H     
45   H        51.5332    7.4958    3.4609  H     
46   H        51.9052    5.0916    3.6056  H     
47   H        50.2956    4.7363    2.9486  H     
@<TRIPOS>BOND
     1    1    2 2
     2    1    3 1
     3    1    4 1
     4    2    7 1
     5    2   12 1
     6    3   13 1
     7    4    5 2
     8    4    6 1
     9    7    8 1
    10    8    9 1
    11    9   10 2
    12    9   11 1
    13   12   13 2
    14   12   20 1
    15   13   14 1
    16   14   15 2
    17   14   19 1
    18   15   16 1
    19   15   20 1
    20   16   17 2
    21   17   18 1
    22   17   21 1
    23   18   19 2
    24   21   22 1
    25   22   23 1
    26   23   26 1
    27   23   27 1
    28   24   25 1
    29   24   28 1
    30   25   26 1
    31   27   28 1
    32    8   29 1
    33    8   30 1
    34   16   31 1
    35   18   32 1
    36   19   33 1
    37   21   34 1
    38   22   35 1
    39   22   36 1
    40   23   37 1
    41   24   38 1
    42   24   39 1
    43   25   40 1
    44   25   41 1
    45   26   42 1
    46   26   43 1
    47   27   44 1
    48   27   45 1
    49   28   46 1
    50   28   47 1
@<TRIPOS>PROPERTY_DATA
  Total_Score	| 12.4134
  Crash		| -1.5702
  Polar		| 7.5191
  FragIndex	| 1
  FragRMSD	| 0.519

