@<TRIPOS>MOLECULE
BindingDB_14231
 26 28 0 0 0
SMALL
NO_CHARGES


@<TRIPOS>ATOM
1    C        44.6362   15.1725    1.7658  C     
2    C        45.6224   14.7222    2.6707  C     
3    S        44.1988   13.8371    0.7613  S     
4    C        44.0649   16.4461    1.6163  C     
5    O        43.1176   16.6689    0.6853  O     
6    O        44.5001   17.5216    2.3006  O     
7    O        46.1629   15.4460    3.6987  O     
8    C        47.2179   16.3476    3.3078  C     
9    C        47.8084   16.9204    4.5236  C     
10   O        47.0361   17.5653    5.4257  O     
11   O        49.1484   16.9097    4.7076  O     
12   C        45.9461   13.3645    2.4897  C     
13   C        45.2572   12.6992    1.4840  C     
14   C        45.5663   11.3428    1.3037  C     
15   C        46.5755   10.8920    2.1776  C     
16   C        47.0532    9.5681    2.1066  C     
17   C        46.4807    8.6926    1.1557  C     
18   C        45.4493    9.1375    0.3017  C     
19   C        44.9887   10.4652    0.3693  C     
20   S        47.0208   12.2181    3.1935  S     
21   Cl       48.3119    9.0192    3.0941  Cl    
22   H        47.9945   15.8297    2.7346  H     
23   H        46.8225   17.1619    2.6975  H     
24   H        46.8083    7.7245    1.0782  H     
25   H        45.0429    8.4935   -0.3794  H     
26   H        44.2501   10.7843   -0.2592  H     
@<TRIPOS>BOND
     1    1    2 2
     2    1    3 1
     3    1    4 1
     4    2    7 1
     5    2   12 1
     6    3   13 1
     7    4    5 2
     8    4    6 1
     9    7    8 1
    10    8    9 1
    11    9   10 2
    12    9   11 1
    13   12   13 2
    14   12   20 1
    15   13   14 1
    16   14   15 2
    17   14   19 1
    18   15   16 1
    19   15   20 1
    20   16   17 2
    21   16   21 1
    22   17   18 1
    23   18   19 2
    24    8   22 1
    25    8   23 1
    26   17   24 1
    27   18   25 1
    28   19   26 1
@<TRIPOS>PROPERTY_DATA
  Total_Score	| 10.1790
  Crash		| -0.6468
  Polar		| 7.1303
  FragIndex	| 1
  FragRMSD	| 0.793

