@<TRIPOS>MOLECULE
BindingDB_23570
 45 46 0 0 0
SMALL
NO_CHARGES


@<TRIPOS>ATOM
1    C      -185.8131  154.2431   34.0924  C     
2    C      -185.9418  155.6486   33.9644  C     
3    C      -185.9017  156.2753   32.7109  C     
4    C      -185.6867  155.5102   31.5580  C     
5    C      -185.5222  154.1227   31.6602  C     
6    C      -185.6198  153.4571   32.9111  C     
7    C      -185.9110  153.7019   35.4091  C     
8    O      -186.3164  152.4336   35.6449  O     
9    O      -185.6538  154.4481   36.5107  O     
10   N      -185.4771  152.0893   33.0246  N     
11   C      -185.6839  151.0905   32.1627  C     
12   O      -186.0517  151.3522   31.0207  O     
13   C      -185.5919  149.7409   32.5516  C     
14   C      -185.1305  148.0221   34.2477  C     
15   C      -185.1619  149.3694   33.8517  C     
16   C      -185.9510  148.6873   31.6620  C     
17   C      -185.5003  147.0006   33.3616  C     
18   Br     -185.4665  145.2629   34.0223  Br    
19   C      -185.8901  147.3242   32.0440  C     
20   C      -186.5388  146.4590   28.2078  C     
21   C      -186.7041  145.1640   27.3686  C     
22   N      -185.6473  146.2905   29.3357  N     
23   C      -184.2451  146.0155   29.0911  C     
24   C      -183.2839  146.0010   30.3110  C     
25   S      -186.3409  146.1019   30.8772  S     
26   O      -185.9808  144.6089   31.3023  O     
27   O      -187.9343  146.0300   30.8391  O     
28   H      -186.1004  156.2419   34.7805  H     
29   H      -186.0244  157.2864   32.6368  H     
30   H      -185.6383  155.9642   30.6432  H     
31   H      -185.3060  153.6118   30.8044  H     
32   H      -185.2581  151.7895   33.9132  H     
33   H      -184.8530  147.7878   35.2021  H     
34   H      -184.8770  150.0578   34.5472  H     
35   H      -186.2626  148.9152   30.7128  H     
36   H      -186.1638  147.2444   27.5437  H     
37   H      -187.5294  146.7922   28.5499  H     
38   H      -185.7333  144.8243   26.9912  H     
39   H      -187.3565  145.3693   26.5133  H     
40   H      -187.1595  144.3685   27.9623  H     
41   H      -184.1740  145.0484   28.5854  H     
42   H      -183.8590  146.7783   28.4055  H     
43   H      -183.4063  146.9189   30.8943  H     
44   H      -182.2506  145.9358   29.9617  H     
45   H      -183.4781  145.1484   30.9674  H     
@<TRIPOS>BOND
     1    1    2 2
     2    1    6 1
     3    1    7 1
     4    2    3 1
     5    3    4 2
     6    4    5 1
     7    5    6 2
     8    6   10 1
     9    7    8 2
    10    7    9 1
    11   10   11 am
    12   11   12 2
    13   11   13 1
    14   13   15 2
    15   13   16 1
    16   14   15 1
    17   14   17 2
    18   16   19 2
    19   17   18 1
    20   17   19 1
    21   19   25 1
    22   20   21 1
    23   20   22 1
    24   22   23 1
    25   22   25 1
    26   23   24 1
    27   25   26 2
    28   25   27 2
    29    2   28 1
    30    3   29 1
    31    4   30 1
    32    5   31 1
    33   10   32 1
    34   14   33 1
    35   15   34 1
    36   16   35 1
    37   20   36 1
    38   20   37 1
    39   21   38 1
    40   21   39 1
    41   21   40 1
    42   23   41 1
    43   23   42 1
    44   24   43 1
    45   24   44 1
    46   24   45 1
@<TRIPOS>PROPERTY_DATA
  Total_Score	| 6.6471
  Crash		| -1.5939
  Polar		| 2.7612
  FragIndex	| 1
  FragRMSD	| 0.611

