@<TRIPOS>MOLECULE
BindingDB_23575
 45 46 0 0 0
SMALL
NO_CHARGES


@<TRIPOS>ATOM
1    C      -185.8509  154.1762   34.0874  C     
2    C      -186.0243  155.5803   33.9193  C     
3    C      -185.9595  156.1750   32.6484  C     
4    C      -185.7022  155.3817   31.5160  C     
5    C      -185.4975  154.0050   31.6575  C     
6    C      -185.6361  153.3632   32.9201  C     
7    C      -185.9195  153.6784   35.4292  C     
8    O      -186.2684  152.4030   35.7347  O     
9    O      -185.6617  154.4831   36.4926  O     
10   N      -185.4845  152.0033   33.0573  N     
11   C      -185.6422  151.0199   32.1703  C     
12   O      -185.9152  151.3043   31.0123  O     
13   C      -185.6192  149.6604   32.5472  C     
14   C      -185.1445  149.2450   33.8209  C     
15   C      -186.0977  148.6436   31.6691  C     
16   C      -185.6368  146.9098   33.3164  C     
17   C      -186.1058  147.2814   32.0351  C     
18   C      -184.4736  144.7397   29.8533  C     
19   C      -183.2850  145.1488   30.7507  C     
20   N      -185.4672  145.7823   29.6618  N     
21   C      -185.3855  146.6915   28.5363  C     
22   C      -186.2840  146.3270   27.3333  C     
23   S      -186.6186  146.1070   30.8699  S     
24   O      -187.1939  144.8169   31.5971  O     
25   O      -187.9192  146.6222   30.1157  O     
26   C      -185.1592  147.8939   34.2032  C     
27   F      -185.6243  145.6606   33.7064  F     
28   H      -186.2062  156.1997   34.7124  H     
29   H      -186.0912  157.1876   32.5380  H     
30   H      -185.6247  155.8269   30.5885  H     
31   H      -185.2282  153.4844   30.8268  H     
32   H      -185.3491  151.7100   33.9712  H     
33   H      -184.7681  149.9151   34.4920  H     
34   H      -186.4451  148.8998   30.7517  H     
35   H      -184.0839  144.4351   28.8726  H     
36   H      -184.9472  143.8441   30.2794  H     
37   H      -182.6790  145.9304   30.2721  H     
38   H      -182.6533  144.2705   30.9223  H     
39   H      -183.6488  145.5203   31.7050  H     
40   H      -185.6665  147.7070   28.8406  H     
41   H      -184.3478  146.7509   28.1890  H     
42   H      -185.9397  145.3956   26.8630  H     
43   H      -186.2300  147.1199   26.5856  H     
44   H      -187.3294  146.2100   27.6589  H     
45   H      -184.8284  147.6219   35.1249  H     
@<TRIPOS>BOND
     1    1    2 2
     2    1    6 1
     3    1    7 1
     4    2    3 1
     5    3    4 2
     6    4    5 1
     7    5    6 2
     8    6   10 1
     9    7    8 2
    10    7    9 1
    11   10   11 am
    12   11   12 2
    13   11   13 1
    14   13   14 2
    15   13   15 1
    16   14   26 1
    17   15   17 2
    18   16   17 1
    19   16   26 2
    20   16   27 1
    21   17   23 1
    22   18   19 1
    23   18   20 1
    24   20   21 1
    25   20   23 1
    26   21   22 1
    27   23   24 2
    28   23   25 2
    29    2   28 1
    30    3   29 1
    31    4   30 1
    32    5   31 1
    33   10   32 1
    34   14   33 1
    35   15   34 1
    36   18   35 1
    37   18   36 1
    38   19   37 1
    39   19   38 1
    40   19   39 1
    41   21   40 1
    42   21   41 1
    43   22   42 1
    44   22   43 1
    45   22   44 1
    46   26   45 1
@<TRIPOS>PROPERTY_DATA
  Total_Score	| 6.5869
  Crash		| -1.3781
  Polar		| 2.8161
  FragIndex	| 1
  FragRMSD	| 0.223

