@<TRIPOS>MOLECULE
BindingDB_23578
 62 64 0 0 0
SMALL
NO_CHARGES


@<TRIPOS>ATOM
1    C      -185.8302  154.3412   34.0799  C     
2    C      -185.9251  155.7583   33.9787  C     
3    C      -185.9307  156.4012   32.7285  C     
4    C      -185.8405  155.6516   31.5537  C     
5    C      -185.7284  154.2578   31.6305  C     
6    C      -185.6894  153.5827   32.8772  C     
7    C      -185.9036  153.7772   35.3888  C     
8    O      -186.4417  152.5500   35.6060  O     
9    O      -185.6721  154.5067   36.5071  O     
10   N      -185.5563  152.2138   32.9867  N     
11   C      -185.6293  151.2049   32.1040  C     
12   O      -185.7072  151.4604   30.9014  O     
13   C      -185.7438  149.8620   32.5311  C     
14   C      -185.5070  149.4724   33.8700  C     
15   C      -186.1782  148.8433   31.6282  C     
16   C      -186.3261  147.2146   33.4299  C     
17   C      -186.4243  147.5155   32.0551  C     
18   C      -185.5338  146.6849   28.4762  C     
19   C      -186.4424  145.9894   27.4379  C     
20   N      -185.5422  146.0039   29.7546  N     
21   C      -184.6919  144.8535   29.9547  C     
22   C      -183.4003  145.1650   30.7551  C     
23   S      -186.8150  146.3266   30.8541  S     
24   O      -187.3960  144.9605   31.4172  O     
25   O      -188.0597  146.8965   30.0439  O     
26   C      -185.8068  148.1735   34.3149  C     
27   O      -186.6244  145.9545   33.8791  O     
28   C      -187.8200  145.7978   34.6967  C     
29   C      -189.0271  146.6952   34.3393  C     
30   C      -191.0919  146.9688   33.0214  C     
31   C      -189.6463  146.4431   32.9413  C     
32   C      -190.2404  146.4685   35.2739  C     
33   C      -191.4782  146.9758   34.5116  C     
34   H      -186.0355  156.3470   34.8054  H     
35   H      -186.0131  157.4260   32.6647  H     
36   H      -185.8783  156.1159   30.6474  H     
37   H      -185.6961  153.7364   30.7594  H     
38   H      -185.4386  151.8998   33.8952  H     
39   H      -185.1166  150.1335   34.5540  H     
40   H      -186.3292  149.0695   30.6535  H     
41   H      -184.5163  146.7179   28.0788  H     
42   H      -185.8569  147.7132   28.5912  H     
43   H      -186.1506  144.9384   27.3029  H     
44   H      -186.3646  146.4862   26.4750  H     
45   H      -187.4821  146.0172   27.7773  H     
46   H      -185.2422  144.0728   30.4787  H     
47   H      -184.3720  144.4283   28.9985  H     
48   H      -182.9220  146.0617   30.3607  H     
49   H      -182.6923  144.3339   30.6564  H     
50   H      -183.6290  145.3130   31.8064  H     
51   H      -185.6386  147.9309   35.3015  H     
52   H      -188.0992  144.7442   34.5705  H     
53   H      -187.5679  145.9296   35.7630  H     
54   H      -188.6960  147.7379   34.4192  H     
55   H      -191.1588  147.9706   32.6152  H     
56   H      -191.7686  146.3214   32.4446  H     
57   H      -189.0754  146.9365   32.1504  H     
58   H      -189.6647  145.3693   32.7247  H     
59   H      -190.3557  145.3987   35.4720  H     
60   H      -190.1064  146.9745   36.2389  H     
61   H      -191.7496  147.9765   34.8298  H     
62   H      -192.3333  146.3137   34.7083  H     
@<TRIPOS>BOND
     1    1    2 2
     2    1    6 1
     3    1    7 1
     4    2    3 1
     5    3    4 2
     6    4    5 1
     7    5    6 2
     8    6   10 1
     9    7    8 2
    10    7    9 1
    11   10   11 am
    12   11   12 2
    13   11   13 1
    14   13   14 2
    15   13   15 1
    16   14   26 1
    17   15   17 2
    18   16   17 1
    19   16   26 2
    20   16   27 1
    21   17   23 1
    22   18   19 1
    23   18   20 1
    24   20   21 1
    25   20   23 1
    26   21   22 1
    27   23   24 2
    28   23   25 2
    29   27   28 1
    30   28   29 1
    31   29   31 1
    32   29   32 1
    33   30   31 1
    34   30   33 1
    35   32   33 1
    36    2   34 1
    37    3   35 1
    38    4   36 1
    39    5   37 1
    40   10   38 1
    41   14   39 1
    42   15   40 1
    43   18   41 1
    44   18   42 1
    45   19   43 1
    46   19   44 1
    47   19   45 1
    48   21   46 1
    49   21   47 1
    50   22   48 1
    51   22   49 1
    52   22   50 1
    53   26   51 1
    54   28   52 1
    55   28   53 1
    56   29   54 1
    57   30   55 1
    58   30   56 1
    59   31   57 1
    60   31   58 1
    61   32   59 1
    62   32   60 1
    63   33   61 1
    64   33   62 1
@<TRIPOS>PROPERTY_DATA
  Total_Score	| 7.7978
  Crash		| -2.7733
  Polar		| 2.7739
  FragIndex	| 1
  FragRMSD	| 0.365

