@<TRIPOS>MOLECULE
BindingDB_23581
 39 41 0 0 0
SMALL
NO_CHARGES


@<TRIPOS>ATOM
1    C      -185.8689  154.2394   34.1250  C     
2    C      -185.9174  155.6554   33.9873  C     
3    C      -185.9018  156.2681   32.7258  C     
4    C      -185.8113  155.4822   31.5752  C     
5    C      -185.7398  154.0808   31.6835  C     
6    C      -185.7796  153.4261   32.9492  C     
7    C      -185.9254  153.7206   35.4555  C     
8    O      -186.2940  152.4538   35.7499  O     
9    O      -185.6821  154.5039   36.5318  O     
10   N      -185.6812  152.0457   33.0738  N     
11   C      -185.6748  151.0434   32.1917  C     
12   O      -185.7862  151.3017   31.0004  O     
13   C      -185.5895  149.6861   32.5719  C     
14   C      -185.0999  149.2736   33.8362  C     
15   C      -185.9893  148.6565   31.6773  C     
16   C      -185.4057  146.9167   33.2675  C     
17   C      -185.8607  147.2819   31.9858  C     
18   C      -185.0273  147.9104   34.1866  C     
19   O      -186.2390  146.3029   31.0953  O     
20   C      -185.6300  146.3831   29.8681  C     
21   C      -184.2698  146.0350   29.6992  C     
22   C      -183.6767  146.1128   28.4237  C     
23   C      -184.4368  146.5216   27.3156  C     
24   C      -185.7946  146.8634   27.4772  C     
25   C      -186.3894  146.7850   28.7502  C     
26   Br     -185.2929  145.1257   33.7700  Br    
27   H      -185.9802  156.2683   34.8032  H     
28   H      -185.9490  157.2891   32.6527  H     
29   H      -185.7848  155.9278   30.6521  H     
30   H      -185.6444  153.5597   30.8131  H     
31   H      -185.6382  151.7412   33.9851  H     
32   H      -184.7745  149.9587   34.5200  H     
33   H      -186.3791  148.9012   30.7667  H     
34   H      -184.6858  147.6451   35.1129  H     
35   H      -183.7121  145.7378   30.5019  H     
36   H      -182.6890  145.8768   28.3068  H     
37   H      -184.0050  146.5819   26.3909  H     
38   H      -186.3428  147.1720   26.6746  H     
39   H      -187.3750  147.0381   28.8636  H     
@<TRIPOS>BOND
     1    1    2 2
     2    1    6 1
     3    1    7 1
     4    2    3 1
     5    3    4 2
     6    4    5 1
     7    5    6 2
     8    6   10 1
     9    7    8 2
    10    7    9 1
    11   10   11 am
    12   11   12 2
    13   11   13 1
    14   13   14 2
    15   13   15 1
    16   14   18 1
    17   15   17 2
    18   16   17 1
    19   16   18 2
    20   16   26 1
    21   17   19 1
    22   19   20 1
    23   20   21 2
    24   20   25 1
    25   21   22 1
    26   22   23 2
    27   23   24 1
    28   24   25 2
    29    2   27 1
    30    3   28 1
    31    4   29 1
    32    5   30 1
    33   10   31 1
    34   14   32 1
    35   15   33 1
    36   18   34 1
    37   21   35 1
    38   22   36 1
    39   23   37 1
    40   24   38 1
    41   25   39 1
@<TRIPOS>PROPERTY_DATA
  Total_Score	| 7.4907
  Crash		| -1.1241
  Polar		| 2.8007
  FragIndex	| 1
  FragRMSD	| 0.239

