@<TRIPOS>MOLECULE
BindingDB_23586
 40 42 0 0 0
SMALL
NO_CHARGES


@<TRIPOS>ATOM
1    C      -185.8021  154.2923   34.1236  C     
2    C      -185.8916  155.7007   33.9270  C     
3    C      -185.8648  156.2445   32.6291  C     
4    C      -185.6807  155.4089   31.5158  C     
5    C      -185.5294  154.0272   31.7006  C     
6    C      -185.6335  153.4380   32.9866  C     
7    C      -185.9255  153.7689   35.4447  C     
8    O      -185.6773  154.5202   36.5417  O     
9    O      -186.3725  152.5119   35.6834  O     
10   N      -185.4920  152.0756   33.1594  N     
11   C      -185.8784  151.0757   32.3698  C     
12   O      -186.4477  151.3393   31.3164  O     
13   C      -185.7126  149.7237   32.7136  C     
14   C      -185.1578  149.3139   33.9547  C     
15   C      -186.0984  148.6950   31.8143  C     
16   C      -185.3540  146.9554   33.3414  C     
17   C      -185.8903  147.3243   32.0947  C     
18   C      -184.9967  147.9506   34.2696  C     
19   O      -186.2821  146.3668   31.1960  O     
20   C      -185.5806  146.4002   30.0163  C     
21   C      -186.2116  146.9003   28.8560  C     
22   C      -185.5210  146.9349   27.6281  C     
23   C      -184.1948  146.4685   27.5537  C     
24   C      -183.5596  145.9579   28.7058  C     
25   C      -184.2537  145.9212   29.9302  C     
26   Br     -185.1115  145.1634   33.7845  Br    
27   O      -186.0519  156.5700   34.9715  O     
28   H      -185.9742  157.2534   32.4853  H     
29   H      -185.6420  155.8095   30.5747  H     
30   H      -185.3309  153.4586   30.8750  H     
31   H      -185.1242  151.8157   34.0162  H     
32   H      -184.8718  149.9972   34.6558  H     
33   H      -186.5238  148.9304   30.9166  H     
34   H      -184.6108  147.6895   35.1745  H     
35   H      -187.1763  147.2362   28.9041  H     
36   H      -185.9837  147.3041   26.7913  H     
37   H      -183.6911  146.4968   26.6647  H     
38   H      -182.5975  145.6185   28.6514  H     
39   H      -183.7901  145.5370   30.7578  H     
40   H      -185.5704  157.3941   34.7383  H     
@<TRIPOS>BOND
     1    1    2 2
     2    1    6 1
     3    1    7 1
     4    2    3 1
     5    2   27 1
     6    3    4 2
     7    4    5 1
     8    5    6 2
     9    6   10 1
    10    7    8 2
    11    7    9 1
    12   10   11 am
    13   11   12 2
    14   11   13 1
    15   13   14 2
    16   13   15 1
    17   14   18 1
    18   15   17 2
    19   16   17 1
    20   16   18 2
    21   16   26 1
    22   17   19 1
    23   19   20 1
    24   20   21 2
    25   20   25 1
    26   21   22 1
    27   22   23 2
    28   23   24 1
    29   24   25 2
    30    3   28 1
    31    4   29 1
    32    5   30 1
    33   10   31 1
    34   14   32 1
    35   15   33 1
    36   18   34 1
    37   21   35 1
    38   22   36 1
    39   23   37 1
    40   24   38 1
    41   25   39 1
    42   27   40 1
@<TRIPOS>PROPERTY_DATA
  Total_Score	| 7.8317
  Crash		| -1.2084
  Polar		| 3.6745
  FragIndex	| 1
  FragRMSD	| 0.783

