@<TRIPOS>MOLECULE
BindingDB_23574
 49 50 0 0 0
SMALL
NO_CHARGES


@<TRIPOS>ATOM
1    C      -185.8236  154.1991   34.1140  C     
2    C      -185.9959  155.6009   33.9510  C     
3    C      -185.9334  156.2047   32.6892  C     
4    C      -185.6328  155.4290   31.5639  C     
5    C      -185.4145  154.0476   31.7019  C     
6    C      -185.5687  153.3977   32.9553  C     
7    C      -185.9331  153.6748   35.4337  C     
8    O      -186.2611  152.3860   35.6848  O     
9    O      -185.7032  154.4588   36.5145  O     
10   N      -185.4173  152.0252   33.0759  N     
11   C      -185.6404  151.0421   32.2006  C     
12   O      -186.0312  151.3210   31.0721  O     
13   C      -185.5878  149.6770   32.5715  C     
14   C      -185.1530  149.2623   33.8562  C     
15   C      -185.9933  148.6524   31.6723  C     
16   C      -185.6131  146.9105   33.3447  C     
17   C      -186.0185  147.2893   32.0424  C     
18   C      -184.5920  144.8231   29.5938  C     
19   C      -183.1500  145.2840   29.9335  C     
20   N      -185.5573  145.9045   29.5399  N     
21   C      -185.7519  146.6883   28.3312  C     
22   C      -186.6451  145.9647   27.2954  C     
23   S      -186.5987  146.1326   30.8677  S     
24   O      -187.0371  144.7356   31.4799  O     
25   O      -188.0061  146.6664   30.3451  O     
26   C      -185.1826  147.9106   34.2442  C     
27   O      -185.7423  145.6091   33.7778  O     
28   C      -184.6147  144.7552   33.5169  C     
29   H      -186.1983  156.1980   34.7522  H     
30   H      -186.0754  157.2170   32.5923  H     
31   H      -185.5546  155.8678   30.6449  H     
32   H      -185.1469  153.5354   30.8586  H     
33   H      -185.1736  151.7291   33.9644  H     
34   H      -184.8375  149.9460   34.5489  H     
35   H      -186.3010  148.9096   30.7301  H     
36   H      -184.5844  144.2934   28.6315  H     
37   H      -184.8731  144.0771   30.3485  H     
38   H      -182.7105  145.8554   29.1040  H     
39   H      -182.5223  144.4051   30.0943  H     
40   H      -183.1361  145.9107   30.8386  H     
41   H      -186.2093  147.6537   28.5740  H     
42   H      -184.7978  146.9197   27.8515  H     
43   H      -186.2401  144.9757   27.0685  H     
44   H      -186.6999  146.5486   26.3735  H     
45   H      -187.6660  145.8308   27.6699  H     
46   H      -184.8976  147.6739   35.2006  H     
47   H      -184.3808  144.6953   32.4488  H     
48   H      -184.8601  143.7486   33.8576  H     
49   H      -183.7244  145.0913   34.0587  H     
@<TRIPOS>BOND
     1    1    2 2
     2    1    6 1
     3    1    7 1
     4    2    3 1
     5    3    4 2
     6    4    5 1
     7    5    6 2
     8    6   10 1
     9    7    8 2
    10    7    9 1
    11   10   11 am
    12   11   12 2
    13   11   13 1
    14   13   14 2
    15   13   15 1
    16   14   26 1
    17   15   17 2
    18   16   17 1
    19   16   26 2
    20   16   27 1
    21   17   23 1
    22   18   19 1
    23   18   20 1
    24   20   21 1
    25   20   23 1
    26   21   22 1
    27   23   24 2
    28   23   25 2
    29   27   28 1
    30    2   29 1
    31    3   30 1
    32    4   31 1
    33    5   32 1
    34   10   33 1
    35   14   34 1
    36   15   35 1
    37   18   36 1
    38   18   37 1
    39   19   38 1
    40   19   39 1
    41   19   40 1
    42   21   41 1
    43   21   42 1
    44   22   43 1
    45   22   44 1
    46   22   45 1
    47   26   46 1
    48   28   47 1
    49   28   48 1
    50   28   49 1
@<TRIPOS>PROPERTY_DATA
  Total_Score	| 7.2970
  Crash		| -1.1849
  Polar		| 2.7802
  FragIndex	| 1
  FragRMSD	| 0.247

