@<TRIPOS>MOLECULE
BindingDB_23573
 48 49 0 0 0
SMALL
NO_CHARGES


@<TRIPOS>ATOM
1    C      -185.8864  153.8087   34.0711  C     
2    C      -185.7685  155.1753   33.7038  C     
3    C      -185.6981  155.5658   32.3596  C     
4    C      -185.7205  154.5962   31.3525  C     
5    C      -185.8318  153.2375   31.6869  C     
6    C      -185.9117  152.8161   33.0357  C     
7    C      -185.9809  153.5160   35.4560  C     
8    O      -185.7922  152.2486   35.8562  O     
9    O      -185.6600  154.4239   36.4103  O     
10   N      -186.1679  151.4708   33.1737  N     
11   C      -185.3774  150.5217   33.6688  C     
12   O      -184.3368  150.8179   34.2358  O     
13   C      -185.6252  149.1558   33.4995  C     
14   C      -185.2489  148.2404   34.5101  C     
15   C      -186.1384  148.6266   32.2910  C     
16   C      -185.9257  146.3423   33.1375  C     
17   C      -186.2823  147.2322   32.0912  C     
18   C      -185.4623  146.7299   28.1534  C     
19   C      -186.2731  145.9821   27.0748  C     
20   N      -185.5954  146.1283   29.4556  N     
21   C      -184.7105  145.0604   29.8521  C     
22   C      -183.5080  145.5575   30.6877  C     
23   S      -186.8093  146.6596   30.5208  S     
24   O      -187.9549  145.5605   30.6063  O     
25   O      -187.6339  147.8297   29.8275  O     
26   C      -185.3836  146.8464   34.3461  C     
27   C      -184.9174  145.9333   35.4205  C     
28   Br     -186.1091  144.4886   32.9518  Br    
29   H      -185.7343  155.9131   34.4123  H     
30   H      -185.6354  156.5549   32.1123  H     
31   H      -185.6653  154.8830   30.3762  H     
32   H      -185.8649  152.5515   30.9266  H     
33   H      -186.9371  151.1522   32.6762  H     
34   H      -184.8596  148.5969   35.3887  H     
35   H      -186.3503  149.2673   31.5203  H     
36   H      -184.4142  146.7585   27.8429  H     
37   H      -185.8005  147.7640   28.1854  H     
38   H      -185.9126  144.9576   26.9688  H     
39   H      -186.1626  146.4919   26.1150  H     
40   H      -187.3321  145.9587   27.3384  H     
41   H      -184.3274  144.5389   28.9699  H     
42   H      -185.2488  144.3072   30.4311  H     
43   H      -183.8531  146.0419   31.6026  H     
44   H      -182.9083  146.2704   30.1174  H     
45   H      -182.8762  144.7089   30.9574  H     
46   H      -184.4551  146.4654   36.2521  H     
47   H      -184.1695  145.2519   35.0154  H     
48   H      -185.7580  145.3572   35.8102  H     
@<TRIPOS>BOND
     1    1    2 2
     2    1    6 1
     3    1    7 1
     4    2    3 1
     5    3    4 2
     6    4    5 1
     7    5    6 2
     8    6   10 1
     9    7    8 2
    10    7    9 1
    11   10   11 am
    12   11   12 2
    13   11   13 1
    14   13   14 2
    15   13   15 1
    16   14   26 1
    17   15   17 2
    18   16   17 1
    19   16   26 2
    20   16   28 1
    21   17   23 1
    22   18   19 1
    23   18   20 1
    24   20   21 1
    25   20   23 1
    26   21   22 1
    27   23   24 2
    28   23   25 2
    29   26   27 1
    30    2   29 1
    31    3   30 1
    32    4   31 1
    33    5   32 1
    34   10   33 1
    35   14   34 1
    36   15   35 1
    37   18   36 1
    38   18   37 1
    39   19   38 1
    40   19   39 1
    41   19   40 1
    42   21   41 1
    43   21   42 1
    44   22   43 1
    45   22   44 1
    46   22   45 1
    47   27   46 1
    48   27   47 1
    49   27   48 1
@<TRIPOS>PROPERTY_DATA
  Total_Score	| 5.4914
  Crash		| -2.7420
  Polar		| 2.8032
  FragIndex	| 1
  FragRMSD	| 1.033

