@<TRIPOS>MOLECULE
BindingDB_23576
 60 62 0 0 0
SMALL
NO_CHARGES


@<TRIPOS>ATOM
1    C      -185.7782  154.2205   34.1101  C     
2    C      -185.9092  155.6324   34.0061  C     
3    C      -185.8159  156.2866   32.7710  C     
4    C      -185.5582  155.5499   31.6108  C     
5    C      -185.4116  154.1549   31.6917  C     
6    C      -185.5614  153.4522   32.9215  C     
7    C      -185.8799  153.6601   35.4165  C     
8    O      -186.2255  152.3724   35.6313  O     
9    O      -185.6389  154.4069   36.5198  O     
10   N      -185.4379  152.0741   32.9743  N     
11   C      -185.8175  151.1504   32.0848  C     
12   O      -186.3551  151.5335   31.0544  O     
13   C      -185.7319  149.7539   32.3078  C     
14   C      -185.1863  149.2011   33.4882  C     
15   C      -186.2005  148.8291   31.3365  C     
16   C      -185.6471  146.8913   32.7279  C     
17   C      -186.1450  147.4287   31.5056  C     
18   C      -184.1216  145.9620   28.9965  C     
19   C      -183.6256  145.8763   30.4545  C     
20   N      -185.4199  146.5855   28.8143  N     
21   C      -185.8960  146.8197   27.4735  C     
22   C      -186.6246  145.5905   26.8694  C     
23   S      -186.5500  146.4933   30.0763  S     
24   O      -186.8463  144.9469   30.2870  O     
25   O      -187.9772  147.0210   29.6036  O     
26   C      -185.1383  147.8060   33.6832  C     
27   C      -184.3539  143.3646   33.2627  C     
28   C      -184.4433  144.9005   33.5192  C     
29   C      -186.9007  144.8512   33.1465  C     
30   C      -186.8533  143.3328   32.7937  C     
31   C      -185.4568  142.8398   32.3262  C     
32   N      -185.6273  145.5401   32.9709  N     
33   H      -186.0797  156.2157   34.8317  H     
34   H      -185.9349  157.2978   32.7187  H     
35   H      -185.4664  156.0246   30.7135  H     
36   H      -185.1701  153.6584   30.8359  H     
37   H      -185.0830  151.7277   33.8074  H     
38   H      -184.8029  149.8092   34.2242  H     
39   H      -186.5828  149.1795   30.4633  H     
40   H      -183.3489  146.5173   28.4497  H     
41   H      -184.1433  144.9518   28.5775  H     
42   H      -183.5830  146.8724   30.9011  H     
43   H      -182.6394  145.4223   30.5072  H     
44   H      -184.3101  145.2882   31.0483  H     
45   H      -186.5625  147.6819   27.4552  H     
46   H      -185.0505  147.0723   26.8297  H     
47   H      -185.9002  144.7978   26.6498  H     
48   H      -187.1146  145.8605   25.9379  H     
49   H      -187.3753  145.1999   27.5713  H     
50   H      -184.7561  147.4628   34.5688  H     
51   H      -183.3742  143.1014   32.8523  H     
52   H      -184.4492  142.8425   34.2150  H     
53   H      -184.3789  145.1065   34.5909  H     
54   H      -183.5547  145.3445   33.0519  H     
55   H      -187.7042  145.3075   32.5564  H     
56   H      -187.1907  144.9551   34.1931  H     
57   H      -187.1358  142.7593   33.6764  H     
58   H      -187.5883  143.1017   32.0189  H     
59   H      -185.2480  143.1750   31.3079  H     
60   H      -185.4387  141.7491   32.3175  H     
@<TRIPOS>BOND
     1    1    2 2
     2    1    6 1
     3    1    7 1
     4    2    3 1
     5    3    4 2
     6    4    5 1
     7    5    6 2
     8    6   10 1
     9    7    8 2
    10    7    9 1
    11   10   11 am
    12   11   12 2
    13   11   13 1
    14   13   14 2
    15   13   15 1
    16   14   26 1
    17   15   17 2
    18   16   17 1
    19   16   26 2
    20   16   32 1
    21   17   23 1
    22   18   19 1
    23   18   20 1
    24   20   21 1
    25   20   23 1
    26   21   22 1
    27   23   24 2
    28   23   25 2
    29   27   28 1
    30   27   31 1
    31   28   32 1
    32   29   30 1
    33   29   32 1
    34   30   31 1
    35    2   33 1
    36    3   34 1
    37    4   35 1
    38    5   36 1
    39   10   37 1
    40   14   38 1
    41   15   39 1
    42   18   40 1
    43   18   41 1
    44   19   42 1
    45   19   43 1
    46   19   44 1
    47   21   45 1
    48   21   46 1
    49   22   47 1
    50   22   48 1
    51   22   49 1
    52   26   50 1
    53   27   51 1
    54   27   52 1
    55   28   53 1
    56   28   54 1
    57   29   55 1
    58   29   56 1
    59   30   57 1
    60   30   58 1
    61   31   59 1
    62   31   60 1
@<TRIPOS>PROPERTY_DATA
  Total_Score	| 7.1614
  Crash		| -3.8257
  Polar		| 2.7131
  FragIndex	| 1
  FragRMSD	| 0.541

