@<TRIPOS>MOLECULE
BindingDB_23572
 55 57 0 0 0
SMALL
NO_CHARGES


@<TRIPOS>ATOM
1    C      -185.9261  153.9154   34.0665  C     
2    C      -185.8270  155.3218   33.8753  C     
3    C      -185.8013  155.8926   32.5946  C     
4    C      -185.8577  155.0725   31.4655  C     
5    C      -185.9628  153.6790   31.6182  C     
6    C      -185.9921  153.0808   32.8994  C     
7    C      -185.9717  153.4528   35.4196  C     
8    O      -185.6791  154.2710   36.4612  O     
9    O      -186.3223  152.1972   35.7747  O     
10   N      -186.0963  151.7102   32.8549  N     
11   C      -185.2974  150.8191   33.4280  C     
12   O      -184.3695  151.2251   34.1196  O     
13   C      -185.4583  149.4414   33.2802  C     
14   C      -185.1845  147.1800   34.2012  C     
15   C      -185.1248  148.5737   34.3462  C     
16   C      -185.8960  148.8486   32.0695  C     
17   C      -185.5833  146.5961   32.9804  C     
18   C      -185.9729  147.4411   31.9006  C     
19   C      -183.9572  146.0666   29.6143  C     
20   C      -183.9275  144.5228   29.6514  C     
21   N      -185.2241  146.6073   29.1805  N     
22   C      -185.5289  146.6908   27.7682  C     
23   C      -186.3571  145.5043   27.2256  C     
24   S      -186.4619  146.8344   30.3210  S     
25   O      -187.3696  145.5330   30.3479  O     
26   O      -187.4589  147.9285   29.7371  O     
27   C      -185.4925  145.1824   32.8917  C     
28   C      -186.5373  142.9883   32.6112  C     
29   C      -186.6497  144.3836   32.7518  C     
30   C      -184.2331  144.5459   32.9915  C     
31   C      -184.1224  143.1482   32.8774  C     
32   C      -185.2763  142.3709   32.6758  C     
33   H      -185.7908  155.9661   34.6696  H     
34   H      -185.7544  156.9089   32.4922  H     
35   H      -185.8290  155.4864   30.5287  H     
36   H      -186.0050  153.1004   30.7753  H     
37   H      -186.7544  151.3529   32.2367  H     
38   H      -184.9206  146.5920   34.9979  H     
39   H      -184.8403  148.9512   35.2519  H     
40   H      -186.1223  149.4593   31.2790  H     
41   H      -183.7034  146.4463   30.6057  H     
42   H      -183.1545  146.4041   28.9565  H     
43   H      -184.7661  144.1328   30.2309  H     
44   H      -182.9976  144.1820   30.1133  H     
45   H      -183.9751  144.1090   28.6414  H     
46   H      -186.0851  147.6081   27.5822  H     
47   H      -184.6164  146.7672   27.1695  H     
48   H      -185.8548  144.5542   27.4140  H     
49   H      -186.4960  145.6153   26.1480  H     
50   H      -187.3457  145.4814   27.6872  H     
51   H      -187.3718  142.4241   32.4601  H     
52   H      -187.5741  144.8145   32.7116  H     
53   H      -183.3800  145.0980   33.1219  H     
54   H      -183.2068  142.6943   32.9416  H     
55   H      -185.1985  141.3565   32.5844  H     
@<TRIPOS>BOND
     1    1    2 2
     2    1    6 1
     3    1    7 1
     4    2    3 1
     5    3    4 2
     6    4    5 1
     7    5    6 2
     8    6   10 1
     9    7    8 2
    10    7    9 1
    11   10   11 am
    12   11   12 2
    13   11   13 1
    14   13   15 2
    15   13   16 1
    16   14   15 1
    17   14   17 2
    18   16   18 2
    19   17   18 1
    20   17   27 1
    21   18   24 1
    22   19   20 1
    23   19   21 1
    24   21   22 1
    25   21   24 1
    26   22   23 1
    27   24   25 2
    28   24   26 2
    29   27   29 2
    30   27   30 1
    31   28   29 1
    32   28   32 2
    33   30   31 2
    34   31   32 1
    35    2   33 1
    36    3   34 1
    37    4   35 1
    38    5   36 1
    39   10   37 1
    40   14   38 1
    41   15   39 1
    42   16   40 1
    43   19   41 1
    44   19   42 1
    45   20   43 1
    46   20   44 1
    47   20   45 1
    48   22   46 1
    49   22   47 1
    50   23   48 1
    51   23   49 1
    52   23   50 1
    53   28   51 1
    54   29   52 1
    55   30   53 1
    56   31   54 1
    57   32   55 1
@<TRIPOS>PROPERTY_DATA
  Total_Score	| 7.4379
  Crash		| -1.9081
  Polar		| 2.5826
  FragIndex	| 1
  FragRMSD	| 1.198

