@<TRIPOS>MOLECULE
BindingDB_23577
 56 58 0 0 0
SMALL
NO_CHARGES


@<TRIPOS>ATOM
1    C      -185.8947  154.1884   34.0938  C     
2    C      -185.9602  155.5964   33.9378  C     
3    C      -185.9614  156.2033   32.6778  C     
4    C      -185.8829  155.4109   31.5288  C     
5    C      -185.8237  154.0142   31.6529  C     
6    C      -185.8100  153.3679   32.9183  C     
7    C      -185.9404  153.6907   35.4336  C     
8    O      -186.2323  152.4119   35.7630  O     
9    O      -185.7463  154.5066   36.4985  O     
10   N      -185.7677  151.9863   33.0349  N     
11   C      -185.7122  150.9960   32.1441  C     
12   O      -185.6372  151.2276   30.9498  O     
13   C      -185.6963  149.6546   32.5511  C     
14   C      -185.1483  149.2561   33.7959  C     
15   C      -186.2178  148.6381   31.7121  C     
16   C      -185.6384  146.9029   33.3226  C     
17   C      -186.2084  147.2768   32.0779  C     
18   C      -187.0396  146.0558   28.2380  C     
19   C      -187.2044  144.5919   27.7711  C     
20   N      -186.1994  146.1766   29.4068  N     
21   C      -184.7584  146.0407   29.3605  C     
22   C      -184.0186  146.0112   28.0006  C     
23   S      -186.9135  146.1410   30.9503  S     
24   O      -187.0523  144.6422   31.4568  O     
25   O      -188.4367  146.5964   30.8639  O     
26   C      -185.1239  147.9031   34.1736  C     
27   O      -185.6105  145.6192   33.7987  O     
28   C      -184.9650  144.6278   33.0818  C     
29   C      -183.8999  142.4575   31.5779  C     
30   C      -183.2439  143.7031   31.5938  C     
31   C      -183.7446  144.7683   32.3712  C     
32   C      -185.6178  143.3742   33.0518  C     
33   C      -185.0888  142.2940   32.3135  C     
34   H      -186.0319  156.2156   34.7486  H     
35   H      -186.0257  157.2223   32.5931  H     
36   H      -185.8944  155.8500   30.6039  H     
37   H      -185.8225  153.4855   30.7855  H     
38   H      -185.7866  151.6671   33.9396  H     
39   H      -184.7441  149.9462   34.4367  H     
40   H      -186.6258  148.8950   30.8106  H     
41   H      -186.6525  146.6556   27.4111  H     
42   H      -188.0280  146.4680   28.4463  H     
43   H      -186.2399  144.1494   27.5281  H     
44   H      -187.8384  144.5712   26.8817  H     
45   H      -187.6890  143.9977   28.5540  H     
46   H      -184.3382  146.8849   29.9229  H     
47   H      -184.4899  145.1018   29.8704  H     
48   H      -184.3133  145.1328   27.4234  H     
49   H      -182.9424  145.9690   28.1753  H     
50   H      -184.2297  146.9158   27.4279  H     
51   H      -184.7218  147.6449   35.0796  H     
52   H      -183.5306  141.6828   31.0164  H     
53   H      -182.4130  143.8321   31.0184  H     
54   H      -183.2355  145.6589   32.3869  H     
55   H      -186.4992  143.2501   33.5546  H     
56   H      -185.5804  141.3999   32.3030  H     
@<TRIPOS>BOND
     1    1    2 2
     2    1    6 1
     3    1    7 1
     4    2    3 1
     5    3    4 2
     6    4    5 1
     7    5    6 2
     8    6   10 1
     9    7    8 2
    10    7    9 1
    11   10   11 am
    12   11   12 2
    13   11   13 1
    14   13   14 2
    15   13   15 1
    16   14   26 1
    17   15   17 2
    18   16   17 1
    19   16   26 2
    20   16   27 1
    21   17   23 1
    22   18   19 1
    23   18   20 1
    24   20   21 1
    25   20   23 1
    26   21   22 1
    27   23   24 2
    28   23   25 2
    29   27   28 1
    30   28   31 2
    31   28   32 1
    32   29   30 2
    33   29   33 1
    34   30   31 1
    35   32   33 2
    36    2   34 1
    37    3   35 1
    38    4   36 1
    39    5   37 1
    40   10   38 1
    41   14   39 1
    42   15   40 1
    43   18   41 1
    44   18   42 1
    45   19   43 1
    46   19   44 1
    47   19   45 1
    48   21   46 1
    49   21   47 1
    50   22   48 1
    51   22   49 1
    52   22   50 1
    53   26   51 1
    54   29   52 1
    55   30   53 1
    56   31   54 1
    57   32   55 1
    58   33   56 1
@<TRIPOS>PROPERTY_DATA
  Total_Score	| 7.3500
  Crash		| -1.7648
  Polar		| 2.8117
  FragIndex	| 1
  FragRMSD	| 0.832

