@<TRIPOS>MOLECULE
BindingDB_50303421
 32 34 0 0 0
SMALL
NO_CHARGES


@<TRIPOS>ATOM
1    N        -6.0263  -35.2774    2.3407  N     
2    C        -7.1883  -34.5659    2.4754  C     
3    N        -8.2993  -35.1720    2.9715  N     
4    C        -5.9261  -36.5997    2.6746  C     
5    C        -7.0812  -37.2211    3.1866  C     
6    C        -8.2498  -36.4796    3.3269  C     
7    N        -9.1987  -37.2941    3.8209  N     
8    C        -8.6184  -38.5053    3.9711  C     
9    N        -7.3291  -38.4754    3.5906  N     
10   C       -10.5592  -36.9523    4.1067  C     
11   N        -4.7867  -37.3247    2.5642  N     
12   C        -3.5586  -36.9433    2.0970  C     
13   C        -7.2611  -33.3305    2.0887  C     
14   N        -7.3435  -32.2372    1.7363  N     
15   C        -3.3588  -36.0161    1.0450  C     
16   C        -2.0612  -35.6868    0.6090  C     
17   C        -0.9430  -36.3190    1.1849  C     
18   C        -1.1279  -37.2966    2.1783  C     
19   C        -2.4252  -37.5898    2.6412  C     
20   C       -11.4789  -37.2058    2.8926  C     
21   Cl        0.1957  -38.1799    2.7539  Cl    
22   H        -9.0899  -39.3424    4.3238  H     
23   H       -10.9237  -37.5380    4.9563  H     
24   H       -10.6317  -35.8987    4.3885  H     
25   H        -4.8306  -38.2228    2.9276  H     
26   H        -4.1563  -35.6031    0.5613  H     
27   H        -1.9287  -35.0161   -0.1538  H     
28   H        -0.0042  -36.0853    0.8503  H     
29   H        -2.5468  -38.2945    3.3746  H     
30   H       -11.1456  -36.6142    2.0367  H     
31   H       -12.5038  -36.9187    3.1376  H     
32   H       -11.4672  -38.2622    2.6214  H     
@<TRIPOS>BOND
     1    1    2 2
     2    1    4 1
     3    2    3 1
     4    2   13 1
     5    3    6 2
     6    4    5 2
     7    4   11 1
     8    5    6 1
     9    5    9 1
    10    6    7 1
    11    7    8 1
    12    7   10 1
    13    8    9 2
    14   10   20 1
    15   11   12 1
    16   12   15 2
    17   12   19 1
    18   13   14 3
    19   15   16 1
    20   16   17 2
    21   17   18 1
    22   18   19 2
    23   18   21 1
    24    8   22 1
    25   10   23 1
    26   10   24 1
    27   11   25 1
    28   15   26 1
    29   16   27 1
    30   17   28 1
    31   19   29 1
    32   20   30 1
    33   20   31 1
    34   20   32 1
@<TRIPOS>PROPERTY_DATA
  Total_Score	| 1.6964
  Crash		| -0.7849
  Polar		| 0.7277
  FragIndex	| 1
  FragRMSD	| 0.416

