@<TRIPOS>MOLECULE
BindingDB_50303422
 39 42 0 0 0
SMALL
NO_CHARGES


@<TRIPOS>ATOM
1    N        -6.0495  -35.3240    2.2665  N     
2    C        -7.2215  -34.6308    2.3967  C     
3    N        -8.3331  -35.2667    2.8542  N     
4    C        -5.9436  -36.6493    2.5785  C     
5    C        -7.1018  -37.3022    3.0401  C     
6    C        -8.2859  -36.5869    3.1759  C     
7    N        -9.2394  -37.4338    3.6110  N     
8    C        -8.6318  -38.6385    3.7401  C     
9    N        -7.3301  -38.5716    3.3963  N     
10   C       -10.6074  -37.0599    3.8911  C     
11   N        -4.8007  -37.3626    2.4897  N     
12   C        -3.5762  -36.9644    2.0404  C     
13   C        -7.2918  -33.3905    2.0322  C     
14   N        -7.3616  -32.2912    1.6981  N     
15   C        -3.3914  -36.0278    0.9958  C     
16   C        -2.0935  -35.7164    0.5353  C     
17   C        -0.9747  -36.3518    1.1033  C     
18   C        -1.1515  -37.2944    2.1342  C     
19   C        -2.4451  -37.5923    2.5998  C     
20   C       -11.2611  -36.3222    2.6929  C     
21   C       -12.7628  -36.6267    2.7755  C     
22   C       -12.8012  -38.0745    3.2786  C     
23   C       -11.6301  -38.1733    4.2792  C     
24   Cl        0.1837  -38.1102    2.7833  Cl    
25   H        -9.0803  -39.4992    4.0565  H     
26   H       -10.5639  -36.3574    4.7323  H     
27   H        -4.8407  -38.2654    2.8496  H     
28   H        -4.1974  -35.6005    0.5368  H     
29   H        -1.9703  -35.0491   -0.2295  H     
30   H        -0.0410  -36.1356    0.7500  H     
31   H        -2.5636  -38.2813    3.3489  H     
32   H       -11.0804  -35.2442    2.7362  H     
33   H       -10.8649  -36.7038    1.7462  H     
34   H       -13.2458  -35.9594    3.4954  H     
35   H       -13.2484  -36.5207    1.8021  H     
36   H       -13.7602  -38.3092    3.7499  H     
37   H       -12.6377  -38.7628    2.4440  H     
38   H       -11.2028  -39.1816    4.2611  H     
39   H       -12.0083  -37.9919    5.2929  H     
@<TRIPOS>BOND
     1    1    2 2
     2    1    4 1
     3    2    3 1
     4    2   13 1
     5    3    6 2
     6    4    5 2
     7    4   11 1
     8    5    6 1
     9    5    9 1
    10    6    7 1
    11    7    8 1
    12    7   10 1
    13    8    9 2
    14   10   20 1
    15   10   23 1
    16   11   12 1
    17   12   15 2
    18   12   19 1
    19   13   14 3
    20   15   16 1
    21   16   17 2
    22   17   18 1
    23   18   19 2
    24   18   24 1
    25   20   21 1
    26   21   22 1
    27   22   23 1
    28    8   25 1
    29   10   26 1
    30   11   27 1
    31   15   28 1
    32   16   29 1
    33   17   30 1
    34   19   31 1
    35   20   32 1
    36   20   33 1
    37   21   34 1
    38   21   35 1
    39   22   36 1
    40   22   37 1
    41   23   38 1
    42   23   39 1
@<TRIPOS>PROPERTY_DATA
  Total_Score	| 1.8313
  Crash		| -0.9616
  Polar		| 0.6924
  FragIndex	| 1
  FragRMSD	| 0.497

