@<TRIPOS>MOLECULE
BindingDB_50303441
 32 34 0 0 0
SMALL
NO_CHARGES


@<TRIPOS>ATOM
1    N        -8.3836  -35.1134    2.6801  N     
2    C        -7.3039  -34.4020    2.3042  C     
3    N        -6.0896  -35.0000    2.1553  N     
4    C        -8.3088  -36.4395    2.8970  C     
5    C        -7.0814  -37.1010    2.6950  C     
6    C        -5.9636  -36.3456    2.3350  C     
7    N        -4.8743  -37.1507    2.3302  N     
8    C        -5.3366  -38.3784    2.6904  C     
9    N        -6.6756  -38.3676    2.8963  N     
10   C        -3.5605  -36.8088    2.0547  C     
11   N        -9.3882  -37.0796    3.3841  N     
12   C       -10.7249  -36.7978    2.9488  C     
13   C        -7.4662  -33.1508    2.0457  C     
14   N        -7.6098  -32.0471    1.7603  N     
15   C       -11.6180  -38.0185    3.2670  C     
16   C        -3.2028  -36.1276    0.8575  C     
17   C        -1.8540  -35.7781    0.5847  C     
18   C        -0.8198  -36.1204    1.4892  C     
19   C        -1.1549  -36.8146    2.6697  C     
20   C        -2.4986  -37.1567    2.9409  C     
21   F        -0.1988  -37.1655    3.5020  F     
22   F        -1.5296  -35.1365   -0.5097  F     
23   H        -4.7523  -39.2194    2.7575  H     
24   H        -9.3157  -37.3638    4.3258  H     
25   H       -11.0982  -35.9176    3.4758  H     
26   H       -10.7710  -36.5684    1.8754  H     
27   H       -11.3530  -38.8818    2.6448  H     
28   H       -12.6650  -37.7547    3.0944  H     
29   H       -11.5011  -38.2883    4.3175  H     
30   H        -3.9432  -35.9163    0.1698  H     
31   H         0.1634  -35.8905    1.2867  H     
32   H        -2.7192  -37.6540    3.8115  H     
@<TRIPOS>BOND
     1    1    2 2
     2    1    4 1
     3    2    3 1
     4    2   13 1
     5    3    6 2
     6    4    5 2
     7    4   11 1
     8    5    6 1
     9    5    9 1
    10    6    7 1
    11    7    8 1
    12    7   10 1
    13    8    9 2
    14   10   16 2
    15   10   20 1
    16   11   12 1
    17   12   15 1
    18   13   14 3
    19   16   17 1
    20   17   18 2
    21   17   22 1
    22   18   19 1
    23   19   20 2
    24   19   21 1
    25    8   23 1
    26   11   24 1
    27   12   25 1
    28   12   26 1
    29   15   27 1
    30   15   28 1
    31   15   29 1
    32   16   30 1
    33   18   31 1
    34   20   32 1
@<TRIPOS>PROPERTY_DATA
  Total_Score	| 3.1058
  Crash		| -0.5782
  Polar		| 0.8852
  FragIndex	| 1
  FragRMSD	| 0.604

