@<TRIPOS>MOLECULE
BindingDB_50303438
 32 34 0 0 0
SMALL
NO_CHARGES


@<TRIPOS>ATOM
1    N        -8.4044  -34.9882    2.4443  N     
2    C        -7.2721  -34.2835    2.1762  C     
3    N        -6.0749  -34.9251    2.1296  N     
4    C        -8.4035  -36.3287    2.6837  C     
5    C        -7.1582  -36.9957    2.6408  C     
6    C        -6.0089  -36.2629    2.3465  C     
7    N        -4.9574  -37.1045    2.3490  N     
8    C        -5.4594  -38.3226    2.6569  C     
9    N        -6.7941  -38.2720    2.8274  N     
10   C        -3.6438  -36.7927    2.0886  C     
11   N        -9.6134  -36.8810    2.9280  N     
12   C        -9.9593  -37.7558    3.9994  C     
13   C        -7.3417  -33.0118    1.9434  C     
14   N        -7.4014  -31.8851    1.7280  N     
15   C       -11.1171  -38.6926    3.5891  C     
16   C        -3.2791  -36.1062    0.9039  C     
17   C        -1.9367  -35.7680    0.6445  C     
18   C        -0.9345  -36.1196    1.5665  C     
19   C        -1.2764  -36.8122    2.7421  C     
20   C        -2.6191  -37.1508    2.9973  C     
21   F        -0.3489  -37.1374    3.5983  F     
22   F        -1.6187  -35.1336   -0.4511  F     
23   F       -11.2056  -39.7491    4.4627  F     
24   F       -12.3196  -38.0268    3.5971  F     
25   H        -4.9153  -39.1849    2.7309  H     
26   H       -10.3218  -36.6542    2.3039  H     
27   H        -9.0942  -38.3664    4.2673  H     
28   H       -10.2553  -37.1651    4.8703  H     
29   H       -10.9399  -39.0886    2.5867  H     
30   H        -3.9925  -35.8659    0.2114  H     
31   H         0.0418  -35.8712    1.3829  H     
32   H        -2.8499  -37.6480    3.8608  H     
@<TRIPOS>BOND
     1    1    2 2
     2    1    4 1
     3    2    3 1
     4    2   13 1
     5    3    6 2
     6    4    5 2
     7    4   11 1
     8    5    6 1
     9    5    9 1
    10    6    7 1
    11    7    8 1
    12    7   10 1
    13    8    9 2
    14   10   16 2
    15   10   20 1
    16   11   12 1
    17   12   15 1
    18   13   14 3
    19   15   23 1
    20   15   24 1
    21   16   17 1
    22   17   18 2
    23   17   22 1
    24   18   19 1
    25   19   20 2
    26   19   21 1
    27    8   25 1
    28   11   26 1
    29   12   27 1
    30   12   28 1
    31   15   29 1
    32   16   30 1
    33   18   31 1
    34   20   32 1
@<TRIPOS>PROPERTY_DATA
  Total_Score	| 3.4222
  Crash		| -0.6108
  Polar		| 2.0388
  FragIndex	| 1
  FragRMSD	| 0.754

