@<TRIPOS>MOLECULE
BindingDB_50303437
 39 42 0 0 0
SMALL
NO_CHARGES


@<TRIPOS>ATOM
1    N        -6.0737  -35.1681    2.1643  N     
2    C        -7.2518  -34.4846    2.2013  C     
3    N        -8.3888  -35.1265    2.5779  N     
4    C        -5.9721  -36.4896    2.4877  C     
5    C        -7.1539  -37.1436    2.8838  C     
6    C        -8.3586  -36.4425    2.9118  C     
7    N        -9.3230  -37.2889    3.3294  N     
8    C        -8.6971  -38.4642    3.5760  C     
9    N        -7.3836  -38.3951    3.2958  N     
10   C       -10.7242  -37.0273    3.5835  C     
11   N        -4.8019  -37.1730    2.4952  N     
12   C        -3.5630  -36.7368    2.1184  C     
13   C        -7.2954  -33.2292    1.8830  C     
14   N        -7.3328  -32.1163    1.5986  N     
15   C        -2.4797  -37.0257    2.9774  C     
16   C        -1.1696  -36.6371    2.6392  C     
17   C        -0.9219  -35.9778    1.4216  C     
18   C        -1.9866  -35.7067    0.5429  C     
19   C        -3.2984  -36.0899    0.8866  C     
20   F        -0.1846  -36.8949    3.4529  F     
21   F        -1.7501  -35.1179   -0.5977  F     
22   C       -11.4241  -35.9948    2.6680  C     
23   C       -12.9323  -36.2312    2.8644  C     
24   C       -13.0779  -37.7230    3.2296  C     
25   C       -11.6453  -38.2626    3.4288  C     
26   H        -9.1474  -39.3094    3.9327  H     
27   H       -10.8030  -36.6734    4.6179  H     
28   H        -4.8381  -38.0626    2.8825  H     
29   H        -2.6422  -37.5154    3.8618  H     
30   H         0.0319  -35.6994    1.1737  H     
31   H        -4.0537  -35.9266    0.2176  H     
32   H       -11.1486  -34.9702    2.9313  H     
33   H       -11.1631  -36.1802    1.6209  H     
34   H       -13.3008  -35.6067    3.6838  H     
35   H       -13.4893  -35.9835    1.9566  H     
36   H       -13.6584  -37.8312    4.1504  H     
37   H       -13.5864  -38.2730    2.4324  H     
38   H       -11.3491  -38.8441    2.5522  H     
39   H       -11.5906  -38.9098    4.3085  H     
@<TRIPOS>BOND
     1    1    2 2
     2    1    4 1
     3    2    3 1
     4    2   13 1
     5    3    6 2
     6    4    5 2
     7    4   11 1
     8    5    6 1
     9    5    9 1
    10    6    7 1
    11    7    8 1
    12    7   10 1
    13    8    9 2
    14   10   22 1
    15   10   25 1
    16   11   12 1
    17   12   15 2
    18   12   19 1
    19   13   14 3
    20   15   16 1
    21   16   17 2
    22   16   20 1
    23   17   18 1
    24   18   19 2
    25   18   21 1
    26   22   23 1
    27   23   24 1
    28   24   25 1
    29    8   26 1
    30   10   27 1
    31   11   28 1
    32   15   29 1
    33   17   30 1
    34   19   31 1
    35   22   32 1
    36   22   33 1
    37   23   34 1
    38   23   35 1
    39   24   36 1
    40   24   37 1
    41   25   38 1
    42   25   39 1
@<TRIPOS>PROPERTY_DATA
  Total_Score	| 3.4062
  Crash		| -0.8923
  Polar		| 0.9898
  FragIndex	| 1
  FragRMSD	| 0.548

