@<TRIPOS>MOLECULE
BindingDB_50303436
 32 34 0 0 0
SMALL
NO_CHARGES


@<TRIPOS>ATOM
1    N        -6.0442  -35.2244    2.1958  N     
2    C        -7.2267  -34.5494    2.2884  C     
3    N        -8.3395  -35.2110    2.7006  N     
4    C        -5.9181  -36.5452    2.5179  C     
5    C        -7.0767  -37.2141    2.9494  C     
6    C        -8.2840  -36.5290    3.0219  C     
7    N        -9.2228  -37.3871    3.4651  N     
8    C        -8.5780  -38.5541    3.6973  C     
9    N        -7.2784  -38.4702    3.3505  N     
10   C       -10.6149  -37.0962    3.7029  C     
11   N        -4.7541  -37.2336    2.4831  N     
12   C        -3.5287  -36.7632    2.1218  C     
13   C        -7.2960  -33.2955    1.9781  C     
14   N        -7.3576  -32.1787    1.7005  N     
15   C        -2.4414  -37.0357    2.9782  C     
16   C        -1.1404  -36.6129    2.6346  C     
17   C        -0.9137  -35.9550    1.4168  C     
18   C        -1.9870  -35.6968    0.5486  C     
19   C        -3.2940  -36.1014    0.9027  C     
20   F        -0.1555  -36.8375    3.4532  F     
21   F        -1.7728  -35.0969   -0.5828  F     
22   C       -11.5969  -38.2023    3.2200  C     
23   F       -11.8644  -39.0998    4.2323  F     
24   F       -12.7890  -37.6579    2.8179  F     
25   H        -9.0068  -39.4127    4.0401  H     
26   H       -10.7561  -36.9258    4.7745  H     
27   H       -10.8699  -36.1615    3.1891  H     
28   H        -4.7749  -38.1252    2.8704  H     
29   H        -2.5894  -37.5279    3.8632  H     
30   H         0.0366  -35.6575    1.1636  H     
31   H        -4.0615  -35.9370    0.2451  H     
32   H       -11.1604  -38.7457    2.3759  H     
@<TRIPOS>BOND
     1    1    2 2
     2    1    4 1
     3    2    3 1
     4    2   13 1
     5    3    6 2
     6    4    5 2
     7    4   11 1
     8    5    6 1
     9    5    9 1
    10    6    7 1
    11    7    8 1
    12    7   10 1
    13    8    9 2
    14   10   22 1
    15   11   12 1
    16   12   15 2
    17   12   19 1
    18   13   14 3
    19   15   16 1
    20   16   17 2
    21   16   20 1
    22   17   18 1
    23   18   19 2
    24   18   21 1
    25   22   23 1
    26   22   24 1
    27    8   25 1
    28   10   26 1
    29   10   27 1
    30   11   28 1
    31   15   29 1
    32   17   30 1
    33   19   31 1
    34   22   32 1
@<TRIPOS>PROPERTY_DATA
  Total_Score	| 3.3078
  Crash		| -0.7271
  Polar		| 1.8729
  FragIndex	| 1
  FragRMSD	| 0.484

