@<TRIPOS>MOLECULE
BindingDB_50303440
 32 34 0 0 0
SMALL
NO_CHARGES


@<TRIPOS>ATOM
1    N        -8.3109  -35.1420    2.9092  N     
2    C        -7.2207  -34.4292    2.5071  C     
3    N        -6.0147  -35.0516    2.4162  N     
4    C        -8.2387  -36.4596    3.2503  C     
5    C        -6.9833  -37.0916    3.1783  C     
6    C        -5.8820  -36.3697    2.7192  C     
7    N        -4.8191  -37.2042    2.6818  N     
8    C        -5.2822  -38.4037    3.1165  C     
9    N        -6.5959  -38.3469    3.4070  N     
10   C        -3.5370  -36.9330    2.2394  C     
11   N        -9.3239  -37.1857    3.5918  N     
12   C       -10.6773  -36.8572    3.2817  C     
13   C        -7.3399  -33.1929    2.1371  C     
14   N        -7.4404  -32.0975    1.8001  N     
15   C       -11.5304  -38.1421    3.1790  C     
16   C        -3.3031  -36.0063    1.1928  C     
17   C        -2.0033  -35.7589    0.7093  C     
18   C        -0.9103  -36.4628    1.2415  C     
19   C        -1.1211  -37.4075    2.2630  C     
20   C        -2.4168  -37.6205    2.7676  C     
21   Cl        0.1673  -38.3383    2.8397  Cl    
22   F       -11.5550  -38.8255    4.3712  F     
23   F       -12.8298  -37.8488    2.8150  F     
24   H        -4.7351  -39.2629    3.1788  H     
25   H        -9.1682  -38.0461    4.0269  H     
26   H       -11.0725  -36.1982    4.0617  H     
27   H       -10.7410  -36.3337    2.3159  H     
28   H       -11.0947  -38.7976    2.4140  H     
29   H        -4.0862  -35.5339    0.7374  H     
30   H        -1.8626  -35.0901   -0.0561  H     
31   H         0.0263  -36.2983    0.8640  H     
32   H        -2.5426  -38.2891    3.5308  H     
@<TRIPOS>BOND
     1    1    2 2
     2    1    4 1
     3    2    3 1
     4    2   13 1
     5    3    6 2
     6    4    5 2
     7    4   11 1
     8    5    6 1
     9    5    9 1
    10    6    7 1
    11    7    8 1
    12    7   10 1
    13    8    9 2
    14   10   16 2
    15   10   20 1
    16   11   12 1
    17   12   15 1
    18   13   14 3
    19   15   22 1
    20   15   23 1
    21   16   17 1
    22   17   18 2
    23   18   19 1
    24   19   20 2
    25   19   21 1
    26    8   24 1
    27   11   25 1
    28   12   26 1
    29   12   27 1
    30   15   28 1
    31   16   29 1
    32   17   30 1
    33   18   31 1
    34   20   32 1
@<TRIPOS>PROPERTY_DATA
  Total_Score	| 2.3657
  Crash		| -0.6966
  Polar		| 1.8356
  FragIndex	| 1
  FragRMSD	| 0.564

