@<TRIPOS>MOLECULE
BindingDB_50303442
 39 42 0 0 0
SMALL
NO_CHARGES


@<TRIPOS>ATOM
1    N        -8.3285  -35.2246    2.7220  N     
2    C        -7.2443  -34.4880    2.3466  C     
3    N        -6.0309  -35.0863    2.2198  N     
4    C        -8.2583  -36.5628    2.9807  C     
5    C        -6.9981  -37.1799    2.8537  C     
6    C        -5.8988  -36.4105    2.4670  C     
7    N        -4.8163  -37.2139    2.4218  N     
8    C        -5.2492  -38.4433    2.7852  C     
9    N        -6.5730  -38.4397    3.0420  N     
10   C        -3.5380  -36.8461    2.0981  C     
11   N        -9.3534  -37.2903    3.3040  N     
12   C       -10.6820  -36.7894    3.5231  C     
13   C        -7.3842  -33.2343    2.0569  C     
14   N        -7.5000  -32.1242    1.7773  N     
15   C        -2.4595  -37.1706    2.9583  C     
16   C        -1.1472  -36.7605    2.6542  C     
17   C        -0.8852  -36.0541    1.4659  C     
18   C        -1.9443  -35.7337    0.5947  C     
19   C        -3.2592  -36.1192    0.9146  C     
20   F        -1.7003  -35.0686   -0.5025  F     
21   F        -0.1771  -37.0286    3.4829  F     
22   C       -11.2777  -35.8806    2.4212  C     
23   C       -12.8132  -36.0812    2.4732  C     
24   C       -13.0655  -37.2803    3.4104  C     
25   C       -11.6940  -37.9498    3.5830  C     
26   H        -4.6630  -39.2788    2.8555  H     
27   H        -9.2142  -38.2385    3.4580  H     
28   H       -10.6998  -36.2507    4.4773  H     
29   H        -2.6350  -37.6761    3.8294  H     
30   H         0.0690  -35.7616    1.2427  H     
31   H        -4.0194  -35.8886    0.2664  H     
32   H       -11.0210  -34.8310    2.5859  H     
33   H       -10.8967  -36.1814    1.4411  H     
34   H       -13.3088  -35.1846    2.8630  H     
35   H       -13.2081  -36.2841    1.4715  H     
36   H       -13.4268  -36.9295    4.3824  H     
37   H       -13.7989  -37.9734    2.9894  H     
38   H       -11.5252  -38.6464    2.7538  H     
39   H       -11.6275  -38.4995    4.5259  H     
@<TRIPOS>BOND
     1    1    2 2
     2    1    4 1
     3    2    3 1
     4    2   13 1
     5    3    6 2
     6    4    5 2
     7    4   11 1
     8    5    6 1
     9    5    9 1
    10    6    7 1
    11    7    8 1
    12    7   10 1
    13    8    9 2
    14   10   15 2
    15   10   19 1
    16   11   12 1
    17   12   22 1
    18   12   25 1
    19   13   14 3
    20   15   16 1
    21   16   17 2
    22   16   21 1
    23   17   18 1
    24   18   19 2
    25   18   20 1
    26   22   23 1
    27   23   24 1
    28   24   25 1
    29    8   26 1
    30   11   27 1
    31   12   28 1
    32   15   29 1
    33   17   30 1
    34   19   31 1
    35   22   32 1
    36   22   33 1
    37   23   34 1
    38   23   35 1
    39   24   36 1
    40   24   37 1
    41   25   38 1
    42   25   39 1
@<TRIPOS>PROPERTY_DATA
  Total_Score	| 3.2887
  Crash		| -0.6556
  Polar		| 0.8168
  FragIndex	| 1
  FragRMSD	| 0.525

