@<TRIPOS>MOLECULE
BindingDB_50303439
 32 34 0 0 0
SMALL
NO_CHARGES


@<TRIPOS>ATOM
1    N        -8.3310  -35.1320    2.7734  N     
2    C        -7.2243  -34.4307    2.4017  C     
3    N        -6.0246  -35.0662    2.3072  N     
4    C        -8.2922  -36.4644    3.0703  C     
5    C        -7.0487  -37.1140    2.9761  C     
6    C        -5.9255  -36.3930    2.5783  C     
7    N        -4.8803  -37.2447    2.5299  N     
8    C        -5.3708  -38.4497    2.9098  C     
9    N        -6.6875  -38.3861    3.1786  N     
10   C        -3.5870  -36.9751    2.1349  C     
11   N        -9.3943  -37.1710    3.4095  N     
12   C       -10.7264  -36.8347    3.0214  C     
13   C        -7.3291  -33.1809    2.0743  C     
14   N        -7.4217  -32.0783    1.7635  N     
15   C       -11.6864  -38.0112    3.2710  C     
16   C        -3.3152  -36.0367    1.1092  C     
17   C        -1.9979  -35.7728    0.6908  C     
18   C        -0.9246  -36.4702    1.2703  C     
19   C        -1.1714  -37.4299    2.2684  C     
20   C        -2.4896  -37.6642    2.7079  C     
21   Cl        0.1032  -38.3483    2.8961  Cl    
22   H        -4.8352  -39.3191    2.9602  H     
23   H        -9.2685  -37.9754    3.9391  H     
24   H       -11.0635  -35.9660    3.5923  H     
25   H       -10.7496  -36.5871    1.9559  H     
26   H       -11.3950  -38.8723    2.6646  H     
27   H       -12.7055  -37.7202    3.0033  H     
28   H       -11.6685  -38.2970    4.3255  H     
29   H        -4.0811  -35.5591    0.6321  H     
30   H        -1.8233  -35.0924   -0.0531  H     
31   H         0.0296  -36.2913    0.9471  H     
32   H        -2.6501  -38.3517    3.4470  H     
@<TRIPOS>BOND
     1    1    2 2
     2    1    4 1
     3    2    3 1
     4    2   13 1
     5    3    6 2
     6    4    5 2
     7    4   11 1
     8    5    6 1
     9    5    9 1
    10    6    7 1
    11    7    8 1
    12    7   10 1
    13    8    9 2
    14   10   16 2
    15   10   20 1
    16   11   12 1
    17   12   15 1
    18   13   14 3
    19   16   17 1
    20   17   18 2
    21   18   19 1
    22   19   20 2
    23   19   21 1
    24    8   22 1
    25   11   23 1
    26   12   24 1
    27   12   25 1
    28   15   26 1
    29   15   27 1
    30   15   28 1
    31   16   29 1
    32   17   30 1
    33   18   31 1
    34   20   32 1
@<TRIPOS>PROPERTY_DATA
  Total_Score	| 1.9906
  Crash		| -0.7290
  Polar		| 0.8932
  FragIndex	| 1
  FragRMSD	| 0.609

