@<TRIPOS>MOLECULE
BindingDB_50303420
 32 34 0 0 0
SMALL
NO_CHARGES


@<TRIPOS>ATOM
1    N        -6.0753  -35.2462    2.1204  N     
2    C        -7.2527  -34.5639    2.1578  C     
3    N        -8.3939  -35.2059    2.5248  N     
4    C        -5.9745  -36.5724    2.4296  C     
5    C        -7.1586  -37.2373    2.8074  C     
6    C        -8.3551  -36.5220    2.8481  C     
7    N        -9.3344  -37.3553    3.2281  N     
8    C        -8.7474  -38.5620    3.4145  C     
9    N        -7.4226  -38.5049    3.1693  N     
10   C       -10.7149  -36.9764    3.3759  C     
11   N        -4.7942  -37.2439    2.4502  N     
12   C        -3.5592  -36.7827    2.1027  C     
13   C        -7.3135  -33.3118    1.8455  C     
14   N        -7.3921  -32.1948    1.5734  N     
15   C        -2.4877  -37.0377    2.9862  C     
16   C        -1.1770  -36.6386    2.6635  C     
17   C        -0.9172  -35.9886    1.4397  C     
18   C        -1.9743  -35.7368    0.5435  C     
19   C        -3.2880  -36.1281    0.8756  C     
20   F        -0.2005  -36.8758    3.4956  F     
21   F        -1.7352  -35.1514   -0.5951  F     
22   C       -11.7209  -38.1232    3.6205  C     
23   H        -9.2280  -39.4111    3.7133  H     
24   H       -10.7930  -36.2839    4.2203  H     
25   H       -11.0389  -36.4428    2.4736  H     
26   H        -4.8175  -38.1391    2.8315  H     
27   H        -2.6567  -37.5158    3.8765  H     
28   H         0.0357  -35.7117    1.1980  H     
29   H        -4.0378  -35.9724    0.2000  H     
30   H       -11.7316  -38.8143    2.7781  H     
31   H       -12.7307  -37.7097    3.7389  H     
32   H       -11.4675  -38.6692    4.5302  H     
@<TRIPOS>BOND
     1    1    2 2
     2    1    4 1
     3    2    3 1
     4    2   13 1
     5    3    6 2
     6    4    5 2
     7    4   11 1
     8    5    6 1
     9    5    9 1
    10    6    7 1
    11    7    8 1
    12    7   10 1
    13    8    9 2
    14   10   22 1
    15   11   12 1
    16   12   15 2
    17   12   19 1
    18   13   14 3
    19   15   16 1
    20   16   17 2
    21   16   20 1
    22   17   18 1
    23   18   19 2
    24   18   21 1
    25    8   23 1
    26   10   24 1
    27   10   25 1
    28   11   26 1
    29   15   27 1
    30   17   28 1
    31   19   29 1
    32   22   30 1
    33   22   31 1
    34   22   32 1
@<TRIPOS>PROPERTY_DATA
  Total_Score	| 2.8421
  Crash		| -0.8120
  Polar		| 0.9289
  FragIndex	| 1
  FragRMSD	| 0.568

