@<TRIPOS>MOLECULE
BindingDB_50294570
 48 51 0 0 0
SMALL
NO_CHARGES


@<TRIPOS>ATOM
1    S        26.2189  -20.1269   30.0986  S     
2    C        24.5864  -19.8615   30.8799  C     
3    C        22.4203  -18.3584   30.7048  C     
4    C        21.3671  -18.4986   29.5747  C     
5    C        22.2239  -18.7411   28.3051  C     
6    O        23.3761  -19.4456   28.8065  O     
7    C        23.7558  -18.8212   30.0546  C     
8    N        21.5997  -19.5438   27.2837  N     
9    O        22.5305  -17.0327   31.2129  O     
10   O        20.4898  -17.3672   29.4207  O     
11   N        20.5693  -21.2640   26.3030  N     
12   C        21.0763  -20.7837   27.4494  C     
13   C        20.7669  -20.3016   25.3820  C     
14   C        21.4042  -19.2220   25.9931  C     
15   N        21.7528  -18.1294   25.2580  N     
16   C        21.4750  -18.0862   23.9226  C     
17   N        20.8433  -19.1438   23.3182  N     
18   C        20.4760  -20.2622   24.0142  C     
19   N        19.8325  -21.2666   23.4023  N     
20   C        27.4440  -19.7775   31.4041  C     
21   C        28.4203  -18.6440   30.9734  C     
22   C        29.7300  -19.3120   30.5168  C     
23   C        29.5468  -20.8263   30.7438  C     
24   C        28.3744  -20.9645   31.7276  C     
25   N        27.7585  -22.2889   31.6862  N     
26   H        24.0528  -20.8152   30.9149  H     
27   H        24.6947  -19.4841   31.9223  H     
28   H        22.1343  -19.0173   31.5407  H     
29   H        20.7350  -19.3879   29.7751  H     
30   H        22.5714  -17.7953   27.8838  H     
31   H        24.3928  -17.9380   29.8597  H     
32   H        22.8632  -16.5128   30.4289  H     
33   H        21.0863  -16.6082   29.2286  H     
34   H        21.1074  -21.3009   28.3244  H     
35   H        21.7583  -17.2664   23.3660  H     
36   H        19.5973  -21.2017   22.4582  H     
37   H        19.5565  -22.0519   23.9160  H     
38   H        26.8962  -19.4685   32.3044  H     
39   H        28.0059  -18.0314   30.1713  H     
40   H        28.6111  -17.9871   31.8309  H     
41   H        29.9508  -19.1136   29.4544  H     
42   H        30.5673  -18.9301   31.1244  H     
43   H        29.3188  -21.3207   29.7860  H     
44   H        30.4642  -21.2724   31.1634  H     
45   H        28.7682  -20.8153   32.7435  H     
46   H        27.0533  -22.3547   32.4263  H     
47   H        28.4745  -22.9937   31.8496  H     
48   H        27.3119  -22.4548   30.7884  H     
@<TRIPOS>BOND
     1    1    2 1
     2   20    1 1
     3    7    2 1
     4    3    4 1
     5    3    7 1
     6    3    9 1
     7    4    5 1
     8    4   10 1
     9    5    6 1
    10    5    8 1
    11    6    7 1
    12    8   12 1
    13    8   14 1
    14   11   12 2
    15   11   13 1
    16   13   14 2
    17   13   18 1
    18   14   15 1
    19   15   16 2
    20   16   17 1
    21   17   18 2
    22   18   19 1
    23   20   21 1
    24   20   24 1
    25   21   22 1
    26   22   23 1
    27   23   24 1
    28   24   25 1
    29    2   26 1
    30    2   27 1
    31    3   28 1
    32    4   29 1
    33    5   30 1
    34    7   31 1
    35    9   32 1
    36   10   33 1
    37   12   34 1
    38   16   35 1
    39   19   36 1
    40   19   37 1
    41   20   38 1
    42   21   39 1
    43   21   40 1
    44   22   41 1
    45   22   42 1
    46   23   43 1
    47   23   44 1
    48   24   45 1
    49   25   46 1
    50   25   47 1
    51   25   48 1
@<TRIPOS>PROPERTY_DATA
  Total_Score	| 9.5260
  Crash		| -1.7972
  Polar		| 8.8173
  FragIndex	| 1
  FragRMSD	| 0.856

