@<TRIPOS>MOLECULE
BindingDB_50294569
 48 51 0 0 0
SMALL
NO_CHARGES


@<TRIPOS>ATOM
1    S        25.9041  -18.8213   31.1337  S     
2    C        24.8431  -19.2572   29.7181  C     
3    C        22.2785  -19.1188   30.4636  C     
4    C        21.0636  -18.5091   29.7377  C     
5    C        21.5811  -18.3666   28.2789  C     
6    O        23.0124  -18.4104   28.3283  O     
7    C        23.4723  -18.5012   29.6931  C     
8    N        21.1402  -19.3354   27.3168  N     
9    O        22.2677  -18.8377   31.8632  O     
10   O        20.6964  -17.2156   30.2708  O     
11   N        20.2324  -21.1368   26.3391  N     
12   C        20.5848  -20.5538   27.5024  C     
13   C        20.5912  -20.2727   25.3781  C     
14   C        21.1702  -19.1602   25.9801  C     
15   N        21.6154  -18.1299   25.2144  N     
16   C        21.5273  -18.1804   23.8532  C     
17   N        20.9462  -19.2537   23.2432  N     
18   C        20.4605  -20.3003   23.9757  C     
19   N        19.8425  -21.3274   23.3689  N     
20   C        27.1670  -20.1187   31.0353  C     
21   C        28.5661  -19.5866   31.4058  C     
22   N        29.0379  -18.4816   30.5387  N     
23   C        30.5162  -18.4914   30.4970  C     
24   C        30.9649  -19.7675   31.2393  C     
25   C        29.6932  -20.6388   31.2739  C     
26   H        25.4088  -18.9965   28.8039  H     
27   H        24.6508  -20.3447   29.7088  H     
28   H        22.2895  -20.1989   30.3492  H     
29   H        20.1685  -19.1557   29.8177  H     
30   H        21.2756  -17.3915   27.9136  H     
31   H        23.6384  -17.4794   30.0705  H     
32   H        22.3181  -17.8624   31.9604  H     
33   H        21.3627  -16.5798   29.9330  H     
34   H        20.4347  -20.9998   28.4042  H     
35   H        21.8878  -17.4056   23.2827  H     
36   H        19.6265  -21.2763   22.4149  H     
37   H        19.4913  -22.0616   23.9085  H     
38   H        26.9102  -20.9040   31.7532  H     
39   H        27.1979  -20.5654   30.0419  H     
40   H        28.5474  -19.2333   32.4395  H     
41   H        28.6958  -18.6253   29.5863  H     
42   H        28.7034  -17.5853   30.9152  H     
43   H        30.8592  -18.5077   29.4576  H     
44   H        30.9018  -17.5951   30.9910  H     
45   H        31.8107  -20.2728   30.7497  H     
46   H        31.2443  -19.5004   32.2650  H     
47   H        29.6135  -21.2139   30.3418  H     
48   H        29.6961  -21.3322   32.1263  H     
@<TRIPOS>BOND
     1    1    2 1
     2    1   20 1
     3    7    2 1
     4    3    4 1
     5    3    7 1
     6    3    9 1
     7    4    5 1
     8    4   10 1
     9    5    6 1
    10    5    8 1
    11    6    7 1
    12    8   12 1
    13    8   14 1
    14   11   12 2
    15   11   13 1
    16   13   14 2
    17   13   18 1
    18   14   15 1
    19   15   16 2
    20   16   17 1
    21   17   18 2
    22   18   19 1
    23   21   20 1
    24   21   22 1
    25   21   25 1
    26   22   23 1
    27   23   24 1
    28   24   25 1
    29    2   26 1
    30    2   27 1
    31    3   28 1
    32    4   29 1
    33    5   30 1
    34    7   31 1
    35    9   32 1
    36   10   33 1
    37   12   34 1
    38   16   35 1
    39   19   36 1
    40   19   37 1
    41   20   38 1
    42   20   39 1
    43   21   40 1
    44   22   41 1
    45   22   42 1
    46   23   43 1
    47   23   44 1
    48   24   45 1
    49   24   46 1
    50   25   47 1
    51   25   48 1
@<TRIPOS>PROPERTY_DATA
  Total_Score	| 9.9197
  Crash		| -1.0430
  Polar		| 6.1269
  FragIndex	| 1
  FragRMSD	| 0.466

