@<TRIPOS>MOLECULE
BindingDB_50294485
 46 48 0 0 0
SMALL
NO_CHARGES


@<TRIPOS>ATOM
1    C        22.1314  -18.2856   30.6967  C     
2    C        21.1438  -18.4263   29.5217  C     
3    C        22.0655  -18.6870   28.3084  C     
4    O        23.2516  -19.2862   28.8537  O     
5    C        23.5232  -18.5524   30.0592  C     
6    O        20.3177  -17.2903   29.3025  O     
7    O        22.0964  -16.9998   31.3223  O     
8    N        21.4888  -19.5395   27.2973  N     
9    C        24.5118  -19.3191   30.9764  C     
10   S        26.2248  -19.0309   30.4312  S     
11   C        27.0732  -20.1166   31.6243  C     
12   C        28.5268  -19.6729   31.9449  C     
13   C        29.5529  -19.8210   30.7850  C     
14   C        30.8932  -19.2720   31.0947  C     
15   N        29.7024  -21.2282   30.3673  N     
16   O        31.3081  -18.9784   32.3436  O     
17   O        31.7339  -18.9771   30.0832  O     
18   N        20.4660  -21.2743   26.3372  N     
19   C        20.9399  -20.7634   27.4895  C     
20   C        20.7357  -20.3656   25.3882  C     
21   C        21.3752  -19.2794   25.9842  C     
22   N        21.7561  -18.2036   25.2452  N     
23   C        21.5330  -18.1957   23.9048  C     
24   N        20.8996  -19.2427   23.3045  N     
25   C        20.4689  -20.3245   24.0087  C     
26   N        19.8053  -21.3139   23.3867  N     
27   F        21.9143  -17.1708   23.2035  F     
28   H        21.9102  -19.0433   31.4569  H     
29   H        20.4915  -19.2794   29.7125  H     
30   H        22.3513  -17.7288   27.8515  H     
31   H        23.9774  -17.5848   29.7847  H     
32   H        20.9414  -16.5480   29.1584  H     
33   H        22.2758  -16.3654   30.5939  H     
34   H        24.4113  -18.9601   32.0065  H     
35   H        24.2878  -20.3896   30.9513  H     
36   H        26.5157  -20.1385   32.5590  H     
37   H        27.0740  -21.1323   31.2186  H     
38   H        28.4848  -18.6166   32.2439  H     
39   H        28.8764  -20.2534   32.7996  H     
40   H        29.1881  -19.2577   29.9228  H     
41   H        29.9891  -21.8195   31.1587  H     
42   H        30.4092  -21.2950   29.6254  H     
43   H        28.8048  -21.5621   29.9926  H     
44   H        20.8736  -21.2344   28.3912  H     
45   H        19.5796  -21.2302   22.4467  H     
46   H        19.5015  -22.0803   23.8940  H     
@<TRIPOS>BOND
     1    1    2 1
     2    1    5 1
     3    1    7 1
     4    2    3 1
     5    2    6 1
     6    3    4 1
     7    3    8 1
     8    4    5 1
     9    5    9 1
    10    8   19 1
    11    8   21 1
    12    9   10 1
    13   10   11 1
    14   11   12 1
    15   12   13 1
    16   13   14 1
    17   13   15 1
    18   14   16 2
    19   14   17 1
    20   18   19 2
    21   18   20 1
    22   20   21 2
    23   20   25 1
    24   21   22 1
    25   22   23 2
    26   23   24 1
    27   23   27 1
    28   24   25 2
    29   25   26 1
    30    1   28 1
    31    2   29 1
    32    3   30 1
    33    5   31 1
    34    6   32 1
    35    7   33 1
    36    9   34 1
    37    9   35 1
    38   11   36 1
    39   11   37 1
    40   12   38 1
    41   12   39 1
    42   13   40 1
    43   15   41 1
    44   15   42 1
    45   15   43 1
    46   19   44 1
    47   26   45 1
    48   26   46 1
@<TRIPOS>PROPERTY_DATA
  Total_Score	| 11.4820
  Crash		| -2.2450
  Polar		| 11.0287
  FragIndex	| 1
  FragRMSD	| 0.934

