@<TRIPOS>MOLECULE
BindingDB_50294568
 48 51 0 0 0
SMALL
NO_CHARGES


@<TRIPOS>ATOM
1    S        26.1759  -19.2056   31.2060  S     
2    C        24.7574  -19.9988   30.3926  C     
3    C        22.5459  -18.5610   30.6793  C     
4    C        21.3584  -18.5575   29.6852  C     
5    C        22.0290  -18.7411   28.3037  C     
6    O        23.2138  -19.4854   28.5915  O     
7    C        23.7654  -18.9539   29.8005  C     
8    N        21.2946  -19.4756   27.3116  N     
9    O        22.7633  -17.3037   31.3261  O     
10   O        20.5523  -17.3813   29.7341  O     
11   N        20.1993  -21.1494   26.3217  N     
12   C        20.6478  -20.6515   27.4897  C     
13   C        20.5714  -20.2710   25.3810  C     
14   C        21.2440  -19.2135   25.9923  C     
15   N        21.7486  -18.1929   25.2477  N     
16   C        21.5976  -18.1988   23.8938  C     
17   N        20.9428  -19.2260   23.2797  N     
18   C        20.4173  -20.2665   23.9847  C     
19   N        19.7676  -21.2578   23.3531  N     
20   C        27.4358  -20.4626   30.8462  C     
21   C        28.8724  -20.0847   31.2949  C     
22   N        29.8491  -21.0053   30.6712  N     
23   C        31.0847  -20.2582   30.4073  C     
24   C        30.5960  -18.8572   30.0280  C     
25   C        29.3431  -18.6571   30.8966  C     
26   H        25.1079  -20.6409   29.5779  H     
27   H        24.2627  -20.6503   31.1187  H     
28   H        22.3635  -19.3096   31.4556  H     
29   H        20.7106  -19.4070   29.9071  H     
30   H        22.3184  -17.7590   27.9029  H     
31   H        24.3203  -18.0523   29.5102  H     
32   H        21.9084  -17.0792   31.7529  H     
33   H        21.1686  -16.6433   29.5430  H     
34   H        20.5418  -21.1347   28.3815  H     
35   H        21.9761  -17.4325   23.3355  H     
36   H        19.6109  -21.1971   22.3967  H     
37   H        19.4083  -22.0024   23.8640  H     
38   H        27.1456  -21.3899   31.3464  H     
39   H        27.4389  -20.6387   29.7676  H     
40   H        28.9414  -20.1928   32.3810  H     
41   H        30.0306  -21.8152   31.2688  H     
42   H        29.4754  -21.3296   29.7766  H     
43   H        31.6986  -20.2224   31.3094  H     
44   H        31.6506  -20.7243   29.5994  H     
45   H        31.3608  -18.0971   30.2191  H     
46   H        30.3259  -18.8309   28.9688  H     
47   H        28.5903  -18.0936   30.3337  H     
48   H        29.6017  -18.0791   31.7929  H     
@<TRIPOS>BOND
     1    1    2 1
     2    1   20 1
     3    7    2 1
     4    3    4 1
     5    3    7 1
     6    3    9 1
     7    4    5 1
     8    4   10 1
     9    5    6 1
    10    5    8 1
    11    6    7 1
    12    8   12 1
    13    8   14 1
    14   11   12 2
    15   11   13 1
    16   13   14 2
    17   13   18 1
    18   14   15 1
    19   15   16 2
    20   16   17 1
    21   17   18 2
    22   18   19 1
    23   21   20 1
    24   21   22 1
    25   21   25 1
    26   22   23 1
    27   23   24 1
    28   24   25 1
    29    2   26 1
    30    2   27 1
    31    3   28 1
    32    4   29 1
    33    5   30 1
    34    7   31 1
    35    9   32 1
    36   10   33 1
    37   12   34 1
    38   16   35 1
    39   19   36 1
    40   19   37 1
    41   20   38 1
    42   20   39 1
    43   21   40 1
    44   22   41 1
    45   22   42 1
    46   23   43 1
    47   23   44 1
    48   24   45 1
    49   24   46 1
    50   25   47 1
    51   25   48 1
@<TRIPOS>PROPERTY_DATA
  Total_Score	| 9.8330
  Crash		| -0.9481
  Polar		| 6.4409
  FragIndex	| 1
  FragRMSD	| 0.785

