@<TRIPOS>MOLECULE
BindingDB_50294486
 46 48 0 0 0
SMALL
NO_CHARGES


@<TRIPOS>ATOM
1    C        22.1423  -18.3279   30.7621  C     
2    C        20.9618  -18.9351   29.9864  C     
3    C        21.3815  -18.7188   28.5131  C     
4    O        22.8001  -18.9233   28.5242  O     
5    C        23.3326  -18.5025   29.7901  C     
6    O        19.7117  -18.3153   30.2910  O     
7    O        21.9247  -16.9582   31.1012  O     
8    N        20.8200  -19.5676   27.4908  N     
9    C        24.3837  -19.5506   30.2567  C     
10   S        25.4877  -18.8977   31.5520  S     
11   C        27.0554  -18.9990   30.6573  C     
12   C        28.3533  -18.7702   31.5040  C     
13   C        29.4293  -19.8860   31.3059  C     
14   C        30.8158  -19.3716   31.2957  C     
15   N        29.2563  -20.9205   32.3510  N     
16   O        31.4843  -19.2244   30.1268  O     
17   O        31.4164  -18.9145   32.4204  O     
18   N        19.8549  -21.2736   26.4132  N     
19   C        20.1604  -20.7447   27.6164  C     
20   C        20.3239  -20.4209   25.4994  C     
21   C        20.9189  -19.3493   26.1617  C     
22   N        21.4786  -18.3277   25.4580  N     
23   C        21.4490  -18.3532   24.0981  C     
24   N        20.8514  -19.3845   23.4362  N     
25   C        20.2760  -20.4214   24.0965  C     
26   N        19.6478  -21.3880   23.4097  N     
27   Cl       22.1499  -17.0850   23.2354  Cl    
28   H        22.2819  -18.8640   31.6985  H     
29   H        20.9025  -20.0071   30.2188  H     
30   H        21.1698  -17.6745   28.2544  H     
31   H        23.8321  -17.5468   29.6081  H     
32   H        19.0370  -18.8263   29.7872  H     
33   H        21.9823  -16.4681   30.2578  H     
34   H        23.8750  -20.4242   30.6700  H     
35   H        24.9532  -19.9026   29.3911  H     
36   H        27.0823  -19.9896   30.1917  H     
37   H        27.0124  -18.2579   29.8518  H     
38   H        28.7721  -17.8027   31.2217  H     
39   H        28.1187  -18.6898   32.5662  H     
40   H        29.2658  -20.3726   30.3379  H     
41   H        29.5357  -20.5503   33.2606  H     
42   H        29.8165  -21.7537   32.1371  H     
43   H        28.2691  -21.1918   32.3935  H     
44   H        19.9301  -21.2129   28.4926  H     
45   H        19.5197  -21.2995   22.4559  H     
46   H        19.2279  -22.1146   23.8878  H     
@<TRIPOS>BOND
     1    1    2 1
     2    1    5 1
     3    1    7 1
     4    2    3 1
     5    2    6 1
     6    3    4 1
     7    3    8 1
     8    4    5 1
     9    5    9 1
    10    8   19 1
    11    8   21 1
    12    9   10 1
    13   10   11 1
    14   11   12 1
    15   12   13 1
    16   13   14 1
    17   13   15 1
    18   14   16 2
    19   14   17 1
    20   18   19 2
    21   18   20 1
    22   20   21 2
    23   20   25 1
    24   21   22 1
    25   22   23 2
    26   23   24 1
    27   23   27 1
    28   24   25 2
    29   25   26 1
    30    1   28 1
    31    2   29 1
    32    3   30 1
    33    5   31 1
    34    6   32 1
    35    7   33 1
    36    9   34 1
    37    9   35 1
    38   11   36 1
    39   11   37 1
    40   12   38 1
    41   12   39 1
    42   13   40 1
    43   15   41 1
    44   15   42 1
    45   15   43 1
    46   19   44 1
    47   26   45 1
    48   26   46 1
@<TRIPOS>PROPERTY_DATA
  Total_Score	| 9.9508
  Crash		| -2.4362
  Polar		| 9.3456
  FragIndex	| 1
  FragRMSD	| 0.683

