@<TRIPOS>MOLECULE
BindingDB_50294488
 49 51 0 0 0
SMALL
NO_CHARGES


@<TRIPOS>ATOM
1    C        22.4681  -18.8551   30.7092  C     
2    C        21.1479  -18.5818   29.9372  C     
3    C        21.6126  -18.5451   28.4400  C     
4    O        23.0560  -18.6844   28.4406  O     
5    C        23.4937  -18.2228   29.7404  C     
6    O        20.5820  -17.3214   30.3161  O     
7    O        22.4761  -18.2739   32.0180  O     
8    N        21.0563  -19.5114   27.5260  N     
9    C        25.0241  -18.4299   29.9892  C     
10   S        25.6467  -20.1134   30.3189  S     
11   C        27.3275  -19.6439   30.8604  C     
12   C        28.3927  -20.7080   30.4531  C     
13   C        29.8688  -20.2153   30.5704  C     
14   C        30.2617  -19.5593   31.8387  C     
15   N        30.7757  -21.3669   30.4108  N     
16   O        29.3629  -19.3454   32.8439  O     
17   O        31.5276  -19.0947   31.9980  O     
18   N        19.9737  -21.2471   26.6186  N     
19   C        20.3912  -20.6644   27.7664  C     
20   C        20.4021  -20.4457   25.6316  C     
21   C        21.0813  -19.3595   26.1881  C     
22   N        21.5959  -18.3854   25.3860  N     
23   C        21.4712  -18.4775   24.0291  C     
24   N        20.7897  -19.5152   23.4664  N     
25   C        20.2362  -20.4972   24.2279  C     
26   N        19.5120  -21.4477   23.6042  N     
27   C        22.0630  -17.4337   23.1844  C     
28   H        22.6364  -19.9483   30.7830  H     
29   H        20.4005  -19.3615   30.1413  H     
30   H        21.3655  -17.5484   28.0442  H     
31   H        23.3601  -17.1267   29.7740  H     
32   H        21.1824  -16.6329   29.9403  H     
33   H        23.3198  -18.5764   32.4179  H     
34   H        25.5340  -18.0358   29.0956  H     
35   H        25.3140  -17.7973   30.8440  H     
36   H        27.6016  -18.6852   30.4080  H     
37   H        27.3188  -19.5130   31.9451  H     
38   H        28.2670  -21.6083   31.0663  H     
39   H        28.2066  -20.9755   29.4029  H     
40   H        30.0676  -19.5083   29.7460  H     
41   H        30.6400  -22.0202   31.1860  H     
42   H        31.7599  -21.0446   30.4060  H     
43   H        30.5763  -21.8376   29.5260  H     
44   H        20.2312  -21.0324   28.7061  H     
45   H        19.3501  -21.3759   22.6342  H     
46   H        19.0540  -22.1393   24.1266  H     
47   H        21.5663  -16.4771   23.3474  H     
48   H        21.9614  -17.6940   22.1307  H     
49   H        23.1218  -17.3228   23.4279  H     
@<TRIPOS>BOND
     1    1    2 1
     2    1    5 1
     3    1    7 1
     4    2    3 1
     5    2    6 1
     6    3    4 1
     7    3    8 1
     8    4    5 1
     9    5    9 1
    10    8   19 1
    11    8   21 1
    12    9   10 1
    13   10   11 1
    14   11   12 1
    15   12   13 1
    16   13   14 1
    17   13   15 1
    18   14   16 2
    19   14   17 1
    20   18   19 2
    21   18   20 1
    22   20   21 2
    23   20   25 1
    24   21   22 1
    25   22   23 2
    26   23   24 1
    27   23   27 1
    28   24   25 2
    29   25   26 1
    30    1   28 1
    31    2   29 1
    32    3   30 1
    33    5   31 1
    34    6   32 1
    35    7   33 1
    36    9   34 1
    37    9   35 1
    38   11   36 1
    39   11   37 1
    40   12   38 1
    41   12   39 1
    42   13   40 1
    43   15   41 1
    44   15   42 1
    45   15   43 1
    46   19   44 1
    47   26   45 1
    48   26   46 1
    49   27   47 1
    50   27   48 1
    51   27   49 1
@<TRIPOS>PROPERTY_DATA
  Total_Score	| 11.2890
  Crash		| -3.2611
  Polar		| 8.3796
  FragIndex	| 1
  FragRMSD	| 1.051

