@<TRIPOS>MOLECULE
BindingDB_50009672
 46 48 0 0 0
SMALL
NO_CHARGES


@<TRIPOS>ATOM
1    N        21.3919  -19.3100   27.3463  N     
2    C        21.8036  -18.3141   28.3143  C     
3    C        21.3600  -19.1149   26.0135  C     
4    C        20.8220  -20.2548   25.4216  C     
5    N        20.5603  -21.1472   26.3850  N     
6    C        21.4010  -18.5315   29.8000  C     
7    C        20.9212  -20.5685   27.5428  C     
8    O        23.2442  -18.2092   28.2963  O     
9    C        22.6901  -19.1073   30.4034  C     
10   C        23.7675  -18.3091   29.6374  C     
11   C        20.6080  -20.2739   24.0343  C     
12   N        21.7131  -18.0489   25.2483  N     
13   N        20.9886  -19.1867   23.3101  N     
14   C        30.7753  -19.2818   31.1211  C     
15   C        21.5466  -18.0917   23.8999  C     
16   O        31.5344  -19.1765   30.0070  O     
17   O        21.0311  -17.2868   30.4115  O     
18   C        29.3802  -19.7542   31.0169  C     
19   N        20.0083  -21.3100   23.4273  N     
20   O        22.7544  -18.9534   31.8230  O     
21   O        31.3581  -18.9907   32.3062  O     
22   N        29.1538  -20.8487   31.9755  N     
23   C        25.2216  -18.8626   29.5913  C     
24   S        25.7308  -19.9794   30.9341  S     
25   C        28.2746  -18.6667   31.1036  C     
26   C        26.9432  -18.9838   31.8462  C     
27   H        21.3889  -17.3566   27.9843  H     
28   H        20.5653  -19.2182   29.9347  H     
29   H        20.8219  -21.0438   28.4406  H     
30   H        22.7676  -20.1739   30.1586  H     
31   H        23.8098  -17.2985   30.0582  H     
32   H        21.8184  -17.2875   23.3331  H     
33   H        21.6191  -16.6025   30.0140  H     
34   H        29.2927  -20.1997   30.0161  H     
35   H        19.7599  -21.2497   22.4913  H     
36   H        19.7207  -22.0758   23.9497  H     
37   H        22.7029  -17.9891   31.9896  H     
38   H        29.8624  -21.5703   31.8316  H     
39   H        28.2259  -21.2424   31.7906  H     
40   H        29.2162  -20.5031   32.9407  H     
41   H        25.3582  -19.4255   28.6674  H     
42   H        25.8988  -18.0009   29.5452  H     
43   H        28.7213  -17.7862   31.5716  H     
44   H        28.0311  -18.3903   30.0728  H     
45   H        26.4438  -18.0453   32.0961  H     
46   H        27.1505  -19.4929   32.7872  H     
@<TRIPOS>BOND
     1    2    1 1
     2    1    3 1
     3    1    7 1
     4    2    6 1
     5    2    8 1
     6    3    4 2
     7    3   12 1
     8    4    5 1
     9    4   11 1
    10    5    7 2
    11    6    9 1
    12    6   17 1
    13    8   10 1
    14    9   10 1
    15    9   20 1
    16   10   23 1
    17   11   13 2
    18   11   19 1
    19   12   15 2
    20   13   15 1
    21   14   16 2
    22   14   18 1
    23   14   21 1
    24   18   22 1
    25   18   25 1
    26   23   24 1
    27   24   26 1
    28   25   26 1
    29    2   27 1
    30    6   28 1
    31    7   29 1
    32    9   30 1
    33   10   31 1
    34   15   32 1
    35   17   33 1
    36   18   34 1
    37   19   35 1
    38   19   36 1
    39   20   37 1
    40   22   38 1
    41   22   39 1
    42   22   40 1
    43   23   41 1
    44   23   42 1
    45   25   43 1
    46   25   44 1
    47   26   45 1
    48   26   46 1
@<TRIPOS>PROPERTY_DATA
  Total_Score	| 11.5885
  Crash		| -1.3543
  Polar		| 8.8071
  FragIndex	| 1
  FragRMSD	| 0.716

