@<TRIPOS>MOLECULE
BindingDB_50294572
 44 46 0 0 0
SMALL
NO_CHARGES


@<TRIPOS>ATOM
1    C        24.8553  -19.7088   30.1447  C     
2    C        23.8270  -18.6859   29.6031  C     
3    C        22.6231  -18.3853   30.5401  C     
4    O        22.7678  -17.1050   31.1557  O     
5    C        21.3779  -18.4856   29.6243  C     
6    O        20.4791  -17.3830   29.7203  O     
7    C        21.9964  -18.6047   28.2110  C     
8    O        23.2611  -19.2406   28.4143  O     
9    N        21.2831  -19.4008   27.2543  N     
10   C        20.7397  -20.6239   27.4545  C     
11   N        20.3026  -21.1594   26.3060  N     
12   C        20.5842  -20.2643   25.3507  C     
13   C        21.4342  -18.1391   23.8302  C     
14   N        21.6015  -18.1088   25.1786  N     
15   C        21.1890  -19.1589   25.9378  C     
16   S        26.2951  -18.9244   30.9248  S     
17   C        27.0502  -20.4116   31.6603  C     
18   N        20.8415  -19.2142   23.2404  N     
19   C        20.3957  -20.2789   23.9621  C     
20   N        19.8374  -21.3335   23.3512  N     
21   C        28.1424  -21.0860   30.7819  C     
22   C        29.5014  -20.3429   30.8081  C     
23   N        30.6088  -21.2752   30.5573  N     
24   H        24.3658  -20.3664   30.8704  H     
25   H        25.2101  -20.3183   29.3124  H     
26   H        24.3479  -17.7633   29.3329  H     
27   H        22.5470  -19.1293   31.3407  H     
28   H        22.8256  -16.4618   30.4191  H     
29   H        20.8123  -19.3844   29.8825  H     
30   H        21.0066  -16.5866   29.5079  H     
31   H        22.1785  -17.5971   27.8090  H     
32   H        20.6989  -21.1081   28.3534  H     
33   H        21.7465  -17.3516   23.2578  H     
34   H        27.4806  -20.1352   32.6254  H     
35   H        26.2714  -21.1488   31.8845  H     
36   H        19.6802  -21.3161   22.3993  H     
37   H        19.5416  -22.0958   23.8764  H     
38   H        28.3028  -22.1033   31.1666  H     
39   H        27.7975  -21.1811   29.7463  H     
40   H        29.5207  -19.5564   30.0539  H     
41   H        29.6589  -19.8989   31.7942  H     
42   H        30.5893  -22.0151   31.2641  H     
43   H        31.4912  -20.7751   30.6210  H     
44   H        30.5131  -21.6924   29.6290  H     
@<TRIPOS>BOND
     1    2    1 1
     2    1   16 1
     3    2    3 1
     4    2    8 1
     5    3    4 1
     6    3    5 1
     7    5    6 1
     8    5    7 1
     9    7    8 1
    10    7    9 1
    11    9   10 1
    12    9   15 1
    13   10   11 2
    14   11   12 1
    15   12   15 2
    16   12   19 1
    17   13   14 2
    18   13   18 1
    19   14   15 1
    20   16   17 1
    21   17   21 1
    22   18   19 2
    23   19   20 1
    24   21   22 1
    25   22   23 1
    26    1   24 1
    27    1   25 1
    28    2   26 1
    29    3   27 1
    30    4   28 1
    31    5   29 1
    32    6   30 1
    33    7   31 1
    34   10   32 1
    35   13   33 1
    36   17   34 1
    37   17   35 1
    38   20   36 1
    39   20   37 1
    40   21   38 1
    41   21   39 1
    42   22   40 1
    43   22   41 1
    44   23   42 1
    45   23   43 1
    46   23   44 1
@<TRIPOS>PROPERTY_DATA
  Total_Score	| 9.8816
  Crash		| -1.1446
  Polar		| 7.6745
  FragIndex	| 1
  FragRMSD	| 0.879

