@<TRIPOS>MOLECULE
BindingDB_50294573
 41 43 0 0 0
SMALL
NO_CHARGES


@<TRIPOS>ATOM
1    C        24.8795  -18.8138   29.4062  C     
2    C        23.4740  -18.1824   29.5147  C     
3    C        22.4353  -18.9321   30.3843  C     
4    O        22.5303  -18.6659   31.7927  O     
5    C        21.1113  -18.4564   29.7599  C     
6    O        20.6630  -17.2080   30.3198  O     
7    C        21.4922  -18.2757   28.2547  C     
8    O        22.9248  -18.1697   28.1838  O     
9    N        21.0977  -19.2941   27.3018  N     
10   C        20.5822  -20.5280   27.4972  C     
11   N        20.2607  -21.1232   26.3223  N     
12   C        20.6048  -20.2541   25.3662  C     
13   C        21.4909  -18.1604   23.8311  C     
14   N        21.5800  -18.0858   25.1937  N     
15   C        21.1441  -19.1181   25.9655  C     
16   S        25.8926  -18.8045   30.9209  S     
17   C        26.0059  -20.5777   31.3058  C     
18   N        20.9283  -19.2526   23.2359  N     
19   C        20.4734  -20.3093   23.9653  C     
20   N        19.8783  -21.3470   23.3598  N     
21   C        27.4614  -20.9710   31.6276  C     
22   N        27.5756  -22.4385   31.6906  N     
23   H        24.8001  -19.8229   28.9835  H     
24   H        25.4385  -18.2142   28.6807  H     
25   H        23.5647  -17.1504   29.8860  H     
26   H        22.5461  -20.0095   30.2237  H     
27   H        22.4325  -17.6941   31.8873  H     
28   H        20.3156  -19.1862   29.9105  H     
29   H        21.2915  -16.5227   29.9994  H     
30   H        21.0764  -17.3135   27.9019  H     
31   H        20.4528  -20.9637   28.4110  H     
32   H        21.8285  -17.3849   23.2604  H     
33   H        25.3683  -20.7862   32.1731  H     
34   H        25.6519  -21.1986   30.4708  H     
35   H        19.6840  -21.3046   22.4053  H     
36   H        19.5443  -22.0813   23.8950  H     
37   H        28.1373  -20.6170   30.8422  H     
38   H        27.7714  -20.5398   32.5920  H     
39   H        27.0276  -22.7862   32.4823  H     
40   H        28.5658  -22.7126   31.7929  H     
41   H        27.1994  -22.8312   30.8262  H     
@<TRIPOS>BOND
     1    2    1 1
     2    1   16 1
     3    2    3 1
     4    2    8 1
     5    3    4 1
     6    3    5 1
     7    5    6 1
     8    5    7 1
     9    7    8 1
    10    7    9 1
    11    9   10 1
    12    9   15 1
    13   10   11 2
    14   11   12 1
    15   12   15 2
    16   12   19 1
    17   13   14 2
    18   13   18 1
    19   14   15 1
    20   16   17 1
    21   17   21 1
    22   18   19 2
    23   19   20 1
    24   21   22 1
    25    1   23 1
    26    1   24 1
    27    2   25 1
    28    3   26 1
    29    4   27 1
    30    5   28 1
    31    6   29 1
    32    7   30 1
    33   10   31 1
    34   13   32 1
    35   17   33 1
    36   17   34 1
    37   20   35 1
    38   20   36 1
    39   21   37 1
    40   21   38 1
    41   22   39 1
    42   22   40 1
    43   22   41 1
@<TRIPOS>PROPERTY_DATA
  Total_Score	| 9.4275
  Crash		| -0.6831
  Polar		| 7.7506
  FragIndex	| 1
  FragRMSD	| 0.796

