@<TRIPOS>MOLECULE
BindingDB_50294561
 50 53 0 0 0
SMALL
NO_CHARGES


@<TRIPOS>ATOM
1    S        25.7120  -18.4769   31.5790  S     
2    C        24.7850  -19.3355   30.2847  C     
3    C        22.3552  -18.3297   30.5497  C     
4    C        21.2039  -18.4125   29.5184  C     
5    C        21.9339  -18.5690   28.1599  C     
6    O        23.2096  -19.1205   28.4810  O     
7    C        23.6410  -18.4851   29.6943  C     
8    N        21.2990  -19.4100   27.1885  N     
9    O        22.3668  -17.1062   31.2880  O     
10   O        20.3244  -17.2899   29.5081  O     
11   N        20.2901  -21.1654   26.2473  N     
12   C        20.7297  -20.6253   27.3910  C     
13   C        20.5904  -20.2813   25.2834  C     
14   C        21.2084  -19.1769   25.8660  C     
15   N        21.6454  -18.1392   25.1014  N     
16   C        21.4770  -18.1748   23.7557  C     
17   N        20.8694  -19.2413   23.1662  N     
18   C        20.4056  -20.3039   23.8981  C     
19   N        19.7953  -21.3392   23.3002  N     
20   C        27.0924  -19.6254   31.9043  C     
21   C        26.8756  -21.0812   31.3828  C     
22   C        28.0902  -21.9807   31.7251  C     
23   N        29.3580  -21.3684   31.2599  N     
24   C        29.6072  -20.0100   31.8162  C     
25   C        28.4474  -19.0500   31.4050  C     
26   C        30.9094  -19.4925   31.3707  C     
27   O        31.7453  -18.8895   32.2541  O     
28   O        31.3746  -19.7312   30.1286  O     
29   H        25.4937  -19.6136   29.4964  H     
30   H        24.3532  -20.2463   30.7043  H     
31   H        22.2581  -19.1515   31.2690  H     
32   H        20.5934  -19.2945   29.7359  H     
33   H        22.1025  -17.5706   27.7362  H     
34   H        24.0429  -17.4942   29.4430  H     
35   H        22.3934  -16.4058   30.6000  H     
36   H        20.9028  -16.5268   29.3084  H     
37   H        20.6590  -21.0935   28.2956  H     
38   H        21.8091  -17.3976   23.1820  H     
39   H        19.6069  -21.3152   22.3506  H     
40   H        19.4631  -22.0802   23.8370  H     
41   H        27.1619  -19.6818   32.9933  H     
42   H        25.9743  -21.5175   31.8316  H     
43   H        26.7503  -21.0749   30.2936  H     
44   H        28.1328  -22.1573   32.8023  H     
45   H        27.9672  -22.9526   31.2364  H     
46   H        30.1100  -21.9980   31.5372  H     
47   H        29.3389  -21.3194   30.2411  H     
48   H        29.6304  -20.0765   32.9098  H     
49   H        28.4083  -18.9440   30.3166  H     
50   H        28.6115  -18.0594   31.8388  H     
@<TRIPOS>BOND
     1    1    2 1
     2   20    1 1
     3    7    2 1
     4    3    4 1
     5    3    7 1
     6    3    9 1
     7    4    5 1
     8    4   10 1
     9    5    6 1
    10    5    8 1
    11    6    7 1
    12    8   12 1
    13    8   14 1
    14   11   12 2
    15   11   13 1
    16   13   14 2
    17   13   18 1
    18   14   15 1
    19   15   16 2
    20   16   17 1
    21   17   18 2
    22   18   19 1
    23   20   21 1
    24   20   25 1
    25   21   22 1
    26   22   23 1
    27   23   24 1
    28   24   25 1
    29   24   26 1
    30   26   27 2
    31   26   28 1
    32    2   29 1
    33    2   30 1
    34    3   31 1
    35    4   32 1
    36    5   33 1
    37    7   34 1
    38    9   35 1
    39   10   36 1
    40   12   37 1
    41   16   38 1
    42   19   39 1
    43   19   40 1
    44   20   41 1
    45   21   42 1
    46   21   43 1
    47   22   44 1
    48   22   45 1
    49   23   46 1
    50   23   47 1
    51   24   48 1
    52   25   49 1
    53   25   50 1
@<TRIPOS>PROPERTY_DATA
  Total_Score	| 11.7529
  Crash		| -2.0793
  Polar		| 9.6449
  FragIndex	| 1
  FragRMSD	| 0.915

