@<TRIPOS>MOLECULE
BindingDB_50294560
 50 53 0 0 0
SMALL
NO_CHARGES


@<TRIPOS>ATOM
1    S        25.7068  -18.6039   31.2141  S     
2    C        24.4631  -19.2634   30.0458  C     
3    C        22.1026  -18.2336   30.7191  C     
4    C        21.0164  -18.9705   29.9144  C     
5    C        21.3754  -18.6040   28.4624  C     
6    O        22.8069  -18.5317   28.4212  O     
7    C        23.3160  -18.2367   29.7382  C     
8    N        20.9187  -19.4930   27.4228  N     
9    O        21.7160  -16.8894   31.0656  O     
10   O        19.7134  -18.5439   30.3046  O     
11   N        20.0576  -21.2238   26.3031  N     
12   C        20.3183  -20.7115   27.5163  C     
13   C        20.4911  -20.3130   25.4222  C     
14   C        21.0292  -19.2246   26.1148  C     
15   N        21.5479  -18.1821   25.4092  N     
16   C        21.5370  -18.1840   24.0442  C     
17   N        20.9739  -19.2305   23.3560  N     
18   C        20.4406  -20.3013   24.0151  C     
19   N        19.8472  -21.3041   23.3263  N     
20   C        27.0548  -19.8171   30.9977  C     
21   C        26.9625  -20.9133   32.0902  C     
22   C        28.1614  -21.8876   31.9860  C     
23   N        29.4664  -21.1828   31.9890  N     
24   C        29.6212  -20.1163   30.9635  C     
25   C        28.4230  -19.0995   31.0799  C     
26   C        30.9142  -19.3927   31.0989  C     
27   O        31.5427  -18.8203   30.0447  O     
28   O        31.3702  -19.0242   32.3407  O     
29   H        24.9771  -19.4815   29.1004  H     
30   H        24.0449  -20.1968   30.4399  H     
31   H        22.3156  -18.7809   31.6440  H     
32   H        21.1296  -20.0530   30.0831  H     
33   H        20.9772  -17.6001   28.2555  H     
34   H        23.7860  -17.2257   29.7174  H     
35   H        21.8495  -16.3560   30.2480  H     
36   H        19.1148  -19.1157   29.7810  H     
37   H        20.1041  -21.1853   28.3952  H     
38   H        21.9504  -17.3869   23.5497  H     
39   H        19.7046  -21.2311   22.3551  H     
40   H        19.4564  -22.0589   23.8103  H     
41   H        26.9698  -20.3064   30.0134  H     
42   H        26.9859  -20.4491   33.0713  H     
43   H        26.0329  -21.4619   31.9972  H     
44   H        28.1504  -22.5730   32.8420  H     
45   H        28.0693  -22.4922   31.0823  H     
46   H        29.5918  -20.7640   32.9142  H     
47   H        30.1962  -21.8709   31.8464  H     
48   H        29.5986  -20.5733   29.9595  H     
49   H        28.5108  -18.3598   30.2731  H     
50   H        28.5050  -18.5631   32.0301  H     
@<TRIPOS>BOND
     1    1    2 1
     2   20    1 1
     3    7    2 1
     4    3    4 1
     5    3    7 1
     6    3    9 1
     7    4    5 1
     8    4   10 1
     9    5    6 1
    10    5    8 1
    11    6    7 1
    12    8   12 1
    13    8   14 1
    14   11   12 2
    15   11   13 1
    16   13   14 2
    17   13   18 1
    18   14   15 1
    19   15   16 2
    20   16   17 1
    21   17   18 2
    22   18   19 1
    23   20   21 1
    24   20   25 1
    25   21   22 1
    26   22   23 1
    27   23   24 1
    28   24   25 1
    29   24   26 1
    30   26   27 2
    31   26   28 1
    32    2   29 1
    33    2   30 1
    34    3   31 1
    35    4   32 1
    36    5   33 1
    37    7   34 1
    38    9   35 1
    39   10   36 1
    40   12   37 1
    41   16   38 1
    42   19   39 1
    43   19   40 1
    44   20   41 1
    45   21   42 1
    46   21   43 1
    47   22   44 1
    48   22   45 1
    49   23   46 1
    50   23   47 1
    51   24   48 1
    52   25   49 1
    53   25   50 1
@<TRIPOS>PROPERTY_DATA
  Total_Score	| 11.3153
  Crash		| -1.4441
  Polar		| 8.5939
  FragIndex	| 1
  FragRMSD	| 0.640

