@<TRIPOS>MOLECULE
BindingDB_50294479
 44 46 0 0 0
SMALL
NO_CHARGES


@<TRIPOS>ATOM
1    C        22.1013  -19.0282   30.4323  C     
2    C        20.8884  -18.4482   29.6917  C     
3    C        21.3891  -18.3374   28.2250  C     
4    O        22.8242  -18.3702   28.2738  O     
5    C        23.2607  -18.3830   29.6430  C     
6    O        20.5395  -17.1587   30.2084  O     
7    O        22.1030  -18.7031   31.8226  O     
8    N        20.9884  -19.3492   27.2799  N     
9    C        24.6256  -19.1045   29.7339  C     
10   S        25.5679  -18.6074   31.2023  S     
11   C        26.9658  -19.7321   30.9452  C     
12   C        28.3434  -19.0605   31.2106  C     
13   C        29.5022  -20.1069   31.2011  C     
14   C        30.8463  -19.4873   31.2337  C     
15   N        29.3370  -21.0318   32.3391  N     
16   O        31.5359  -19.2646   30.0936  O     
17   O        31.3891  -19.0359   32.3843  O     
18   N        20.2815  -21.2463   26.3373  N     
19   C        20.4988  -20.5948   27.4943  C     
20   C        20.6371  -20.4000   25.3654  C     
21   C        21.0866  -19.2180   25.9434  C     
22   N        21.5138  -18.1868   25.1678  N     
23   C        21.5098  -18.3100   23.8110  C     
24   N        21.0717  -19.4608   23.2252  N     
25   C        20.6305  -20.5156   23.9661  C     
26   H        22.1087  -20.1201   30.3184  H     
27   H        20.0138  -19.0886   29.7998  H     
28   H        21.0762  -17.3701   27.8278  H     
29   H        23.3912  -17.3375   29.9528  H     
30   H        21.2567  -16.5521   29.9002  H     
31   H        22.9060  -19.1246   32.1920  H     
32   H        24.4833  -20.1905   29.7307  H     
33   H        25.2130  -18.8294   28.8505  H     
34   H        26.8197  -20.6189   31.5788  H     
35   H        26.9724  -20.0634   29.8964  H     
36   H        28.5024  -18.3077   30.4213  H     
37   H        28.3291  -18.5293   32.1699  H     
38   H        29.4484  -20.7163   30.2912  H     
39   H        29.5219  -20.5396   33.2174  H     
40   H        29.9704  -21.8286   32.2554  H     
41   H        28.3764  -21.3863   32.3546  H     
42   H        20.3219  -21.0164   28.4056  H     
43   H        21.8349  -17.5363   23.2284  H     
44   H        20.3021  -21.3721   23.5135  H     
@<TRIPOS>BOND
     1    1    2 1
     2    1    5 1
     3    1    7 1
     4    2    3 1
     5    2    6 1
     6    3    4 1
     7    3    8 1
     8    4    5 1
     9    5    9 1
    10    8   19 1
    11    8   21 1
    12    9   10 1
    13   10   11 1
    14   11   12 1
    15   12   13 1
    16   13   14 1
    17   13   15 1
    18   14   16 2
    19   14   17 1
    20   18   19 2
    21   18   20 1
    22   20   21 2
    23   20   25 1
    24   21   22 1
    25   22   23 2
    26   23   24 1
    27   24   25 2
    28    1   26 1
    29    2   27 1
    30    3   28 1
    31    5   29 1
    32    6   30 1
    33    7   31 1
    34    9   32 1
    35    9   33 1
    36   11   34 1
    37   11   35 1
    38   12   36 1
    39   12   37 1
    40   13   38 1
    41   15   39 1
    42   15   40 1
    43   15   41 1
    44   19   42 1
    45   23   43 1
    46   25   44 1
@<TRIPOS>PROPERTY_DATA
  Total_Score	| 10.2234
  Crash		| -1.0687
  Polar		| 8.0709
  FragIndex	| 1
  FragRMSD	| 0.431

