@<TRIPOS>MOLECULE
BindingDB_50294559
 50 53 0 0 0
SMALL
NO_CHARGES


@<TRIPOS>ATOM
1    S        26.1723  -19.1872   30.0536  S     
2    C        24.5216  -19.8690   30.4238  C     
3    C        22.0232  -19.2755   30.6066  C     
4    C        21.0503  -18.5273   29.6869  C     
5    C        21.7829  -18.5368   28.3147  C     
6    O        23.1339  -18.9722   28.5528  O     
7    C        23.3777  -18.9159   29.9699  C     
8    N        21.2203  -19.4027   27.3109  N     
9    O        21.9363  -18.8904   31.9777  O     
10   O        20.8033  -17.2016   30.1564  O     
11   N        20.2621  -21.1643   26.3418  N     
12   C        20.6565  -20.6195   27.4991  C     
13   C        20.5832  -20.2903   25.3794  C     
14   C        21.1819  -19.1822   25.9836  C     
15   N        21.6318  -18.1485   25.2283  N     
16   C        21.5098  -18.1846   23.8773  C     
17   N        20.9118  -19.2518   23.2732  N     
18   C        20.4400  -20.3142   23.9838  C     
19   N        19.8338  -21.3177   23.3444  N     
20   C        27.0142  -19.2908   31.6688  C     
21   C        26.9568  -20.7000   32.3523  C     
22   C        27.9555  -21.6985   31.7223  C     
23   N        29.3264  -21.1556   31.7816  N     
24   C        29.4951  -19.8792   31.0342  C     
25   C        28.4906  -18.8018   31.5679  C     
26   C        30.8848  -19.3924   31.1301  C     
27   O        31.4223  -18.9686   32.3054  O     
28   O        31.5004  -18.9119   30.0202  O     
29   H        24.4298  -20.8387   29.9099  H     
30   H        24.3992  -20.0412   31.4994  H     
31   H        21.8395  -20.3574   30.5326  H     
32   H        20.0777  -19.0403   29.6594  H     
33   H        21.8275  -17.5181   27.9247  H     
34   H        23.6505  -17.8917   30.2560  H     
35   H        22.0732  -17.9212   31.9840  H     
36   H        21.5488  -16.6628   29.8347  H     
37   H        20.5351  -21.0781   28.4087  H     
38   H        21.8463  -17.4078   23.3077  H     
39   H        19.6735  -21.2546   22.3898  H     
40   H        19.4591  -22.0630   23.8404  H     
41   H        26.4933  -18.5789   32.3156  H     
42   H        27.2177  -20.5840   33.4133  H     
43   H        25.9529  -21.1334   32.3044  H     
44   H        27.9259  -22.6324   32.2922  H     
45   H        27.6677  -21.9179   30.6912  H     
46   H        29.5629  -20.9911   32.7603  H     
47   H        29.9524  -21.8694   31.4116  H     
48   H        29.2888  -20.0729   29.9743  H     
49   H        28.5528  -17.9158   30.9264  H     
50   H        28.8183  -18.5033   32.5660  H     
@<TRIPOS>BOND
     1    1    2 1
     2   20    1 1
     3    7    2 1
     4    3    4 1
     5    3    7 1
     6    3    9 1
     7    4    5 1
     8    4   10 1
     9    5    6 1
    10    5    8 1
    11    6    7 1
    12    8   12 1
    13    8   14 1
    14   11   12 2
    15   11   13 1
    16   13   14 2
    17   13   18 1
    18   14   15 1
    19   15   16 2
    20   16   17 1
    21   17   18 2
    22   18   19 1
    23   20   21 1
    24   20   25 1
    25   21   22 1
    26   22   23 1
    27   23   24 1
    28   24   25 1
    29   24   26 1
    30   26   27 2
    31   26   28 1
    32    2   29 1
    33    2   30 1
    34    3   31 1
    35    4   32 1
    36    5   33 1
    37    7   34 1
    38    9   35 1
    39   10   36 1
    40   12   37 1
    41   16   38 1
    42   19   39 1
    43   19   40 1
    44   20   41 1
    45   21   42 1
    46   21   43 1
    47   22   44 1
    48   22   45 1
    49   23   46 1
    50   23   47 1
    51   24   48 1
    52   25   49 1
    53   25   50 1
@<TRIPOS>PROPERTY_DATA
  Total_Score	| 10.1807
  Crash		| -1.9068
  Polar		| 8.9016
  FragIndex	| 1
  FragRMSD	| 0.713

