@<TRIPOS>MOLECULE
BindingDB_2306
 60 63 0 0 0
SMALL
NO_CHARGES


@<TRIPOS>ATOM
1    C        -9.7965  -33.5583   23.4392  C     
2    C       -10.9174  -35.6931   22.9812  C     
3    C        -9.8163  -36.1183   22.2063  C     
4    C        -8.7116  -35.2597   22.0711  C     
5    C        -8.7056  -33.9989   22.6681  C     
6    C        -6.7732  -34.3204   21.5712  C     
7    C        -7.4974  -33.4025   22.3355  C     
8    N        -7.5465  -35.4207   21.4174  N     
9    C       -10.9035  -34.4229   23.6144  C     
10   C        -5.5132  -34.1571   21.0115  C     
11   O        -5.4698  -34.4668   19.8280  O     
12   C        -3.1353  -33.5876   20.9296  C     
13   C        -2.0989  -34.6794   21.3048  C     
14   C        -3.1328  -34.8697   23.5111  C     
15   C        -4.2051  -33.8182   23.0946  C     
16   N        -4.3731  -33.8298   21.6479  N     
17   N        -1.9104  -34.7412   22.7414  N     
18   C        -0.6949  -35.1222   23.2685  C     
19   C         1.2385  -36.5198   22.9254  C     
20   C         1.7143  -36.2474   24.2087  C     
21   C         0.9819  -35.3669   25.0310  C     
22   N         0.0594  -35.9852   22.5203  N     
23   C        -0.1826  -34.7199   24.5362  C     
24   N        -0.7198  -33.6469   25.1919  N     
25   C         1.2164  -32.3892   26.2093  C     
26   C        -0.2195  -32.9859   26.3717  C     
27   C        -1.2147  -31.8606   26.7735  C     
28   N       -11.9440  -33.9952   24.3565  N     
29   O       -12.3625  -32.5933   26.5275  O     
30   C       -10.1946  -34.2719   26.7423  C     
31   F       -10.2854  -34.4372   28.1015  F     
32   F        -9.6280  -35.4005   26.1994  F     
33   F        -9.4189  -33.1706   26.4775  F     
34   S       -11.8375  -34.0089   26.0433  S     
35   O       -12.8662  -35.1015   26.6057  O     
36   H        -9.7770  -32.6343   23.8753  H     
37   H       -11.7167  -36.3122   23.0912  H     
38   H        -9.8187  -37.0424   21.7667  H     
39   H        -7.2066  -32.4574   22.6053  H     
40   H        -7.2978  -36.2132   20.9091  H     
41   H        -2.7379  -32.6008   21.1966  H     
42   H        -3.2418  -33.5938   19.8443  H     
43   H        -2.4441  -35.6531   20.9326  H     
44   H        -1.1591  -34.4489   20.7964  H     
45   H        -2.9824  -34.8140   24.5968  H     
46   H        -3.5491  -35.8720   23.3127  H     
47   H        -5.1120  -34.0444   23.6447  H     
48   H        -3.8751  -32.8277   23.4185  H     
49   H         1.7347  -37.1634   22.3033  H     
50   H         2.5777  -36.6806   24.5430  H     
51   H         1.3430  -35.1401   25.9675  H     
52   H        -1.4936  -33.2398   24.7777  H     
53   H         1.9676  -33.1753   26.0038  H     
54   H         1.5083  -31.8677   27.1307  H     
55   H         1.2161  -31.6734   25.3822  H     
56   H        -0.2168  -33.7202   27.1893  H     
57   H        -1.2479  -31.0872   26.0020  H     
58   H        -0.9213  -31.3916   27.7151  H     
59   H        -2.2273  -32.2625   26.8977  H     
60   H       -12.8367  -34.1044   23.9782  H     
@<TRIPOS>BOND
     1    1    5 1
     2    1    9 2
     3    2    3 2
     4    2    9 1
     5    3    4 1
     6    4    5 2
     7    4    8 1
     8    5    7 1
     9    6    7 2
    10    6    8 1
    11    6   10 1
    12    9   28 1
    13   10   11 2
    14   10   16 1
    15   12   13 1
    16   12   16 1
    17   13   17 1
    18   14   15 1
    19   14   17 1
    20   15   16 1
    21   17   18 1
    22   18   22 2
    23   18   23 1
    24   19   20 2
    25   19   22 1
    26   20   21 1
    27   21   23 2
    28   23   24 1
    29   24   26 1
    30   25   26 1
    31   26   27 1
    32   28   34 1
    33   29   34 2
    34   30   31 1
    35   30   32 1
    36   30   33 1
    37   30   34 1
    38   34   35 2
    39    1   36 1
    40    2   37 1
    41    3   38 1
    42    7   39 1
    43    8   40 1
    44   12   41 1
    45   12   42 1
    46   13   43 1
    47   13   44 1
    48   14   45 1
    49   14   46 1
    50   15   47 1
    51   15   48 1
    52   19   49 1
    53   20   50 1
    54   21   51 1
    55   24   52 1
    56   25   53 1
    57   25   54 1
    58   25   55 1
    59   26   56 1
    60   27   57 1
    61   27   58 1
    62   27   59 1
    63   28   60 1
@<TRIPOS>PROPERTY_DATA
  Total_Score	| 10.5804
  Crash		| -2.0345
  Polar		| 1.9618
  FragIndex	| 1
  FragRMSD	| 0.332

