@<TRIPOS>MOLECULE
BindingDB_2291
 52 55 0 0 0
SMALL
NO_CHARGES


@<TRIPOS>ATOM
1    C        -9.7778  -33.7318   23.4847  C     
2    C       -10.8495  -34.6377   23.6233  C     
3    C       -10.8213  -35.8861   22.9600  C     
4    C        -9.7260  -36.2391   22.1485  C     
5    C        -8.6895  -34.0962   22.6693  C     
6    C        -8.6664  -35.3249   22.0100  C     
7    C        -6.7884  -34.2883   21.5010  C     
8    C        -7.5110  -33.4380   22.3432  C     
9    N        -7.5278  -35.4020   21.3052  N     
10   C        -5.5294  -34.0898   20.9432  C     
11   O        -5.4409  -34.4759   19.7823  O     
12   C        -2.1564  -34.5106   21.4495  C     
13   C        -3.1698  -33.4703   20.9106  C     
14   C        -4.3540  -33.5439   23.0379  C     
15   C        -2.9450  -33.7725   23.6829  C     
16   N        -4.4250  -33.6719   21.5967  N     
17   N        -1.9290  -34.4517   22.8929  N     
18   C        -0.7777  -35.0104   23.4345  C     
19   C         1.6581  -36.3617   24.0370  C     
20   C         1.1414  -35.3998   24.9182  C     
21   C        -0.0752  -34.7126   24.6572  C     
22   C         0.9550  -36.6362   22.8671  C     
23   N        -0.4976  -33.7708   25.5572  N     
24   C         0.1161  -33.2823   26.7649  C     
25   C         1.4506  -32.5566   26.4579  C     
26   N        -0.1910  -35.9648   22.6399  N     
27   C        -0.8548  -32.2904   27.4652  C     
28   H        -9.7892  -32.8280   23.9633  H     
29   H       -11.6488  -34.3895   24.2075  H     
30   H       -11.6054  -36.5321   23.0668  H     
31   H        -9.6990  -37.1406   21.6697  H     
32   H        -7.2427  -32.5051   22.6573  H     
33   H        -7.2601  -36.1567   20.7557  H     
34   H        -2.5069  -35.5100   21.1841  H     
35   H        -1.2275  -34.3265   20.9088  H     
36   H        -2.8001  -32.4585   21.1164  H     
37   H        -3.2234  -33.5626   19.8209  H     
38   H        -5.0269  -34.2754   23.4961  H     
39   H        -4.7208  -32.5554   23.3159  H     
40   H        -2.5459  -32.8058   23.9931  H     
41   H        -3.1684  -34.3543   24.5694  H     
42   H         2.5305  -36.8461   24.2390  H     
43   H         1.6739  -35.2180   25.7667  H     
44   H         1.3023  -37.3146   22.1863  H     
45   H        -1.3275  -33.3351   25.3520  H     
46   H         0.2816  -34.1147   27.4560  H     
47   H         2.1884  -33.2543   26.0572  H     
48   H         1.8697  -32.1100   27.3628  H     
49   H         1.2939  -31.7669   25.7165  H     
50   H        -1.0905  -31.4427   26.8155  H     
51   H        -0.4166  -31.9068   28.3926  H     
52   H        -1.7902  -32.7992   27.7200  H     
@<TRIPOS>BOND
     1    1    2 2
     2    1    5 1
     3    2    3 1
     4    3    4 2
     5    4    6 1
     6    5    6 2
     7    5    8 1
     8    6    9 1
     9    7    8 2
    10    7    9 1
    11    7   10 1
    12   10   11 2
    13   10   16 am
    14   12   13 1
    15   12   17 1
    16   13   16 1
    17   14   15 1
    18   14   16 1
    19   15   17 1
    20   17   18 1
    21   18   21 1
    22   18   26 2
    23   19   20 1
    24   19   22 2
    25   20   21 2
    26   21   23 1
    27   22   26 1
    28   23   24 1
    29   24   25 1
    30   24   27 1
    31    1   28 1
    32    2   29 1
    33    3   30 1
    34    4   31 1
    35    8   32 1
    36    9   33 1
    37   12   34 1
    38   12   35 1
    39   13   36 1
    40   13   37 1
    41   14   38 1
    42   14   39 1
    43   15   40 1
    44   15   41 1
    45   19   42 1
    46   20   43 1
    47   22   44 1
    48   23   45 1
    49   24   46 1
    50   25   47 1
    51   25   48 1
    52   25   49 1
    53   27   50 1
    54   27   51 1
    55   27   52 1
@<TRIPOS>PROPERTY_DATA
  Total_Score	| 9.3347
  Crash		| -1.4933
  Polar		| 2.1113
  FragIndex	| 1
  FragRMSD	| 0.478

