@<TRIPOS>MOLECULE
BindingDB_1961
 66 69 0 0 0
SMALL
NO_CHARGES


@<TRIPOS>ATOM
1    C        -8.6505  -35.1785   22.0926  C     
2    C        -8.5773  -33.9485   22.7457  C     
3    C        -9.7898  -35.9923   22.2132  C     
4    C        -9.6385  -33.4882   23.5442  C     
5    C       -10.8453  -35.5532   23.0401  C     
6    C       -10.7755  -34.3137   23.7288  C     
7    C        -7.3290  -33.4151   22.4458  C     
8    C        -6.6737  -34.3420   21.6262  C     
9    N        -7.5096  -35.3760   21.4126  N     
10   C        -5.4116  -34.2441   21.0763  C     
11   O        -5.3413  -34.5676   19.8942  O     
12   N        -4.2691  -33.9603   21.7345  N     
13   C        -1.9476  -34.7042   21.2683  C     
14   C        -1.7009  -34.8984   22.8012  C     
15   C        -3.0367  -33.6145   21.0280  C     
16   C        -3.0666  -35.2327   23.4828  C     
17   C        -4.1173  -34.1270   23.1724  C     
18   N        -0.6189  -35.8348   23.1327  N     
19   C         0.4733  -35.4542   23.8944  C     
20   C         2.9370  -34.6486   25.0400  C     
21   C         2.8891  -35.4686   23.9049  C     
22   C         1.7257  -34.2618   25.6358  C     
23   N         1.6901  -35.8277   23.3919  N     
24   C         0.4785  -34.6611   25.0904  C     
25   N        -0.6817  -34.3875   25.7427  N     
26   C        -0.9476  -33.4384   26.7693  C     
27   C        -0.6240  -37.1835   22.5404  C     
28   N       -11.8388  -33.9230   24.4887  N     
29   S       -11.8214  -33.9249   26.1877  S     
30   C       -10.2148  -34.0918   26.9806  C     
31   O       -12.5575  -32.6323   26.7608  O     
32   O       -12.6526  -35.2152   26.6377  O     
33   C        -0.4954  -38.2916   23.6249  C     
34   C        -0.6424  -31.9879   26.3154  C     
35   H        -9.8391  -36.8877   21.7252  H     
36   H        -9.5907  -32.5677   23.9800  H     
37   H       -11.6709  -36.1588   23.1441  H     
38   H        -6.9588  -32.5150   22.7732  H     
39   H        -7.3134  -36.1626   20.8813  H     
40   H        -1.0145  -34.4078   20.7656  H     
41   H        -2.3158  -35.6125   20.7811  H     
42   H        -1.3981  -33.8998   23.1338  H     
43   H        -3.1764  -33.4961   19.9465  H     
44   H        -2.6751  -32.6495   21.4082  H     
45   H        -3.4328  -36.2025   23.1061  H     
46   H        -2.9217  -35.3143   24.5618  H     
47   H        -3.8042  -33.1773   23.6180  H     
48   H        -5.0361  -34.4243   23.6847  H     
49   H         3.8261  -34.3540   25.4494  H     
50   H         3.7609  -35.7946   23.4789  H     
51   H         1.7751  -33.7098   26.4925  H     
52   H        -1.4271  -34.9529   25.5246  H     
53   H        -2.0109  -33.4941   27.0024  H     
54   H        -0.4036  -33.6748   27.6940  H     
55   H        -1.5440  -37.4202   21.9853  H     
56   H         0.1997  -37.3198   21.8116  H     
57   H       -12.7205  -34.0187   24.0861  H     
58   H        -9.6432  -34.8779   26.4842  H     
59   H       -10.3450  -34.3567   28.0310  H     
60   H        -9.6646  -33.1494   26.9220  H     
61   H         0.3998  -38.1361   24.2491  H     
62   H        -0.4380  -39.2753   23.1322  H     
63   H        -1.3909  -38.2812   24.2708  H     
64   H         0.4292  -31.8341   26.1767  H     
65   H        -1.0000  -31.2760   27.0728  H     
66   H        -1.1484  -31.7792   25.3640  H     
@<TRIPOS>BOND
     1    1    2 2
     2    1    3 1
     3    1    9 1
     4    2    4 1
     5    2    7 1
     6    3    5 2
     7    4    6 2
     8    5    6 1
     9    6   28 1
    10    7    8 2
    11    8    9 1
    12    8   10 1
    13   10   11 2
    14   10   12 am
    15   12   15 1
    16   12   17 1
    17   13   14 1
    18   13   15 1
    19   14   16 1
    20   14   18 1
    21   16   17 1
    22   18   19 1
    23   18   27 1
    24   19   23 1
    25   19   24 2
    26   20   21 1
    27   20   22 2
    28   21   23 2
    29   22   24 1
    30   24   25 1
    31   25   26 1
    32   26   34 1
    33   27   33 1
    34   28   29 1
    35   29   30 1
    36   29   31 2
    37   29   32 2
    38    3   35 1
    39    4   36 1
    40    5   37 1
    41    7   38 1
    42    9   39 1
    43   13   40 1
    44   13   41 1
    45   14   42 1
    46   15   43 1
    47   15   44 1
    48   16   45 1
    49   16   46 1
    50   17   47 1
    51   17   48 1
    52   20   49 1
    53   21   50 1
    54   22   51 1
    55   25   52 1
    56   26   53 1
    57   26   54 1
    58   27   55 1
    59   27   56 1
    60   28   57 1
    61   30   58 1
    62   30   59 1
    63   30   60 1
    64   33   61 1
    65   33   62 1
    66   33   63 1
    67   34   64 1
    68   34   65 1
    69   34   66 1
@<TRIPOS>PROPERTY_DATA
  Total_Score	| 12.8008
  Crash		| -2.4182
  Polar		| 2.1199
  FragIndex	| 1
  FragRMSD	| 0.127

