@<TRIPOS>MOLECULE
BindingDB_2303
 59 62 0 0 0
SMALL
NO_CHARGES


@<TRIPOS>ATOM
1    C        -9.6171  -33.5570   23.7282  C     
2    C       -10.8602  -35.5883   23.1758  C     
3    C        -9.8344  -35.9978   22.2993  C     
4    C        -8.6978  -35.1846   22.1658  C     
5    C        -8.5915  -33.9903   22.8717  C     
6    C        -6.7374  -34.3081   21.6663  C     
7    C        -7.3664  -33.4289   22.5490  C     
8    N        -7.5837  -35.3338   21.4289  N     
9    C       -10.7645  -34.3705   23.9094  C     
10   C        -5.4806  -34.1728   21.0882  C     
11   O        -5.4527  -34.4801   19.9008  O     
12   C        -3.0980  -33.5984   20.9757  C     
13   C        -2.0721  -34.7130   21.3020  C     
14   C        -3.0907  -34.9739   23.5152  C     
15   C        -4.1431  -33.8894   23.1565  C     
16   N        -4.3286  -33.8476   21.7101  N     
17   N        -1.8756  -34.8238   22.7354  N     
18   C        -0.6490  -35.1653   23.2568  C     
19   C         1.3389  -36.4749   22.8747  C     
20   C         1.7936  -36.2164   24.1753  C     
21   C         1.0251  -35.3831   25.0179  C     
22   N         0.1424  -35.9766   22.4831  N     
23   C        -0.1461  -34.7543   24.5281  C     
24   N        -0.7121  -33.6790   25.1500  N     
25   C         1.1718  -32.4773   26.2834  C     
26   C        -0.3026  -32.9628   26.3349  C     
27   C        -1.2349  -31.7290   26.4932  C     
28   N       -11.7173  -33.8866   24.7663  N     
29   C       -12.2217  -34.4021   25.8804  C     
30   C       -13.1772  -33.6016   26.6115  C     
31   O       -11.8667  -35.4794   26.3431  O     
32   H        -9.5190  -32.6761   24.2347  H     
33   H       -11.6882  -36.1816   23.2504  H     
34   H        -9.9101  -36.8671   21.7652  H     
35   H        -7.0022  -32.5406   22.8993  H     
36   H        -7.3984  -36.0899   20.8452  H     
37   H        -2.6957  -32.6263   21.2774  H     
38   H        -3.2347  -33.5568   19.8897  H     
39   H        -2.4315  -35.6667   20.9064  H     
40   H        -1.1472  -34.4613   20.7837  H     
41   H        -2.9324  -34.9680   24.5938  H     
42   H        -3.5197  -35.9547   23.2836  H     
43   H        -5.0467  -34.1288   23.7173  H     
44   H        -3.7899  -32.9175   23.5124  H     
45   H         1.8833  -37.0632   22.2352  H     
46   H         2.6801  -36.6110   24.4936  H     
47   H         1.3746  -35.2074   25.9523  H     
48   H        -1.4928  -33.3038   24.7005  H     
49   H         1.8633  -33.2931   26.4998  H     
50   H         1.3515  -31.6989   27.0369  H     
51   H         1.4110  -32.0602   25.2942  H     
52   H        -0.4426  -33.6072   27.2115  H     
53   H        -1.0927  -31.0336   25.6606  H     
54   H        -1.0269  -31.1899   27.4257  H     
55   H        -2.2825  -32.0358   26.5146  H     
56   H       -12.0282  -32.9884   24.5595  H     
57   H       -12.7169  -32.6576   26.9030  H     
58   H       -13.5268  -34.1088   27.5117  H     
59   H       -14.0404  -33.3924   25.9798  H     
@<TRIPOS>BOND
     1    1    5 1
     2    1    9 2
     3    2    3 2
     4    2    9 1
     5    3    4 1
     6    4    5 2
     7    4    8 1
     8    5    7 1
     9    6    7 2
    10    6    8 1
    11    6   10 1
    12    9   28 1
    13   10   11 2
    14   10   16 1
    15   12   13 1
    16   12   16 1
    17   13   17 1
    18   14   15 1
    19   14   17 1
    20   15   16 1
    21   17   18 1
    22   18   22 2
    23   18   23 1
    24   19   20 2
    25   19   22 1
    26   20   21 1
    27   21   23 2
    28   23   24 1
    29   24   26 1
    30   25   26 1
    31   26   27 1
    32   28   29 am
    33   29   30 1
    34   29   31 2
    35    1   32 1
    36    2   33 1
    37    3   34 1
    38    7   35 1
    39    8   36 1
    40   12   37 1
    41   12   38 1
    42   13   39 1
    43   13   40 1
    44   14   41 1
    45   14   42 1
    46   15   43 1
    47   15   44 1
    48   19   45 1
    49   20   46 1
    50   21   47 1
    51   24   48 1
    52   25   49 1
    53   25   50 1
    54   25   51 1
    55   26   52 1
    56   27   53 1
    57   27   54 1
    58   27   55 1
    59   28   56 1
    60   30   57 1
    61   30   58 1
    62   30   59 1
@<TRIPOS>PROPERTY_DATA
  Total_Score	| 9.6776
  Crash		| -1.3223
  Polar		| 1.9711
  FragIndex	| 1
  FragRMSD	| 0.379

