@<TRIPOS>MOLECULE
BindingDB_2307
 60 63 0 0 0
SMALL
NO_CHARGES


@<TRIPOS>ATOM
1    C        -9.7494  -35.3581   22.1519  C     
2    C        -9.0081  -33.2676   23.9240  C     
3    C        -8.0929  -33.7880   23.0007  C     
4    C        -8.4561  -34.8033   22.1244  C     
5    C        -6.3133  -34.2429   21.7558  C     
6    C        -7.3601  -35.0703   21.3214  C     
7    N        -6.8089  -33.4713   22.7526  N     
8    C       -10.6914  -34.8326   23.0617  C     
9    C        -5.0242  -34.2374   21.2462  C     
10   O        -4.9603  -34.4837   20.0468  O     
11   C        -3.8237  -34.1131   23.4034  C     
12   C        -2.8630  -35.2532   23.8341  C     
13   C        -1.6063  -35.0230   21.7595  C     
14   C        -2.5956  -33.9169   21.2957  C     
15   N        -3.8961  -34.0593   21.9486  N     
16   N        -1.5664  -35.0518   23.2122  N     
17   C        -0.3984  -34.8960   23.9171  C     
18   C         1.9117  -35.5906   24.0109  C     
19   C         2.1038  -34.9007   25.2114  C     
20   C         1.0206  -34.2172   25.7858  C     
21   N         0.6899  -35.5659   23.4339  N     
22   C        -0.2316  -34.1581   25.1334  C     
23   N        -1.2080  -33.3091   25.5692  N     
24   C        -1.2886  -31.5487   27.3175  C     
25   C        -1.6284  -33.0080   26.9127  C     
26   C        -3.1522  -33.2763   27.0550  C     
27   C       -10.3251  -33.7775   23.9377  C     
28   N       -11.2520  -33.2006   24.7175  N     
29   O       -12.3995  -32.6652   26.9944  O     
30   O       -12.6949  -35.0442   26.0913  O     
31   S       -11.6662  -33.8416   26.2119  S     
32   C       -10.1976  -34.2440   27.1540  C     
33   H       -10.0153  -36.1071   21.5101  H     
34   H        -8.7255  -32.5419   24.5701  H     
35   H        -7.3134  -35.7749   20.5801  H     
36   H        -6.3078  -32.7972   23.2443  H     
37   H       -11.6481  -35.2024   23.0738  H     
38   H        -4.7682  -34.3117   23.9068  H     
39   H        -3.4611  -33.1438   23.7712  H     
40   H        -2.8265  -35.3353   24.9203  H     
41   H        -3.2816  -36.2025   23.4879  H     
42   H        -1.9372  -35.9915   21.3754  H     
43   H        -0.6390  -34.8174   21.3048  H     
44   H        -2.1847  -32.9417   21.5695  H     
45   H        -2.6331  -33.9388   20.2024  H     
46   H         2.6776  -36.1028   23.5764  H     
47   H         3.0327  -34.8717   25.6499  H     
48   H         1.1900  -33.7046   26.6524  H     
49   H        -1.7544  -32.9072   24.8793  H     
50   H        -0.2144  -31.3666   27.2528  H     
51   H        -1.5997  -31.3778   28.3486  H     
52   H        -1.8043  -30.8370   26.6699  H     
53   H        -1.1240  -33.6828   27.6094  H     
54   H        -3.7324  -32.5844   26.4461  H     
55   H        -3.4598  -33.1628   28.0958  H     
56   H        -3.3931  -34.2916   26.7427  H     
57   H       -11.6344  -32.3271   24.4514  H     
58   H        -9.6976  -35.0962   26.6909  H     
59   H       -10.4611  -34.4994   28.1777  H     
60   H        -9.5089  -33.3928   27.1721  H     
@<TRIPOS>BOND
     1    1    4 1
     2    1    8 2
     3    2    3 1
     4    2   27 2
     5    3    4 2
     6    3    7 1
     7    4    6 1
     8    5    6 2
     9    5    7 1
    10    5    9 1
    11    8   27 1
    12    9   10 2
    13    9   15 1
    14   11   12 1
    15   11   15 1
    16   12   16 1
    17   13   14 1
    18   13   16 1
    19   14   15 1
    20   16   17 1
    21   17   21 2
    22   17   22 1
    23   18   19 2
    24   18   21 1
    25   19   20 1
    26   20   22 2
    27   22   23 1
    28   23   25 1
    29   24   25 1
    30   25   26 1
    31   27   28 1
    32   28   31 1
    33   29   31 2
    34   30   31 2
    35   31   32 1
    36    1   33 1
    37    2   34 1
    38    6   35 1
    39    7   36 1
    40    8   37 1
    41   11   38 1
    42   11   39 1
    43   12   40 1
    44   12   41 1
    45   13   42 1
    46   13   43 1
    47   14   44 1
    48   14   45 1
    49   18   46 1
    50   19   47 1
    51   20   48 1
    52   23   49 1
    53   24   50 1
    54   24   51 1
    55   24   52 1
    56   25   53 1
    57   26   54 1
    58   26   55 1
    59   26   56 1
    60   28   57 1
    61   32   58 1
    62   32   59 1
    63   32   60 1
@<TRIPOS>PROPERTY_DATA
  Total_Score	| 8.9783
  Crash		| -2.9881
  Polar		| 0.9617
  FragIndex	| 1
  FragRMSD	| 1.147

