@<TRIPOS>MOLECULE
BindingDB_2310
 63 66 0 0 0
SMALL
NO_CHARGES


@<TRIPOS>ATOM
1    C        -9.7967  -33.7853   23.4432  C     
2    C        -9.5703  -36.3409   22.2153  C     
3    C        -8.5554  -35.3852   22.0942  C     
4    C        -8.6478  -34.1351   22.7052  C     
5    C        -6.7222  -34.2912   21.5729  C     
6    C        -7.4822  -33.4462   22.3834  C     
7    N        -7.4130  -35.4392   21.4092  N     
8    C       -10.8355  -34.7409   23.5898  C     
9    C        -5.4951  -34.0709   20.9806  C     
10   O        -5.4514  -34.4497   19.8081  O     
11   C        -3.1222  -33.5102   20.8660  C     
12   C        -2.1191  -34.5561   21.4130  C     
13   C        -2.8054  -33.5953   23.6059  C     
14   C        -4.2653  -33.6372   23.0520  C     
15   N        -4.3626  -33.6790   21.5978  N     
16   N        -1.9002  -34.4552   22.8514  N     
17   C        -0.9122  -35.2164   23.4399  C     
18   C         0.3244  -37.2855   23.2089  C     
19   C         0.9573  -37.0868   24.4374  C     
20   C         0.6791  -35.9147   25.1569  C     
21   N        -0.5640  -36.3664   22.7824  N     
22   C        -0.2303  -34.9421   24.6692  C     
23   N        -0.3694  -33.7229   25.2642  N     
24   C         1.1500  -32.6623   26.8437  C     
25   C        -0.2400  -33.3086   26.6370  C     
26   C        -1.3807  -32.3106   26.9652  C     
27   C       -10.7066  -36.0182   22.9783  C     
28   N       -11.9578  -34.4438   24.3210  N     
29   C       -13.2682  -34.6222   23.7541  C     
30   O       -12.2806  -32.5519   26.2437  O     
31   O       -12.7438  -34.9392   26.8269  O     
32   S       -11.7698  -34.0339   25.9550  S     
33   C       -10.0910  -34.1854   26.5918  C     
34   H        -9.8705  -32.8431   23.8525  H     
35   H        -9.4831  -37.2509   21.7564  H     
36   H        -7.2497  -32.4847   22.6467  H     
37   H        -7.1253  -36.1960   20.8802  H     
38   H        -2.7351  -32.4988   21.0370  H     
39   H        -3.2090  -33.6308   19.7801  H     
40   H        -2.5127  -35.5533   21.1754  H     
41   H        -1.1694  -34.4327   20.8801  H     
42   H        -2.4468  -32.5677   23.5338  H     
43   H        -2.8401  -33.8736   24.6612  H     
44   H        -4.7202  -34.5407   23.4622  H     
45   H        -4.8134  -32.7734   23.4336  H     
46   H         0.5048  -38.1237   22.6531  H     
47   H         1.6134  -37.7843   24.8040  H     
48   H         1.1893  -35.7775   26.0276  H     
49   H        -0.5231  -32.9832   24.6586  H     
50   H         1.9336  -33.3536   26.5296  H     
51   H         1.3000  -32.4271   27.8984  H     
52   H         1.2411  -31.7431   26.2630  H     
53   H        -0.3355  -34.1389   27.3365  H     
54   H        -1.3183  -31.4264   26.3262  H     
55   H        -1.3166  -31.9941   28.0098  H     
56   H        -2.3500  -32.7887   26.8076  H     
57   H       -11.4414  -36.7187   23.0781  H     
58   H       -13.3383  -34.0805   22.8080  H     
59   H       -14.0724  -34.2518   24.4005  H     
60   H       -13.4575  -35.6847   23.5621  H     
61   H        -9.8132  -35.2442   26.6444  H     
62   H       -10.0467  -33.7433   27.5908  H     
63   H        -9.3958  -33.6589   25.9287  H     
@<TRIPOS>BOND
     1    1    4 1
     2    1    8 2
     3    2    3 1
     4    2   27 2
     5    3    4 2
     6    3    7 1
     7    4    6 1
     8    5    6 2
     9    5    7 1
    10    5    9 1
    11    8   27 1
    12    8   28 1
    13    9   10 2
    14    9   15 1
    15   11   12 1
    16   11   15 1
    17   12   16 1
    18   13   14 1
    19   13   16 1
    20   14   15 1
    21   16   17 1
    22   17   21 2
    23   17   22 1
    24   18   19 2
    25   18   21 1
    26   19   20 1
    27   20   22 2
    28   22   23 1
    29   23   25 1
    30   24   25 1
    31   25   26 1
    32   28   29 1
    33   28   32 1
    34   30   32 2
    35   31   32 2
    36   32   33 1
    37    1   34 1
    38    2   35 1
    39    6   36 1
    40    7   37 1
    41   11   38 1
    42   11   39 1
    43   12   40 1
    44   12   41 1
    45   13   42 1
    46   13   43 1
    47   14   44 1
    48   14   45 1
    49   18   46 1
    50   19   47 1
    51   20   48 1
    52   23   49 1
    53   24   50 1
    54   24   51 1
    55   24   52 1
    56   25   53 1
    57   26   54 1
    58   26   55 1
    59   26   56 1
    60   27   57 1
    61   29   58 1
    62   29   59 1
    63   29   60 1
    64   33   61 1
    65   33   62 1
    66   33   63 1
@<TRIPOS>PROPERTY_DATA
  Total_Score	| 10.7363
  Crash		| -1.9247
  Polar		| 2.0216
  FragIndex	| 1
  FragRMSD	| 0.638

