@<TRIPOS>MOLECULE
BindingDB_1965
 69 72 0 0 0
SMALL
NO_CHARGES


@<TRIPOS>ATOM
1    C        -8.7009  -35.2344   22.0787  C     
2    C        -8.6271  -33.9993   22.7201  C     
3    C        -9.8330  -36.0449   22.2194  C     
4    C        -9.6771  -33.5260   23.5145  C     
5    C       -10.8862  -35.6035   23.0458  C     
6    C       -10.8070  -34.3501   23.7183  C     
7    C        -7.4027  -33.4419   22.3952  C     
8    C        -6.7326  -34.3738   21.5858  C     
9    N        -7.5682  -35.4226   21.3876  N     
10   C        -5.4685  -34.2557   21.0309  C     
11   O        -5.4060  -34.5874   19.8529  O     
12   N        -4.3409  -33.9333   21.6861  N     
13   C        -2.0232  -34.6699   21.2078  C     
14   C        -1.7537  -34.8785   22.7332  C     
15   C        -3.1118  -33.5811   20.9689  C     
16   C        -3.1177  -35.1821   23.4402  C     
17   C        -4.1746  -34.0816   23.1227  C     
18   N        -0.6775  -35.8459   23.0209  N     
19   C         0.4072  -35.4929   23.8058  C     
20   C         2.8405  -34.6940   25.0293  C     
21   C         2.8294  -35.5129   23.8931  C     
22   C         1.6141  -34.3129   25.5916  C     
23   N         1.6426  -35.8594   23.3436  N     
24   C         0.3847  -34.7073   25.0084  C     
25   N        -0.8033  -34.4917   25.6207  N     
26   C        -1.5248  -33.2933   25.9755  C     
27   C        -0.7270  -37.1651   22.3642  C     
28   N       -11.8521  -33.9911   24.5140  N     
29   S       -11.7744  -33.8887   26.2031  S     
30   C       -10.1434  -34.0289   26.9462  C     
31   O       -12.5559  -32.6161   26.7610  O     
32   O       -12.5441  -35.1940   26.7122  O     
33   C         0.1515  -37.3200   21.0865  C     
34   C        -0.8036  -31.9665   26.2954  C     
35   C        -0.4822  -38.3354   23.3615  C     
36   H        -9.8976  -36.9355   21.7395  H     
37   H        -9.6201  -32.6021   23.9450  H     
38   H       -11.7091  -36.1988   23.1654  H     
39   H        -7.0469  -32.5233   22.6957  H     
40   H        -7.3627  -36.2002   20.8548  H     
41   H        -1.1004  -34.3561   20.7023  H     
42   H        -2.3768  -35.5863   20.7289  H     
43   H        -1.4415  -33.8915   23.0652  H     
44   H        -3.2629  -33.4514   19.8934  H     
45   H        -2.7541  -32.6149   21.3483  H     
46   H        -3.5111  -36.1456   23.1051  H     
47   H        -2.9866  -35.2388   24.5225  H     
48   H        -3.8607  -33.1185   23.5539  H     
49   H        -5.0902  -34.3650   23.6518  H     
50   H         3.7214  -34.4329   25.4835  H     
51   H         3.7122  -35.8381   23.4822  H     
52   H         1.6291  -33.8127   26.4793  H     
53   H        -1.3590  -35.2756   25.6439  H     
54   H        -2.1693  -33.1203   25.1055  H     
55   H        -2.1767  -33.5593   26.8204  H     
56   H        -1.7518  -37.3488   22.0105  H     
57   H       -12.7477  -34.1567   24.1512  H     
58   H        -9.5965  -34.8413   26.4631  H     
59   H       -10.2344  -34.2453   28.0106  H     
60   H        -9.5898  -33.0961   26.8263  H     
61   H        -0.0218  -36.4920   20.4043  H     
62   H        -0.1055  -38.2393   20.5756  H     
63   H         1.2181  -37.3596   21.3216  H     
64   H        -0.3644  -32.0068   27.2994  H     
65   H        -1.5204  -31.1425   26.2733  H     
66   H        -0.0229  -31.7546   25.5583  H     
67   H         0.5378  -38.3445   23.7393  H     
68   H        -0.6667  -39.2956   22.8600  H     
69   H        -1.1671  -38.2577   24.2154  H     
@<TRIPOS>BOND
     1    1    2 2
     2    1    3 1
     3    1    9 1
     4    2    4 1
     5    2    7 1
     6    3    5 2
     7    4    6 2
     8    5    6 1
     9    6   28 1
    10    7    8 2
    11    8    9 1
    12    8   10 1
    13   10   11 2
    14   10   12 am
    15   12   15 1
    16   12   17 1
    17   13   14 1
    18   13   15 1
    19   14   16 1
    20   14   18 1
    21   16   17 1
    22   18   19 1
    23   18   27 1
    24   19   23 1
    25   19   24 2
    26   20   21 1
    27   20   22 2
    28   21   23 2
    29   22   24 1
    30   24   25 1
    31   25   26 1
    32   26   34 1
    33   27   33 1
    34   27   35 1
    35   28   29 1
    36   29   30 1
    37   29   31 2
    38   29   32 2
    39    3   36 1
    40    4   37 1
    41    5   38 1
    42    7   39 1
    43    9   40 1
    44   13   41 1
    45   13   42 1
    46   14   43 1
    47   15   44 1
    48   15   45 1
    49   16   46 1
    50   16   47 1
    51   17   48 1
    52   17   49 1
    53   20   50 1
    54   21   51 1
    55   22   52 1
    56   25   53 1
    57   26   54 1
    58   26   55 1
    59   27   56 1
    60   28   57 1
    61   30   58 1
    62   30   59 1
    63   30   60 1
    64   33   61 1
    65   33   62 1
    66   33   63 1
    67   34   64 1
    68   34   65 1
    69   34   66 1
    70   35   67 1
    71   35   68 1
    72   35   69 1
@<TRIPOS>PROPERTY_DATA
  Total_Score	| 13.4813
  Crash		| -2.2945
  Polar		| 2.1217
  FragIndex	| 1
  FragRMSD	| 0.107

