@<TRIPOS>MOLECULE
BindingDB_1947
 66 69 0 0 0
SMALL
NO_CHARGES


@<TRIPOS>ATOM
1    C        -8.6205  -35.1798   22.0774  C     
2    C        -8.5585  -33.9697   22.7664  C     
3    C        -9.7744  -35.9845   22.1483  C     
4    C        -9.6245  -33.5284   23.5631  C     
5    C       -10.8517  -35.5553   22.9452  C     
6    C       -10.7790  -34.3430   23.6855  C     
7    C        -7.3144  -33.4197   22.4860  C     
8    C        -6.6247  -34.3274   21.6802  C     
9    N        -7.4636  -35.3599   21.4273  N     
10   C        -5.3284  -34.2478   21.1858  C     
11   O        -5.2430  -34.5770   20.0098  O     
12   N        -4.1973  -33.9624   21.8734  N     
13   C        -1.8976  -34.9237   21.7363  C     
14   C        -1.7197  -34.8327   23.2880  C     
15   C        -2.8965  -33.8518   21.2111  C     
16   C        -3.1421  -34.8886   23.9266  C     
17   C        -4.1176  -33.8398   23.3293  C     
18   N        -0.7597  -35.8144   23.8251  N     
19   C         0.4718  -35.4033   24.2887  C     
20   C         3.0829  -34.5736   24.8993  C     
21   C         2.8431  -35.5549   23.9279  C     
22   C         1.9945  -34.0177   25.5893  C     
23   N         1.5701  -35.9216   23.6702  N     
24   C         0.6700  -34.4538   25.3330  C     
25   N        -0.3911  -34.0876   26.1029  N     
26   C        -0.6810  -32.9019   26.8699  C     
27   C         0.1677  -32.7349   28.1632  C     
28   C        -0.6979  -31.6348   25.9876  C     
29   C        -0.9921  -37.2357   23.6223  C     
30   N       -11.8301  -33.9837   24.4480  N     
31   S       -11.8012  -33.9054   26.1296  S     
32   C       -10.1810  -34.0404   26.9065  C     
33   O       -12.5601  -32.6071   26.6474  O     
34   O       -12.6078  -35.1813   26.6392  O     
35   H        -9.8237  -36.8676   21.6311  H     
36   H        -9.5603  -32.6312   24.0467  H     
37   H       -11.6953  -36.1312   23.0048  H     
38   H        -6.9674  -32.5152   22.8304  H     
39   H        -7.2439  -36.1311   20.8742  H     
40   H        -0.9334  -34.7820   21.2495  H     
41   H        -2.2789  -35.9056   21.4490  H     
42   H        -1.3530  -33.8087   23.4709  H     
43   H        -2.9515  -33.9574   20.1235  H     
44   H        -2.4900  -32.8488   21.4028  H     
45   H        -3.5865  -35.8763   23.7446  H     
46   H        -3.0745  -34.7520   25.0103  H     
47   H        -3.7771  -32.8420   23.5922  H     
48   H        -5.0776  -33.9839   23.8368  H     
49   H         4.0444  -34.2741   25.1049  H     
50   H         3.6156  -35.9976   23.4227  H     
51   H         2.1959  -33.3251   26.3042  H     
52   H        -1.0919  -34.7530   26.1552  H     
53   H        -1.7094  -33.0450   27.2127  H     
54   H         0.3406  -33.7080   28.6197  H     
55   H        -0.3590  -32.1022   28.8838  H     
56   H         1.1343  -32.2690   27.9570  H     
57   H         0.3104  -31.3657   25.6597  H     
58   H        -1.1241  -30.7976   26.5461  H     
59   H        -1.3152  -31.8125   25.1097  H     
60   H        -1.9888  -37.5064   23.9751  H     
61   H        -0.2970  -37.8513   24.2221  H     
62   H        -0.8880  -37.5034   22.5607  H     
63   H       -12.7157  -34.0181   24.0296  H     
64   H        -9.6582  -34.9149   26.5189  H     
65   H       -10.2998  -34.1467   27.9894  H     
66   H        -9.5892  -33.1471   26.7111  H     
@<TRIPOS>BOND
     1    1    2 2
     2    1    3 1
     3    1    9 1
     4    2    4 1
     5    2    7 1
     6    3    5 2
     7    4    6 2
     8    5    6 1
     9    6   30 1
    10    7    8 2
    11    8    9 1
    12    8   10 1
    13   10   11 2
    14   10   12 1
    15   12   15 1
    16   12   17 1
    17   13   14 1
    18   13   15 1
    19   14   16 1
    20   14   18 1
    21   16   17 1
    22   18   19 1
    23   18   29 1
    24   19   23 1
    25   19   24 2
    26   20   21 1
    27   20   22 2
    28   21   23 2
    29   22   24 1
    30   24   25 1
    31   25   26 1
    32   26   27 1
    33   26   28 1
    34   30   31 1
    35   31   32 1
    36   31   33 2
    37   31   34 2
    38    3   35 1
    39    4   36 1
    40    5   37 1
    41    7   38 1
    42    9   39 1
    43   13   40 1
    44   13   41 1
    45   14   42 1
    46   15   43 1
    47   15   44 1
    48   16   45 1
    49   16   46 1
    50   17   47 1
    51   17   48 1
    52   20   49 1
    53   21   50 1
    54   22   51 1
    55   25   52 1
    56   26   53 1
    57   27   54 1
    58   27   55 1
    59   27   56 1
    60   28   57 1
    61   28   58 1
    62   28   59 1
    63   29   60 1
    64   29   61 1
    65   29   62 1
    66   30   63 1
    67   32   64 1
    68   32   65 1
    69   32   66 1
@<TRIPOS>PROPERTY_DATA
  Total_Score	| 12.8672
  Crash		| -2.1522
  Polar		| 2.1867
  FragIndex	| 1
  FragRMSD	| 0.226

