@<TRIPOS>MOLECULE
BindingDB_1956
 69 72 0 0 0
SMALL
NO_CHARGES


@<TRIPOS>ATOM
1    C        -8.6685  -35.2191   22.1354  C     
2    C        -8.5839  -33.9819   22.7720  C     
3    C        -9.8081  -36.0347   22.2721  C     
4    C        -9.6391  -33.5145   23.5728  C     
5    C       -10.8762  -35.5682   23.0558  C     
6    C       -10.8054  -34.3148   23.7318  C     
7    C        -7.3479  -33.4412   22.4385  C     
8    C        -6.7072  -34.3591   21.5963  C     
9    N        -7.5442  -35.4183   21.4381  N     
10   C        -5.4588  -34.2630   21.0030  C     
11   O        -5.4536  -34.5863   19.8229  O     
12   N        -4.3050  -33.9187   21.6005  N     
13   C        -2.0086  -34.8256   21.2247  C     
14   C        -1.7837  -34.9072   22.7669  C     
15   C        -3.0527  -33.7339   20.8552  C     
16   C        -3.1935  -35.1118   23.4189  C     
17   C        -4.1371  -33.9326   23.0489  C     
18   N        -0.7123  -35.8175   23.2429  N     
19   C         0.3335  -35.3481   24.0251  C     
20   C         2.7129  -34.4364   25.2874  C     
21   C         2.7556  -35.1784   24.1036  C     
22   C         1.4573  -34.1633   25.8554  C     
23   N         1.5957  -35.5883   23.5535  N     
24   C         0.2564  -34.5963   25.2465  C     
25   N        -0.9284  -34.3984   25.8981  N     
26   C        -1.4461  -33.2775   26.6382  C     
27   C        -0.6603  -37.1912   22.7177  C     
28   N       -11.8603  -33.9261   24.4950  N     
29   S       -11.7916  -33.9145   26.1831  S     
30   C       -10.1113  -34.1238   26.8206  C     
31   O       -12.5045  -32.6270   26.8058  O     
32   O       -12.6254  -35.1622   26.6927  O     
33   C        -0.4260  -38.2571   23.8147  C     
34   C        -0.9090  -31.9327   26.0839  C     
35   C        -3.0052  -33.3098   26.6149  C     
36   H        -9.8488  -36.9415   21.8007  H     
37   H        -9.5657  -32.6087   24.0336  H     
38   H       -11.7176  -36.1446   23.1458  H     
39   H        -6.9843  -32.5297   22.7348  H     
40   H        -7.3456  -36.2068   20.8962  H     
41   H        -1.0613  -34.6258   20.7333  H     
42   H        -2.3869  -35.7670   20.8294  H     
43   H        -1.4518  -33.8835   23.0338  H     
44   H        -3.1898  -33.7326   19.7749  H     
45   H        -2.6406  -32.7547   21.1108  H     
46   H        -3.6879  -36.0128   23.0649  H     
47   H        -3.0959  -35.2130   24.4946  H     
48   H        -3.6968  -32.9726   23.3749  H     
49   H        -5.0657  -34.0495   23.6225  H     
50   H         3.5775  -34.1018   25.7265  H     
51   H         3.6593  -35.4261   23.6812  H     
52   H         1.4437  -33.6752   26.7557  H     
53   H        -1.5317  -35.1276   25.8371  H     
54   H        -1.1324  -33.3787   27.6819  H     
55   H        -1.5473  -37.4438   22.1264  H     
56   H         0.1920  -37.3410   22.0367  H     
57   H       -12.7513  -33.9654   24.1037  H     
58   H        -9.7002  -35.0722   26.4645  H     
59   H       -10.1111  -34.1172   27.9130  H     
60   H        -9.4805  -33.3104   26.4605  H     
61   H         0.3399  -37.8938   24.4864  H     
62   H        -0.0961  -39.1906   23.3508  H     
63   H        -1.3113  -38.4678   24.3894  H     
64   H         0.1807  -31.9228   26.0672  H     
65   H        -1.2690  -31.1026   26.6957  H     
66   H        -1.2475  -31.7663   25.0628  H     
67   H        -3.4191  -33.2146   25.6016  H     
68   H        -3.4162  -32.4950   27.2242  H     
69   H        -3.3569  -34.2579   27.0315  H     
@<TRIPOS>BOND
     1    1    2 2
     2    1    3 1
     3    1    9 1
     4    2    4 1
     5    2    7 1
     6    3    5 2
     7    4    6 2
     8    5    6 1
     9    6   28 1
    10    7    8 2
    11    8    9 1
    12    8   10 1
    13   10   11 2
    14   10   12 am
    15   12   15 1
    16   12   17 1
    17   13   14 1
    18   13   15 1
    19   14   16 1
    20   14   18 1
    21   16   17 1
    22   18   19 1
    23   18   27 1
    24   19   23 1
    25   19   24 2
    26   20   21 1
    27   20   22 2
    28   21   23 2
    29   22   24 1
    30   24   25 1
    31   25   26 1
    32   26   34 1
    33   26   35 1
    34   27   33 1
    35   28   29 1
    36   29   30 1
    37   29   31 2
    38   29   32 2
    39    3   36 1
    40    4   37 1
    41    5   38 1
    42    7   39 1
    43    9   40 1
    44   13   41 1
    45   13   42 1
    46   14   43 1
    47   15   44 1
    48   15   45 1
    49   16   46 1
    50   16   47 1
    51   17   48 1
    52   17   49 1
    53   20   50 1
    54   21   51 1
    55   22   52 1
    56   25   53 1
    57   26   54 1
    58   27   55 1
    59   27   56 1
    60   28   57 1
    61   30   58 1
    62   30   59 1
    63   30   60 1
    64   33   61 1
    65   33   62 1
    66   33   63 1
    67   34   64 1
    68   34   65 1
    69   34   66 1
    70   35   67 1
    71   35   68 1
    72   35   69 1
@<TRIPOS>PROPERTY_DATA
  Total_Score	| 13.3258
  Crash		| -2.1448
  Polar		| 2.0225
  FragIndex	| 1
  FragRMSD	| 0.104

