@<TRIPOS>MOLECULE
BindingDB_2295
 54 57 0 0 0
SMALL
NO_CHARGES


@<TRIPOS>ATOM
1    C        -9.6869  -33.7496   23.3875  C     
2    C       -10.5572  -36.0044   22.9498  C     
3    C        -9.4366  -36.3010   22.1481  C     
4    C        -8.5765  -34.0628   22.5883  C     
5    C        -8.4537  -35.3097   21.9811  C     
6    C        -6.7084  -34.1272   21.4612  C     
7    C        -7.4794  -33.3478   22.2289  C     
8    N        -7.3043  -35.3012   21.2921  N     
9    C        -5.5236  -33.8011   20.9060  C     
10   O        -5.5826  -33.6670   19.6888  O     
11   C        -3.2110  -34.9544   23.3353  C     
12   C        -4.2000  -33.8113   23.0064  C     
13   C        -3.0936  -33.4736   20.8545  C     
14   C        -2.1170  -34.6378   21.1632  C     
15   N        -4.3509  -33.6827   21.5612  N     
16   N        -1.9724  -34.8145   22.5943  N     
17   C        -0.7691  -35.1284   23.1767  C     
18   C         1.6336  -36.1505   24.2236  C     
19   C         0.8761  -35.2336   24.9698  C     
20   C        -0.2897  -34.6399   24.4294  C     
21   C         1.1974  -36.5028   22.9409  C     
22   N        -0.9089  -33.5633   24.9886  N     
23   C        -0.4815  -32.5748   25.9493  C     
24   C        -1.0407  -32.8683   27.3697  C     
25   N         0.0200  -36.0030   22.4912  N     
26   C         1.0303  -32.2059   25.9551  C     
27   C       -10.6851  -34.7367   23.5714  C     
28   N       -11.7673  -34.4576   24.3171  N     
29   H        -9.7653  -32.8242   23.8168  H     
30   H       -11.2811  -36.7126   23.0836  H     
31   H        -9.3375  -37.2122   21.7001  H     
32   H        -7.2746  -32.4220   22.5187  H     
33   H        -6.9659  -36.0450   20.7595  H     
34   H        -3.0732  -35.0155   24.4181  H     
35   H        -3.6637  -35.8996   23.0387  H     
36   H        -5.1283  -34.0224   23.5363  H     
37   H        -3.8151  -32.8742   23.4202  H     
38   H        -2.6501  -32.5328   21.1888  H     
39   H        -3.2026  -33.4044   19.7713  H     
40   H        -2.5066  -35.5588   20.7244  H     
41   H        -1.1597  -34.4168   20.6781  H     
42   H         2.5095  -36.5300   24.5970  H     
43   H         1.2067  -34.9811   25.8948  H     
44   H         1.7395  -37.1576   22.3715  H     
45   H        -1.7675  -33.3470   24.5955  H     
46   H        -0.9956  -31.6544   25.6244  H     
47   H        -2.1293  -32.9883   27.3257  H     
48   H        -0.8116  -32.0390   28.0576  H     
49   H        -0.5998  -33.7866   27.7633  H     
50   H         1.5934  -32.8630   26.6158  H     
51   H         1.1681  -31.1869   26.3186  H     
52   H         1.4400  -32.2710   24.9432  H     
53   H       -12.4652  -35.1142   24.4239  H     
54   H       -11.8562  -33.5864   24.7405  H     
@<TRIPOS>BOND
     1    1    4 2
     2    1   27 1
     3    2    3 1
     4    2   27 2
     5    3    5 2
     6    4    5 1
     7    4    7 1
     8    5    8 1
     9    6    7 2
    10    6    8 1
    11    6    9 1
    12    9   10 2
    13    9   15 am
    14   11   12 1
    15   11   16 1
    16   12   15 1
    17   13   14 1
    18   13   15 1
    19   14   16 1
    20   16   17 1
    21   17   20 2
    22   17   25 1
    23   18   19 2
    24   18   21 1
    25   19   20 1
    26   20   22 1
    27   21   25 2
    28   22   23 1
    29   23   24 1
    30   23   26 1
    31   27   28 1
    32    1   29 1
    33    2   30 1
    34    3   31 1
    35    7   32 1
    36    8   33 1
    37   11   34 1
    38   11   35 1
    39   12   36 1
    40   12   37 1
    41   13   38 1
    42   13   39 1
    43   14   40 1
    44   14   41 1
    45   18   42 1
    46   19   43 1
    47   21   44 1
    48   22   45 1
    49   23   46 1
    50   24   47 1
    51   24   48 1
    52   24   49 1
    53   26   50 1
    54   26   51 1
    55   26   52 1
    56   28   53 1
    57   28   54 1
@<TRIPOS>PROPERTY_DATA
  Total_Score	| 9.7920
  Crash		| -1.4832
  Polar		| 1.1001
  FragIndex	| 1
  FragRMSD	| 0.326

