@<TRIPOS>MOLECULE
BindingDB_1944
 60 63 0 0 0
SMALL
NO_CHARGES


@<TRIPOS>ATOM
1    C        -9.7453  -33.7224   23.5043  C     
2    C       -10.8280  -34.6287   23.6721  C     
3    C       -10.8221  -35.8605   22.9666  C     
4    C        -9.7415  -36.2166   22.1371  C     
5    C        -8.6748  -34.0924   22.6720  C     
6    C        -8.6685  -35.3174   22.0048  C     
7    C        -7.4804  -33.4596   22.3579  C     
8    N       -11.8949  -34.3779   24.4764  N     
9    C       -10.1520  -34.1561   26.8503  C     
10   O       -12.3983  -32.4973   26.3950  O     
11   S       -11.7817  -33.9370   26.0964  S     
12   O       -12.6933  -34.9904   26.8738  O     
13   N        -7.5271  -35.4144   21.3054  N     
14   C        -6.7648  -34.3175   21.5137  C     
15   C        -5.4952  -34.1473   20.9747  C     
16   O        -5.3858  -34.5910   19.8381  O     
17   C        -4.3506  -33.4204   23.0369  C     
18   C        -2.9740  -33.7271   23.7092  C     
19   C        -2.1497  -34.5038   21.4964  C     
20   C        -3.1443  -33.4724   20.9213  C     
21   N        -4.4056  -33.6572   21.6064  N     
22   N        -1.9834  -34.4647   22.9491  N     
23   C        -0.9110  -35.1353   23.5260  C     
24   C         0.6033  -37.0018   23.0977  C     
25   C         1.3111  -36.7535   24.2722  C     
26   C         0.9029  -35.6858   25.0836  C     
27   C        -0.2050  -34.8599   24.7509  C     
28   N        -0.4360  -36.1952   22.7936  N     
29   C         1.6193  -32.7049   26.2552  C     
30   C         0.2276  -33.2483   26.6833  C     
31   C        -0.6203  -32.1011   27.3029  C     
32   N        -0.4904  -33.8053   25.5630  N     
33   H        -9.7382  -32.8064   23.9601  H     
34   H       -11.5991  -36.5163   23.0638  H     
35   H        -9.7331  -37.1173   21.6477  H     
36   H        -7.1863  -32.5392   22.6991  H     
37   H       -12.7356  -34.7844   24.2178  H     
38   H        -9.7158  -35.0973   26.5178  H     
39   H       -10.2407  -34.1685   27.9356  H     
40   H        -9.5046  -33.3307   26.5629  H     
41   H        -7.2731  -36.1759   20.7615  H     
42   H        -5.1046  -34.0211   23.5498  H     
43   H        -4.6129  -32.3784   23.2132  H     
44   H        -2.5212  -32.7897   24.0275  H     
45   H        -3.2380  -34.3085   24.5817  H     
46   H        -2.4839  -35.5034   21.2117  H     
47   H        -1.1966  -34.3160   21.0008  H     
48   H        -2.7753  -32.4587   21.1041  H     
49   H        -3.1927  -33.5893   19.8352  H     
50   H         0.8635  -37.7724   22.4743  H     
51   H         2.1056  -37.3428   24.5345  H     
52   H         1.4303  -35.5275   25.9401  H     
53   H         1.5343  -32.1268   25.3303  H     
54   H         2.3185  -33.5340   26.0767  H     
55   H         2.0543  -32.0706   27.0307  H     
56   H         0.3533  -34.0144   27.4543  H     
57   H        -0.1314  -31.6977   28.1947  H     
58   H        -1.6045  -32.4693   27.5966  H     
59   H        -0.7397  -31.2903   26.5775  H     
60   H        -1.2893  -33.3166   25.3536  H     
@<TRIPOS>BOND
     1    1    2 2
     2    1    5 1
     3    2    3 1
     4    2    8 1
     5    3    4 2
     6    4    6 1
     7    5    6 2
     8    5    7 1
     9    6   13 1
    10    7   14 2
    11    8   11 1
    12    9   11 1
    13   10   11 2
    14   11   12 2
    15   13   14 1
    16   14   15 1
    17   15   16 2
    18   15   21 1
    19   17   18 1
    20   17   21 1
    21   18   22 1
    22   19   20 1
    23   19   22 1
    24   20   21 1
    25   22   23 1
    26   23   27 1
    27   23   28 2
    28   24   25 2
    29   24   28 1
    30   25   26 1
    31   26   27 2
    32   27   32 1
    33   29   30 1
    34   30   31 1
    35   30   32 1
    36    1   33 1
    37    3   34 1
    38    4   35 1
    39    7   36 1
    40    8   37 1
    41    9   38 1
    42    9   39 1
    43    9   40 1
    44   13   41 1
    45   17   42 1
    46   17   43 1
    47   18   44 1
    48   18   45 1
    49   19   46 1
    50   19   47 1
    51   20   48 1
    52   20   49 1
    53   24   50 1
    54   25   51 1
    55   26   52 1
    56   29   53 1
    57   29   54 1
    58   29   55 1
    59   30   56 1
    60   31   57 1
    61   31   58 1
    62   31   59 1
    63   32   60 1
@<TRIPOS>PROPERTY_DATA
  Total_Score	| 10.8685
  Crash		| -1.6671
  Polar		| 2.2463
  FragIndex	| 1
  FragRMSD	| 0.536

