@<TRIPOS>MOLECULE
BindingDB_1951
 69 72 0 0 0
SMALL
NO_CHARGES


@<TRIPOS>ATOM
1    C        -8.6479  -35.1904   22.0820  C     
2    C        -8.5817  -34.0030   22.8088  C     
3    C        -9.7984  -35.9907   22.1211  C     
4    C        -9.6569  -33.5759   23.6053  C     
5    C       -10.8846  -35.5822   22.9165  C     
6    C       -10.8152  -34.3922   23.6866  C     
7    C        -7.3317  -33.4503   22.5598  C     
8    C        -6.6564  -34.3306   21.7066  C     
9    N        -7.4970  -35.3433   21.4113  N     
10   C        -5.3672  -34.2304   21.2069  C     
11   O        -5.2471  -34.6489   20.0590  O     
12   N        -4.2653  -33.8532   21.8890  N     
13   C        -1.9497  -34.7062   21.7041  C     
14   C        -1.7877  -34.6681   23.2568  C     
15   C        -2.9834  -33.6451   21.2270  C     
16   C        -3.1938  -34.8091   23.9064  C     
17   C        -4.1985  -33.7662   23.3371  C     
18   N        -0.7928  -35.6193   23.7804  N     
19   C         0.3891  -35.1848   24.3474  C     
20   C         2.9639  -34.3136   25.1487  C     
21   C         2.7997  -35.3586   24.2236  C     
22   C         1.8197  -33.7124   25.6842  C     
23   N         1.5495  -35.7241   23.8680  N     
24   C         0.5223  -34.1961   25.3776  C     
25   N        -0.5560  -33.8320   26.1194  N     
26   C        -0.8883  -32.6246   26.8534  C     
27   C        -0.9150  -37.0121   23.4052  C     
28   N       -11.8858  -34.0951   24.4644  N     
29   S       -11.8114  -33.9393   26.1508  S     
30   C       -10.2082  -34.1814   26.9357  C     
31   O       -12.4672  -32.5775   26.6506  O     
32   O       -12.7154  -35.1265   26.7158  O     
33   C        -0.6893  -31.3475   25.9815  C     
34   C        -2.4108  -32.7544   27.1766  C     
35   C        -0.1173  -32.5043   28.2161  C     
36   H        -9.8446  -36.8624   21.5877  H     
37   H        -9.5955  -32.6941   24.1220  H     
38   H       -11.7227  -36.1695   22.9610  H     
39   H        -6.9721  -32.5755   22.9473  H     
40   H        -7.2903  -36.0959   20.8394  H     
41   H        -0.9866  -34.5186   21.2267  H     
42   H        -2.2956  -35.6939   21.3796  H     
43   H        -1.4534  -33.6496   23.4758  H     
44   H        -3.0361  -33.6843   20.1382  H     
45   H        -2.6087  -32.6440   21.4686  H     
46   H        -3.5970  -35.8036   23.7038  H     
47   H        -3.1166  -34.6886   24.9886  H     
48   H        -3.8879  -32.7565   23.6273  H     
49   H        -5.1468  -33.9549   23.8388  H     
50   H         3.8987  -33.9968   25.4045  H     
51   H         3.5998  -35.8357   23.8155  H     
52   H         1.9406  -32.9257   26.3103  H     
53   H        -1.2026  -34.5451   26.2355  H     
54   H        -1.9507  -37.3611   23.4591  H     
55   H        -0.3419  -37.6786   24.0563  H     
56   H        -0.5706  -37.1587   22.3728  H     
57   H       -12.7573  -34.3503   24.1152  H     
58   H        -9.7087  -35.0491   26.4970  H     
59   H       -10.3444  -34.3438   28.0079  H     
60   H        -9.5897  -33.2914   26.7903  H     
61   H         0.3668  -31.1094   25.8318  H     
62   H        -1.1645  -30.4813   26.4530  H     
63   H        -1.1537  -31.5002   25.0003  H     
64   H        -2.9897  -32.8532   26.2540  H     
65   H        -2.7842  -31.8819   27.7171  H     
66   H        -2.6030  -33.6388   27.7866  H     
67   H        -0.2472  -33.4175   28.7903  H     
68   H        -0.5153  -31.6724   28.7999  H     
69   H         0.9518  -32.3473   28.1213  H     
@<TRIPOS>BOND
     1    1    2 2
     2    1    3 1
     3    1    9 1
     4    2    4 1
     5    2    7 1
     6    3    5 2
     7    4    6 2
     8    5    6 1
     9    6   28 1
    10    7    8 2
    11    8    9 1
    12    8   10 1
    13   10   11 2
    14   10   12 1
    15   12   15 1
    16   12   17 1
    17   13   14 1
    18   13   15 1
    19   14   16 1
    20   14   18 1
    21   16   17 1
    22   18   19 1
    23   18   27 1
    24   19   23 1
    25   19   24 2
    26   20   21 1
    27   20   22 2
    28   21   23 2
    29   22   24 1
    30   24   25 1
    31   25   26 1
    32   26   33 1
    33   26   34 1
    34   26   35 1
    35   28   29 1
    36   29   30 1
    37   29   31 2
    38   29   32 2
    39    3   36 1
    40    4   37 1
    41    5   38 1
    42    7   39 1
    43    9   40 1
    44   13   41 1
    45   13   42 1
    46   14   43 1
    47   15   44 1
    48   15   45 1
    49   16   46 1
    50   16   47 1
    51   17   48 1
    52   17   49 1
    53   20   50 1
    54   21   51 1
    55   22   52 1
    56   25   53 1
    57   27   54 1
    58   27   55 1
    59   27   56 1
    60   28   57 1
    61   30   58 1
    62   30   59 1
    63   30   60 1
    64   33   61 1
    65   33   62 1
    66   33   63 1
    67   34   64 1
    68   34   65 1
    69   34   66 1
    70   35   67 1
    71   35   68 1
    72   35   69 1
@<TRIPOS>PROPERTY_DATA
  Total_Score	| 12.6024
  Crash		| -2.7960
  Polar		| 2.2618
  FragIndex	| 1
  FragRMSD	| 0.211

