@<TRIPOS>MOLECULE
BindingDB_50359686
 21 22 0 0 0
SMALL
NO_CHARGES


@<TRIPOS>ATOM
1    C        44.0654   -1.0397   -0.2841  C     
2    C        44.6003   -1.8297   -1.3163  C     
3    C        43.8198   -2.8464   -1.8930  C     
4    C        42.5099   -3.0786   -1.4328  C     
5    C        41.9703   -2.3054   -0.3814  C     
6    C        42.7670   -1.2898    0.1943  C     
7    C        40.6564   -2.4972    0.0138  C     
8    C        40.2467   -2.8867    1.2377  C     
9    S        41.3202   -3.3862    2.4818  S     
10   C        39.9555   -3.9218    3.3377  C     
11   N        38.8219   -3.6463    2.7517  N     
12   C        38.9593   -3.0713    1.5907  C     
13   O        40.0229   -4.4332    4.4417  O     
14   O        37.9798   -2.7271    0.9424  O     
15   H        44.6189   -0.2724    0.1092  H     
16   H        45.5460   -1.6494   -1.6644  H     
17   H        44.1965   -3.4021   -2.6668  H     
18   H        41.9583   -3.8207   -1.8719  H     
19   H        42.3998   -0.6972    0.9422  H     
20   H        39.9711   -2.3794   -0.7022  H     
21   H        37.9582   -3.8311    3.1550  H     
@<TRIPOS>BOND
     1    1    2 2
     2    1    6 1
     3    2    3 1
     4    3    4 2
     5    4    5 1
     6    5    6 2
     7    5    7 1
     8    7    8 2
     9    8    9 1
    10    8   12 1
    11    9   10 1
    12   10   11 1
    13   10   13 2
    14   11   12 1
    15   12   14 2
    16    1   15 1
    17    2   16 1
    18    3   17 1
    19    4   18 1
    20    6   19 1
    21    7   20 1
    22   11   21 1
@<TRIPOS>PROPERTY_DATA
  Total_Score	| 3.0913
  Crash		| -0.4830
  Polar		| 1.3784
  FragIndex	| 1
  FragRMSD	| 0.387

