@<TRIPOS>MOLECULE
BindingDB_26624
 24 25 0 0 0
SMALL
NO_CHARGES


@<TRIPOS>ATOM
1    C        44.4097   -1.8454    0.0240  C     
2    C        44.6991   -2.2816   -1.2888  C     
3    C        43.6799   -2.8140   -2.1031  C     
4    C        42.3672   -2.9324   -1.6100  C     
5    C        43.0780   -1.9333    0.4939  C     
6    C        42.0448   -2.5145   -0.2914  C     
7    C        40.7162   -2.6035    0.1451  C     
8    C        40.2675   -2.9859    1.3590  C     
9    S        41.2626   -3.6408    2.5977  S     
10   N        38.7673   -3.4462    2.9450  N     
11   C        39.8635   -3.8120    3.5530  C     
12   O        39.8840   -4.2144    4.7051  O     
13   C        38.9658   -2.9866    1.7337  C     
14   O        38.0197   -2.5781    1.0630  O     
15   C        45.4867   -1.2476    0.8612  C     
16   H        45.6514   -2.1957   -1.6618  H     
17   H        43.9023   -3.1105   -3.0556  H     
18   H        41.6410   -3.3385   -2.2146  H     
19   H        42.8418   -1.5310    1.4151  H     
20   H        40.0276   -2.3949   -0.5444  H     
21   H        37.8865   -3.5022    3.3520  H     
22   H        46.3272   -1.9430    0.9445  H     
23   H        45.1490   -1.0157    1.8687  H     
24   H        45.8232   -0.3139    0.4072  H     
@<TRIPOS>BOND
     1    1    2 1
     2    1    5 2
     3    1   15 1
     4    2    3 2
     5    3    4 1
     6    4    6 2
     7    5    6 1
     8    6    7 1
     9    7    8 2
    10    8    9 1
    11    8   13 1
    12    9   11 1
    13   10   11 1
    14   10   13 1
    15   11   12 2
    16   13   14 2
    17    2   16 1
    18    3   17 1
    19    4   18 1
    20    5   19 1
    21    7   20 1
    22   10   21 1
    23   15   22 1
    24   15   23 1
    25   15   24 1
@<TRIPOS>PROPERTY_DATA
  Total_Score	| 3.4973
  Crash		| -0.6804
  Polar		| 1.2749
  FragIndex	| 1
  FragRMSD	| 0.170

