@<TRIPOS>MOLECULE
BindingDB_26630
 27 28 0 0 0
SMALL
NO_CHARGES


@<TRIPOS>ATOM
1    C        44.3685   -1.1719    0.1145  C     
2    C        44.9836   -1.9174   -0.9169  C     
3    C        44.1851   -2.8333   -1.6409  C     
4    C        42.8247   -3.0133   -1.3249  C     
5    C        42.2184   -2.2916   -0.2710  C     
6    C        40.8869   -2.5110    0.0472  C     
7    C        40.4110   -2.8748    1.2553  C     
8    S        41.4164   -3.3645    2.5621  S     
9    N        38.9073   -3.6575    2.7003  N     
10   C        40.0139   -3.9206    3.3430  C     
11   O        40.0409   -4.4592    4.4403  O     
12   C        39.0995   -3.0743    1.5485  C     
13   O        38.1399   -2.7181    0.8726  O     
14   C        43.0075   -1.3528    0.4318  C     
15   C        46.4419   -1.7729   -1.1844  C     
16   C        46.8209   -0.4031   -1.7945  C     
17   H        44.9189   -0.4997    0.6544  H     
18   H        44.5899   -3.3769   -2.4088  H     
19   H        42.2775   -3.6926   -1.8655  H     
20   H        40.2413   -2.4699   -0.7113  H     
21   H        38.0332   -3.8639    3.0581  H     
22   H        42.5942   -0.7850    1.1759  H     
23   H        46.9869   -1.9053   -0.2479  H     
24   H        46.7907   -2.5538   -1.8666  H     
25   H        46.2728   -0.2426   -2.7275  H     
26   H        47.8880   -0.3773   -2.0152  H     
27   H        46.5899    0.3983   -1.0942  H     
@<TRIPOS>BOND
     1    1    2 2
     2    1   14 1
     3    2    3 1
     4    2   15 1
     5    3    4 2
     6    4    5 1
     7    5    6 1
     8    5   14 2
     9    6    7 2
    10    7    8 1
    11    7   12 1
    12    8   10 1
    13    9   10 1
    14    9   12 1
    15   10   11 2
    16   12   13 2
    17   15   16 1
    18    1   17 1
    19    3   18 1
    20    4   19 1
    21    6   20 1
    22    9   21 1
    23   14   22 1
    24   15   23 1
    25   15   24 1
    26   16   25 1
    27   16   26 1
    28   16   27 1
@<TRIPOS>PROPERTY_DATA
  Total_Score	| 4.2710
  Crash		| -0.8228
  Polar		| 1.1568
  FragIndex	| 1
  FragRMSD	| 0.822

