@<TRIPOS>MOLECULE
BindingDB_26626
 24 25 0 0 0
SMALL
NO_CHARGES


@<TRIPOS>ATOM
1    C        44.4199   -1.9331   -0.1263  C     
2    C        44.6325   -2.4561   -1.4221  C     
3    C        43.5690   -2.9732   -2.1786  C     
4    C        42.2714   -2.9877   -1.6435  C     
5    C        43.0983   -1.9510    0.3925  C     
6    C        42.0158   -2.5047   -0.3381  C     
7    C        40.7032   -2.5382    0.1395  C     
8    C        40.2805   -2.9156    1.3654  C     
9    S        41.2935   -3.5668    2.5899  S     
10   N        38.7863   -3.5100    2.9105  N     
11   C        39.8923   -3.8785    3.4988  C     
12   O        39.9216   -4.3712    4.6159  O     
13   C        38.9777   -2.9762    1.7324  C     
14   O        38.0182   -2.5845    1.0781  O     
15   C        45.5698   -1.3605    0.6319  C     
16   F        45.2819   -0.9744    1.9187  F     
17   F        46.5918   -2.2743    0.7200  F     
18   F        46.0365   -0.2450   -0.0198  F     
19   H        45.5705   -2.4606   -1.8276  H     
20   H        43.7407   -3.3414   -3.1171  H     
21   H        41.5162   -3.3775   -2.2146  H     
22   H        42.9165   -1.5248    1.3045  H     
23   H        39.9946   -2.3444   -0.5367  H     
24   H        37.9090   -3.6152    3.3126  H     
@<TRIPOS>BOND
     1    1    2 1
     2    1    5 2
     3    1   15 1
     4    2    3 2
     5    3    4 1
     6    4    6 2
     7    5    6 1
     8    6    7 1
     9    7    8 2
    10    8    9 1
    11    8   13 1
    12    9   11 1
    13   10   11 1
    14   10   13 1
    15   11   12 2
    16   13   14 2
    17   15   16 1
    18   15   17 1
    19   15   18 1
    20    2   19 1
    21    3   20 1
    22    4   21 1
    23    5   22 1
    24    7   23 1
    25   10   24 1
@<TRIPOS>PROPERTY_DATA
  Total_Score	| 3.9055
  Crash		| -0.6688
  Polar		| 1.2971
  FragIndex	| 1
  FragRMSD	| 0.101

