@<TRIPOS>MOLECULE
BindingDB_26640
 21 22 0 0 0
SMALL
NO_CHARGES


@<TRIPOS>ATOM
1    C        44.5575   -2.0123   -1.3700  C     
2    C        44.1005   -1.3020   -0.2452  C     
3    C        42.7824   -1.4829    0.2186  C     
4    C        41.9011   -2.3793   -0.4406  C     
5    C        40.5874   -2.5363   -0.0135  C     
6    C        40.2063   -2.9084    1.2284  C     
7    S        41.2946   -3.4664    2.4366  S     
8    N        38.7963   -3.5482    2.8264  N     
9    C        39.9367   -3.8623    3.3775  C     
10   O        40.0186   -4.3575    4.4884  O     
11   C        38.9245   -3.0143    1.6393  C     
12   O        37.9356   -2.6501    1.0184  O     
13   C        42.3657   -3.0642   -1.5879  C     
14   C        43.6861   -2.8868   -2.0420  C     
15   F        45.7859   -1.8563   -1.7864  F     
16   H        44.7303   -0.6575    0.2442  H     
17   H        42.4704   -0.9329    1.0229  H     
18   H        39.8900   -2.3801   -0.7019  H     
19   H        37.9410   -3.6885    3.2572  H     
20   H        41.7468   -3.7143   -2.0789  H     
21   H        44.0172   -3.4164   -2.8503  H     
@<TRIPOS>BOND
     1    1    2 1
     2    1   14 2
     3    1   15 1
     4    2    3 2
     5    3    4 1
     6    4    5 1
     7    4   13 2
     8    5    6 2
     9    6    7 1
    10    6   11 1
    11    7    9 1
    12    8    9 1
    13    8   11 1
    14    9   10 2
    15   11   12 2
    16   13   14 1
    17    2   16 1
    18    3   17 1
    19    5   18 1
    20    8   19 1
    21   13   20 1
    22   14   21 1
@<TRIPOS>PROPERTY_DATA
  Total_Score	| 3.0707
  Crash		| -0.4292
  Polar		| 1.3662
  FragIndex	| 1
  FragRMSD	| 0.275

