@<TRIPOS>MOLECULE
BindingDB_26643
 21 22 0 0 0
SMALL
NO_CHARGES


@<TRIPOS>ATOM
1    C        44.5821   -1.9551   -1.2617  C     
2    C        43.7866   -2.9296   -1.8922  C     
3    C        42.4573   -3.1338   -1.4736  C     
4    C        41.8988   -2.3647   -0.4222  C     
5    C        40.5973   -2.5740    0.0259  C     
6    C        40.2192   -2.9482    1.2681  C     
7    S        41.3011   -3.4814    2.4902  S     
8    N        38.8047   -3.5664    2.8720  N     
9    C        39.9445   -3.8493    3.4459  C     
10   O        40.0304   -4.3221    4.5684  O     
11   C        38.9340   -3.0725    1.6671  C     
12   O        37.9464   -2.7410    1.0255  O     
13   C        42.7200   -1.4072    0.2164  C     
14   C        44.0484   -1.2004   -0.2000  C     
15   Cl       46.1784   -1.7064   -1.7663  Cl    
16   H        44.1704   -3.5006   -2.6498  H     
17   H        41.9150   -3.8739   -1.9248  H     
18   H        39.8834   -2.4711   -0.6577  H     
19   H        37.9433   -3.7037    3.2994  H     
20   H        42.3565   -0.8460    0.9930  H     
21   H        44.6231   -0.4978    0.2742  H     
@<TRIPOS>BOND
     1    1    2 1
     2    1   14 2
     3    1   15 1
     4    2    3 2
     5    3    4 1
     6    4    5 1
     7    4   13 2
     8    5    6 2
     9    6    7 1
    10    6   11 1
    11    7    9 1
    12    8    9 1
    13    8   11 1
    14    9   10 2
    15   11   12 2
    16   13   14 1
    17    2   16 1
    18    3   17 1
    19    5   18 1
    20    8   19 1
    21   13   20 1
    22   14   21 1
@<TRIPOS>PROPERTY_DATA
  Total_Score	| 3.3813
  Crash		| -0.5654
  Polar		| 1.3771
  FragIndex	| 1
  FragRMSD	| 0.339

