@<TRIPOS>MOLECULE
BindingDB_26625
 24 25 0 0 0
SMALL
NO_CHARGES


@<TRIPOS>ATOM
1    C        43.7286   -2.8711   -1.9928  C     
2    C        44.6406   -2.0303   -1.3098  C     
3    C        44.1591   -1.3194   -0.1794  C     
4    C        42.8352   -1.4764    0.2686  C     
5    C        42.3997   -3.0221   -1.5485  C     
6    C        41.9480   -2.3583   -0.3860  C     
7    C        40.6356   -2.5334    0.0417  C     
8    C        40.2343   -2.9076    1.2780  C     
9    S        41.2899   -3.4686    2.5096  S     
10   N        38.7838   -3.5672    2.8352  N     
11   C        39.9081   -3.8905    3.4116  C     
12   O        39.9668   -4.3845    4.5274  O     
13   C        38.9387   -3.0183    1.6591  C     
14   O        37.9644   -2.6287    1.0279  O     
15   C        46.0478   -1.9130   -1.7885  C     
16   F        46.8224   -1.0385   -1.0631  F     
17   F        46.6756   -3.1355   -1.7410  F     
18   F        46.0644   -1.4688   -3.0870  F     
19   H        44.0295   -3.3783   -2.8275  H     
20   H        44.7706   -0.6705    0.3191  H     
21   H        42.5226   -0.9180    1.0640  H     
22   H        41.7737   -3.6476   -2.0715  H     
23   H        39.9294   -2.4305   -0.6559  H     
24   H        37.9183   -3.7054    3.2472  H     
@<TRIPOS>BOND
     1    1    2 1
     2    1    5 2
     3    2    3 2
     4    2   15 1
     5    3    4 1
     6    4    6 2
     7    5    6 1
     8    6    7 1
     9    7    8 2
    10    8    9 1
    11    8   13 1
    12    9   11 1
    13   10   11 1
    14   10   13 1
    15   11   12 2
    16   13   14 2
    17   15   16 1
    18   15   17 1
    19   15   18 1
    20    1   19 1
    21    3   20 1
    22    4   21 1
    23    5   22 1
    24    7   23 1
    25   10   24 1
@<TRIPOS>PROPERTY_DATA
  Total_Score	| 4.2989
  Crash		| -0.4158
  Polar		| 1.3499
  FragIndex	| 1
  FragRMSD	| 0.254

