@<TRIPOS>MOLECULE
BindingDB_26631
 30 31 0 0 0
SMALL
NO_CHARGES


@<TRIPOS>ATOM
1    C        43.4699   -2.8094   -2.1773  C     
2    C        44.4527   -1.9470   -1.6254  C     
3    C        44.1181   -1.2654   -0.4200  C     
4    C        42.8776   -1.4492    0.1924  C     
5    C        41.8571   -2.2443   -0.4004  C     
6    C        40.5740   -2.3605    0.1363  C     
7    C        40.2254   -2.8797    1.3436  C     
8    S        41.3074   -3.4138    2.5688  S     
9    N        38.7932   -3.6271    2.8764  N     
10   C        39.9425   -4.0032    3.3992  C     
11   O        40.0321   -4.6701    4.4259  O     
12   C        38.9382   -2.9752    1.7481  C     
13   O        37.9585   -2.4975    1.1909  O     
14   C        42.2052   -2.9517   -1.5831  C     
15   C        45.7706   -1.7482   -2.3074  C     
16   C        46.8260   -0.8854   -1.5497  C     
17   C        46.4053   -3.1081   -2.6876  C     
18   H        43.6661   -3.2800   -3.0748  H     
19   H        44.7581   -0.5966    0.0240  H     
20   H        42.7317   -1.0431    1.1261  H     
21   H        39.8382   -1.9747   -0.4379  H     
22   H        37.9326   -3.8283    3.2790  H     
23   H        41.5215   -3.5455   -2.0577  H     
24   H        45.5732   -1.2157   -3.2368  H     
25   H        46.3855    0.0552   -1.1938  H     
26   H        47.6586   -0.6132   -2.2194  H     
27   H        47.2193   -1.4303   -0.6800  H     
28   H        46.6130   -3.7046   -1.7816  H     
29   H        47.3444   -2.9565   -3.2536  H     
30   H        45.7406   -3.6894   -3.3450  H     
@<TRIPOS>BOND
     1    1    2 2
     2    1   14 1
     3    2    3 1
     4    2   15 1
     5    3    4 2
     6    4    5 1
     7    5    6 1
     8    5   14 2
     9    6    7 2
    10    7    8 1
    11    7   12 1
    12    8   10 1
    13    9   10 1
    14    9   12 1
    15   10   11 2
    16   12   13 2
    17   15   16 1
    18   15   17 1
    19    1   18 1
    20    3   19 1
    21    4   20 1
    22    6   21 1
    23    9   22 1
    24   14   23 1
    25   15   24 1
    26   16   25 1
    27   16   26 1
    28   16   27 1
    29   17   28 1
    30   17   29 1
    31   17   30 1
@<TRIPOS>PROPERTY_DATA
  Total_Score	| 4.3306
  Crash		| -1.4696
  Polar		| 1.4235
  FragIndex	| 1
  FragRMSD	| 0.772

