@<TRIPOS>MOLECULE
BindingDB_26646
 21 22 0 0 0
SMALL
NO_CHARGES


@<TRIPOS>ATOM
1    C        44.4625   -2.4376   -1.6262  C     
2    C        43.4110   -3.0660   -2.3166  C     
3    C        42.1235   -3.1003   -1.7499  C     
4    C        41.8657   -2.5239   -0.4833  C     
5    C        40.5713   -2.5857    0.0312  C     
6    C        40.2046   -2.9091    1.2902  C     
7    S        41.2853   -3.4599    2.5068  S     
8    N        38.7868   -3.5325    2.8887  N     
9    C        39.9267   -3.8348    3.4535  C     
10   O        40.0070   -4.3051    4.5762  O     
11   C        38.9184   -3.0092    1.6980  C     
12   O        37.9284   -2.6654    1.0627  O     
13   C        42.9288   -1.8589    0.1774  C     
14   C        44.2197   -1.8281   -0.3847  C     
15   Br       45.6037   -0.9676    0.5067  Br    
16   H        45.3996   -2.4233   -2.0332  H     
17   H        43.5824   -3.4991   -3.2266  H     
18   H        41.3784   -3.5773   -2.2665  H     
19   H        39.8401   -2.4631   -0.6340  H     
20   H        37.9250   -3.6728    3.3181  H     
21   H        42.7651   -1.3716    1.0644  H     
@<TRIPOS>BOND
     1    1    2 1
     2    1   14 2
     3    2    3 2
     4    3    4 1
     5    4    5 1
     6    4   13 2
     7    5    6 2
     8    6    7 1
     9    6   11 1
    10    7    9 1
    11    8    9 1
    12    8   11 1
    13    9   10 2
    14   11   12 2
    15   13   14 1
    16   14   15 1
    17    1   16 1
    18    2   17 1
    19    3   18 1
    20    5   19 1
    21    8   20 1
    22   13   21 1
@<TRIPOS>PROPERTY_DATA
  Total_Score	| 2.9985
  Crash		| -0.7536
  Polar		| 1.3666
  FragIndex	| 1
  FragRMSD	| 0.208

