@<TRIPOS>MOLECULE
BindingDB_26642
 21 22 0 0 0
SMALL
NO_CHARGES


@<TRIPOS>ATOM
1    C        44.6258   -2.0785   -1.3626  C     
2    C        43.6997   -2.9151   -2.0086  C     
3    C        42.3911   -3.0394   -1.5049  C     
4    C        41.9900   -2.3384   -0.3423  C     
5    C        40.6774   -2.4628    0.1100  C     
6    C        40.2643   -2.8679    1.3308  C     
7    S        41.3114   -3.4859    2.5465  S     
8    N        38.8074   -3.5298    2.8752  N     
9    C        39.9271   -3.8848    3.4441  C     
10   O        39.9727   -4.4033    4.5475  O     
11   C        38.9692   -2.9791    1.7026  C     
12   O        37.9932   -2.6074    1.0637  O     
13   C        42.9303   -1.4788    0.2805  C     
14   C        44.2411   -1.3531   -0.2206  C     
15   F        45.0957   -0.5600    0.3664  F     
16   H        45.5802   -2.0032   -1.7228  H     
17   H        43.9793   -3.4380   -2.8415  H     
18   H        41.7400   -3.6664   -1.9885  H     
19   H        39.9744   -2.2805   -0.5717  H     
20   H        37.9399   -3.6531    3.2877  H     
21   H        42.6577   -0.9163    1.0906  H     
@<TRIPOS>BOND
     1    1    2 1
     2    1   14 2
     3    2    3 2
     4    3    4 1
     5    4    5 1
     6    4   13 2
     7    5    6 2
     8    6    7 1
     9    6   11 1
    10    7    9 1
    11    8    9 1
    12    8   11 1
    13    9   10 2
    14   11   12 2
    15   13   14 1
    16   14   15 1
    17    1   16 1
    18    2   17 1
    19    3   18 1
    20    5   19 1
    21    8   20 1
    22   13   21 1
@<TRIPOS>PROPERTY_DATA
  Total_Score	| 3.0502
  Crash		| -0.4230
  Polar		| 1.3338
  FragIndex	| 1
  FragRMSD	| 0.222

