@<TRIPOS>MOLECULE
BindingDB_26628
 32 33 0 0 0
SMALL
NO_CHARGES


@<TRIPOS>ATOM
1    C        44.4532   -1.8083   -0.4110  C     
2    C        44.5189   -2.5344   -1.6244  C     
3    C        43.3997   -3.2019   -2.1384  C     
4    C        42.1847   -3.1594   -1.4446  C     
5    C        42.0912   -2.5106   -0.1930  C     
6    C        40.8116   -2.3568    0.3319  C     
7    C        40.3145   -2.8914    1.4659  C     
8    S        41.2550   -3.6809    2.6593  S     
9    N        38.7568   -3.4235    2.9648  N     
10   C        39.8287   -3.8610    3.5658  C     
11   O        39.8007   -4.3939    4.6617  O     
12   C        39.0010   -2.8932    1.7947  C     
13   O        38.0740   -2.5519    1.0712  O     
14   C        45.6626   -1.0251    0.0040  C     
15   F        45.3809    0.0719    0.7878  F     
16   F        46.5455   -1.8510    0.6546  F     
17   F        46.3438   -0.4885   -1.0593  F     
18   C        43.2496   -1.8878    0.3588  C     
19   O        43.1558   -1.3689    1.6290  O     
20   C        44.1101   -1.8455    2.6089  C     
21   O        44.5135   -3.2257    2.4526  O     
22   C        45.8901   -3.5360    2.7445  C     
23   H        45.3832   -2.5588   -2.1725  H     
24   H        43.4618   -3.6878   -3.0356  H     
25   H        41.3647   -3.6027   -1.8701  H     
26   H        40.1616   -1.9391   -0.2951  H     
27   H        37.8653   -3.5097    3.3375  H     
28   H        44.9646   -1.1689    2.6251  H     
29   H        43.6278   -1.7450    3.5795  H     
30   H        45.9809   -4.6016    2.9457  H     
31   H        46.2752   -2.9937    3.6111  H     
32   H        46.5109   -3.3163    1.8818  H     
@<TRIPOS>BOND
     1    1    2 2
     2    1   14 1
     3    1   18 1
     4    2    3 1
     5    3    4 2
     6    4    5 1
     7    5    6 1
     8    5   18 2
     9    6    7 2
    10    7    8 1
    11    7   12 1
    12    8   10 1
    13    9   10 1
    14    9   12 1
    15   10   11 2
    16   12   13 2
    17   14   15 1
    18   14   16 1
    19   14   17 1
    20   18   19 1
    21   19   20 1
    22   20   21 1
    23   21   22 1
    24    2   23 1
    25    3   24 1
    26    4   25 1
    27    6   26 1
    28    9   27 1
    29   20   28 1
    30   20   29 1
    31   22   30 1
    32   22   31 1
    33   22   32 1
@<TRIPOS>PROPERTY_DATA
  Total_Score	| 3.5127
  Crash		| -3.6714
  Polar		| 1.2116
  FragIndex	| 1
  FragRMSD	| 0.516

