@<TRIPOS>MOLECULE
BindingDB_26644
 21 22 0 0 0
SMALL
NO_CHARGES


@<TRIPOS>ATOM
1    C        44.5219   -2.2111   -1.6768  C     
2    C        43.5090   -3.0382   -2.1808  C     
3    C        42.2703   -3.1300   -1.5258  C     
4    C        41.9888   -2.3726   -0.3566  C     
5    C        40.7130   -2.5360    0.2092  C     
6    C        40.2817   -2.9915    1.4088  C     
7    S        41.2746   -3.5202    2.7181  S     
8    N        38.7624   -3.5483    2.9488  N     
9    C        39.8573   -3.9152    3.5630  C     
10   O        39.8580   -4.4425    4.6744  O     
11   C        38.9780   -3.0333    1.7628  C     
12   O        38.0313   -2.6009    1.1187  O     
13   C        43.0422   -1.5571    0.1500  C     
14   C        44.2894   -1.4680   -0.5136  C     
15   Cl       45.5082   -0.4782    0.1063  Cl    
16   H        45.4263   -2.1711   -2.1529  H     
17   H        43.6795   -3.5848   -3.0356  H     
18   H        41.5698   -3.7491   -1.9437  H     
19   H        39.9686   -2.2390   -0.3784  H     
20   H        37.8787   -3.6386    3.3334  H     
21   H        42.9233   -1.0404    1.0226  H     
@<TRIPOS>BOND
     1    1    2 1
     2    1   14 2
     3    2    3 2
     4    3    4 1
     5    4    5 1
     6    4   13 2
     7    5    6 2
     8    6    7 1
     9    6   11 1
    10    7    9 1
    11    8    9 1
    12    8   11 1
    13    9   10 2
    14   11   12 2
    15   13   14 1
    16   14   15 1
    17    1   16 1
    18    2   17 1
    19    3   18 1
    20    5   19 1
    21    8   20 1
    22   13   21 1
@<TRIPOS>PROPERTY_DATA
  Total_Score	| 3.1349
  Crash		| -0.5915
  Polar		| 1.3068
  FragIndex	| 1
  FragRMSD	| 0.232

