@<TRIPOS>MOLECULE
BindingDB_26645
 21 22 0 0 0
SMALL
NO_CHARGES


@<TRIPOS>ATOM
1    C        44.1311   -1.5294   -0.2821  C     
2    C        42.8317   -1.6394    0.2477  C     
3    C        41.8575   -2.4492   -0.3878  C     
4    C        40.5578   -2.5572    0.0848  C     
5    C        40.1658   -2.9056    1.3252  C     
6    S        41.2288   -3.4554    2.5592  S     
7    N        38.7207   -3.5759    2.8793  N     
8    C        39.8498   -3.8787    3.4578  C     
9    O        39.9102   -4.3727    4.5739  O     
10   C        38.8733   -3.0339    1.6949  C     
11   O        37.8999   -2.6715    1.0543  O     
12   C        42.2139   -3.1194   -1.5867  C     
13   C        43.5114   -3.0090   -2.1146  C     
14   C        44.4727   -2.2233   -1.4612  C     
15   Br       46.1946   -2.0949   -2.1635  Br    
16   H        44.8261   -0.9394    0.1833  H     
17   H        42.5951   -1.1031    1.0856  H     
18   H        39.8460   -2.4414   -0.5999  H     
19   H        37.8567   -3.7214    3.2905  H     
20   H        41.5366   -3.7091   -2.0738  H     
21   H        43.7575   -3.5091   -2.9722  H     
@<TRIPOS>BOND
     1    1    2 2
     2    1   14 1
     3    2    3 1
     4    3    4 1
     5    3   12 2
     6    4    5 2
     7    5    6 1
     8    5   10 1
     9    6    8 1
    10    7    8 1
    11    7   10 1
    12    8    9 2
    13   10   11 2
    14   12   13 1
    15   13   14 2
    16   14   15 1
    17    1   16 1
    18    2   17 1
    19    4   18 1
    20    7   19 1
    21   12   20 1
    22   13   21 1
@<TRIPOS>PROPERTY_DATA
  Total_Score	| 3.3129
  Crash		| -0.5283
  Polar		| 1.3714
  FragIndex	| 1
  FragRMSD	| 0.218

