@<TRIPOS>MOLECULE
BindingDB_26623
 24 25 0 0 0
SMALL
NO_CHARGES


@<TRIPOS>ATOM
1    C        43.7222   -2.9457   -1.9845  C     
2    C        44.6719   -2.1793   -1.2697  C     
3    C        44.2422   -1.4698   -0.1317  C     
4    C        42.9107   -1.5633    0.3153  C     
5    C        42.3919   -3.0472   -1.5377  C     
6    C        46.0792   -2.1550   -1.7388  C     
7    C        41.9743   -2.3878   -0.3544  C     
8    C        40.6533   -2.5204    0.0645  C     
9    C        40.2430   -2.8924    1.2978  C     
10   S        41.2872   -3.4807    2.5302  S     
11   N        38.7793   -3.5522    2.8370  N     
12   C        39.8990   -3.8955    3.4166  C     
13   O        39.9441   -4.3917    4.5301  O     
14   C        38.9490   -2.9956    1.6676  C     
15   O        37.9802   -2.5998    1.0301  O     
16   H        43.9991   -3.4560   -2.8297  H     
17   H        44.9009   -0.8834    0.3862  H     
18   H        42.6347   -1.0209    1.1377  H     
19   H        41.7335   -3.6440   -2.0560  H     
20   H        46.4963   -3.1658   -1.7184  H     
21   H        46.7056   -1.5178   -1.1111  H     
22   H        46.1217   -1.7779   -2.7616  H     
23   H        39.9574   -2.4149   -0.6420  H     
24   H        37.9101   -3.6866    3.2427  H     
@<TRIPOS>BOND
     1    1    2 1
     2    1    5 2
     3    2    3 2
     4    2    6 1
     5    3    4 1
     6    4    7 2
     7    5    7 1
     8    7    8 1
     9    8    9 2
    10    9   10 1
    11    9   14 1
    12   10   12 1
    13   11   12 1
    14   11   14 1
    15   12   13 2
    16   14   15 2
    17    1   16 1
    18    3   17 1
    19    4   18 1
    20    5   19 1
    21    6   20 1
    22    6   21 1
    23    6   22 1
    24    8   23 1
    25   11   24 1
@<TRIPOS>PROPERTY_DATA
  Total_Score	| 4.0062
  Crash		| -0.4610
  Polar		| 1.3302
  FragIndex	| 1
  FragRMSD	| 0.206

