@<TRIPOS>MOLECULE
BindingDB_26629
 35 36 0 0 0
SMALL
NO_CHARGES


@<TRIPOS>ATOM
1    C        44.4717   -2.0104   -0.7062  C     
2    C        44.5178   -2.7152   -1.9350  C     
3    C        43.3860   -3.3527   -2.4551  C     
4    C        42.1661   -3.2848   -1.7744  C     
5    C        42.0766   -2.6201   -0.5278  C     
6    C        40.7932   -2.4264   -0.0282  C     
7    C        40.2359   -3.0269    1.0506  C     
8    S        41.1417   -3.8997    2.2015  S     
9    N        38.7096   -3.4178    2.6298  N     
10   C        39.7659   -3.9425    3.1920  C     
11   O        39.7655   -4.4488    4.3082  O     
12   C        38.9443   -2.9151    1.4432  C     
13   O        38.0302   -2.4776    0.7661  O     
14   C        45.7109   -1.2810   -0.2776  C     
15   F        45.5905   -0.3653    0.7505  F     
16   F        46.6750   -2.1963    0.0911  F     
17   F        46.2067   -0.5069   -1.3057  F     
18   C        43.2535   -2.0383    0.0365  C     
19   O        43.1740   -1.4300    1.2666  O     
20   C        43.7704   -2.1147    2.4034  C     
21   C        43.0262   -1.8792    3.7228  C     
22   O        42.1449   -0.7282    3.7196  O     
23   C        41.1141   -0.5758    2.7302  C     
24   H        45.3758   -2.7439   -2.4841  H     
25   H        43.4387   -3.8321   -3.3570  H     
26   H        41.3406   -3.7054   -2.2142  H     
27   H        40.1956   -1.9019   -0.6232  H     
28   H        37.8448   -3.4033    3.0584  H     
29   H        43.8725   -3.1902    2.2491  H     
30   H        44.7744   -1.7296    2.5534  H     
31   H        42.5449   -2.7994    4.0349  H     
32   H        43.7894   -1.6732    4.4787  H     
33   H        41.4895   -0.5159    1.7098  H     
34   H        40.5822    0.3507    2.9541  H     
35   H        40.3962   -1.3810    2.8000  H     
@<TRIPOS>BOND
     1    1    2 2
     2    1   14 1
     3    1   18 1
     4    2    3 1
     5    3    4 2
     6    4    5 1
     7    5    6 1
     8    5   18 2
     9    6    7 2
    10    7    8 1
    11    7   12 1
    12    8   10 1
    13    9   10 1
    14    9   12 1
    15   10   11 2
    16   12   13 2
    17   14   15 1
    18   14   16 1
    19   14   17 1
    20   18   19 1
    21   19   20 1
    22   20   21 1
    23   21   22 1
    24   22   23 1
    25    2   24 1
    26    3   25 1
    27    4   26 1
    28    6   27 1
    29    9   28 1
    30   20   29 1
    31   20   30 1
    32   21   31 1
    33   21   32 1
    34   23   33 1
    35   23   34 1
    36   23   35 1
@<TRIPOS>PROPERTY_DATA
  Total_Score	| 1.8297
  Crash		| -5.3401
  Polar		| 0.9896
  FragIndex	| 1
  FragRMSD	| 0.636

