@<TRIPOS>MOLECULE
BindingDB_16695
 95 97 0 0 0
SMALL
NO_CHARGES


@<TRIPOS>ATOM
1    C        32.4690   47.3822    7.0438  C     
2    C        31.7187   46.4671    7.8000  C     
3    C        31.2474   45.2839    7.2016  C     
4    C        31.5366   45.0159    5.8518  C     
5    C        32.2976   45.9211    5.0681  C     
6    C        32.7567   47.1101    5.6928  C     
7    C        32.6720   45.6372    3.6420  C     
8    F        31.4680   46.7121    9.0564  F     
9    C        34.1325   45.1258    3.5604  C     
10   N        31.8192   44.6593    3.0198  N     
11   C        30.9882   44.8344    1.9985  C     
12   O        30.8977   45.9309    1.4552  O     
13   C        30.1335   43.7988    1.6018  C     
14   C        27.8809   43.0510    0.8370  C     
15   C        28.8082   44.0694    1.1761  C     
16   C        30.5527   42.4483    1.6205  C     
17   C        29.7016   41.3993    1.2189  C     
18   C        28.3719   41.7145    0.8460  C     
19   N        26.5459   43.3437    0.5131  N     
20   C        25.7471   42.4396   -0.2882  C     
21   C        25.9237   46.2011    0.0288  C     
22   S        25.7507   44.7412    1.0756  S     
23   O        24.1789   44.4899    1.1970  O     
24   O        26.1201   45.0759    2.5847  O     
25   C        30.1732   40.0897    1.1468  C     
26   O        29.9435   39.4408    0.1312  O     
27   N        30.8412   39.5572    2.1697  N     
28   C        31.4260   38.2421    2.2178  C     
29   C        32.9097   38.3124    2.6877  C     
30   C        33.7973   39.2496    1.9331  C     
31   C        34.8411   39.9373    2.5988  C     
32   C        33.6337   39.4657    0.5439  C     
33   C        34.4670   40.3638   -0.1504  C     
34   C        35.5030   41.0282    0.5248  C     
35   C        35.6912   40.8134    1.9004  C     
36   C        30.5767   37.3182    3.1321  C     
37   N        29.1427   37.3573    2.7436  N     
38   C        28.4082   36.0707    2.6201  C     
39   C        28.9662   35.2808    1.5242  C     
40   O        28.8813   35.7000    0.3732  O     
41   N        29.6422   34.1740    1.8029  N     
42   C        30.3441   33.3575    0.8614  C     
43   C        31.2013   32.2643    1.5699  C     
44   C        30.3704   31.0213    1.9956  C     
45   C        32.4105   31.8466    0.6880  C     
46   C        26.8682   36.2926    2.4597  C     
47   C        26.4207   37.6749    1.9042  C     
48   O        26.1538   38.6012    2.9551  O     
49   H        32.8187   48.2406    7.4728  H     
50   H        30.7017   44.6090    7.7422  H     
51   H        31.1930   44.1377    5.4578  H     
52   H        33.3133   47.7862    5.1645  H     
53   H        32.6279   46.5771    3.0778  H     
54   H        34.8226   45.8851    3.9410  H     
55   H        34.4010   44.9105    2.5233  H     
56   H        34.2564   44.2120    4.1507  H     
57   H        31.7775   43.7957    3.4601  H     
58   H        28.5072   45.0481    1.1452  H     
59   H        31.5238   42.2309    1.8565  H     
60   H        27.7467   40.9426    0.5907  H     
61   H        26.3206   42.0664   -1.1412  H     
62   H        24.8465   42.9003   -0.6993  H     
63   H        25.4256   41.5864    0.3162  H     
64   H        26.9763   46.4684   -0.0744  H     
65   H        25.3790   47.0363    0.4772  H     
66   H        25.5093   45.9806   -0.9551  H     
67   H        30.9417   40.1084    2.9646  H     
68   H        31.4257   37.7800    1.2267  H     
69   H        32.9166   38.5754    3.7530  H     
70   H        33.3527   37.3137    2.6114  H     
71   H        34.9900   39.8040    3.6018  H     
72   H        32.8900   38.9973    0.0220  H     
73   H        34.3237   40.5209   -1.1495  H     
74   H        36.1239   41.6563    0.0163  H     
75   H        36.4496   41.2914    2.3924  H     
76   H        30.9818   36.3044    3.0792  H     
77   H        30.6587   37.6481    4.1718  H     
78   H        28.6601   37.9327    3.4334  H     
79   H        29.0621   37.8385    1.8483  H     
80   H        28.5289   35.5265    3.5651  H     
81   H        29.7006   33.9200    2.7381  H     
82   H        29.6225   32.8878    0.1863  H     
83   H        31.0096   33.9932    0.2711  H     
84   H        31.6119   32.7134    2.4781  H     
85   H        29.5200   31.3149    2.6136  H     
86   H        30.9887   30.3344    2.5796  H     
87   H        29.9935   30.4903    1.1190  H     
88   H        32.0703   31.3662   -0.2314  H     
89   H        33.0556   31.1527    1.2308  H     
90   H        33.0039   32.7241    0.4234  H     
91   H        26.4559   35.5040    1.8275  H     
92   H        26.4064   36.1576    3.4402  H     
93   H        27.1838   38.1111    1.2565  H     
94   H        25.5049   37.5677    1.3157  H     
95   H        26.6800   38.2774    3.7137  H     
@<TRIPOS>BOND
     1    1    2 2
     2    1    6 1
     3    2    3 1
     4    2    8 1
     5    3    4 2
     6    4    5 1
     7    5    6 2
     8    5    7 1
     9    7    9 1
    10    7   10 1
    11   10   11 am
    12   11   12 2
    13   11   13 1
    14   13   15 2
    15   13   16 1
    16   14   15 1
    17   14   18 2
    18   14   19 1
    19   16   17 2
    20   17   18 1
    21   17   25 1
    22   19   20 1
    23   19   22 1
    24   21   22 1
    25   22   23 2
    26   22   24 2
    27   25   26 2
    28   25   27 am
    29   27   28 1
    30   28   29 1
    31   28   36 1
    32   29   30 1
    33   30   31 1
    34   30   32 2
    35   31   35 2
    36   32   33 1
    37   33   34 2
    38   34   35 1
    39   36   37 1
    40   37   38 1
    41   38   39 1
    42   38   46 1
    43   39   40 2
    44   39   41 am
    45   41   42 1
    46   42   43 1
    47   43   44 1
    48   43   45 1
    49   46   47 1
    50   47   48 1
    51    1   49 1
    52    3   50 1
    53    4   51 1
    54    6   52 1
    55    7   53 1
    56    9   54 1
    57    9   55 1
    58    9   56 1
    59   10   57 1
    60   15   58 1
    61   16   59 1
    62   18   60 1
    63   20   61 1
    64   20   62 1
    65   20   63 1
    66   21   64 1
    67   21   65 1
    68   21   66 1
    69   27   67 1
    70   28   68 1
    71   29   69 1
    72   29   70 1
    73   31   71 1
    74   32   72 1
    75   33   73 1
    76   34   74 1
    77   35   75 1
    78   36   76 1
    79   36   77 1
    80   37   78 1
    81   37   79 1
    82   38   80 1
    83   41   81 1
    84   42   82 1
    85   42   83 1
    86   43   84 1
    87   44   85 1
    88   44   86 1
    89   44   87 1
    90   45   88 1
    91   45   89 1
    92   45   90 1
    93   46   91 1
    94   46   92 1
    95   47   93 1
    96   47   94 1
    97   48   95 1
@<TRIPOS>PROPERTY_DATA
  Total_Score	| 21.3859
  Crash		| -3.5949
  Polar		| 9.6641
  FragIndex	| 1
  FragRMSD	| 0.265

