@<TRIPOS>MOLECULE
BindingDB_16694
 97 99 0 0 0
SMALL
NO_CHARGES


@<TRIPOS>ATOM
1    C        31.3187   45.3165    7.2854  C     
2    C        31.7915   46.5105    7.8568  C     
3    C        32.4959   47.4342    7.0645  C     
4    C        32.7402   47.1537    5.7092  C     
5    C        32.2864   45.9507    5.1083  C     
6    C        31.5595   45.0434    5.9194  C     
7    C        32.6350   45.6680    3.6705  C     
8    F        31.5905   46.7556    9.1196  F     
9    C        34.1238   45.2427    3.5622  C     
10   N        31.8242   44.6445    3.0619  N     
11   C        30.9925   44.7815    2.0207  C     
12   O        30.9188   45.8521    1.4263  O     
13   C        30.1469   43.7465    1.6682  C     
14   C        27.8910   43.0004    0.8910  C     
15   C        28.8084   44.0174    1.2646  C     
16   C        30.5550   42.3991    1.6935  C     
17   C        29.7057   41.3538    1.2875  C     
18   C        28.3764   41.6760    0.9087  C     
19   N        26.5648   43.3050    0.5048  N     
20   C        25.8035   42.3889   -0.3196  C     
21   C        25.9830   46.2091    0.0718  C     
22   S        25.7836   44.7077    1.0524  S     
23   O        24.1918   44.4669    1.1002  O     
24   O        26.0478   44.9953    2.5820  O     
25   C        30.1744   40.0567    1.1978  C     
26   O        29.9482   39.4340    0.1678  O     
27   N        30.8451   39.5174    2.2044  N     
28   C        31.4472   38.2119    2.2394  C     
29   C        32.9273   38.3056    2.7249  C     
30   C        33.7746   39.2763    1.9636  C     
31   C        33.6892   39.3733    0.5511  C     
32   C        34.6773   40.1350    2.6413  C     
33   C        35.4742   41.0519    1.9311  C     
34   C        35.3766   41.1344    0.5314  C     
35   C        34.4767   40.3032   -0.1570  C     
36   C        30.5775   37.2539    3.1067  C     
37   N        29.1364   37.3641    2.7502  N     
38   C        28.2880   36.1639    2.5710  C     
39   C        28.8069   35.2970    1.5264  C     
40   O        28.7567   35.7200    0.3595  O     
41   N        29.4491   34.1692    1.7904  N     
42   C        29.9787   33.2378    0.8364  C     
43   C        31.3621   32.6767    1.3024  C     
44   C        31.1943   31.3851    2.1459  C     
45   C        32.3119   32.4233    0.1062  C     
46   C        26.8414   36.6507    2.2471  C     
47   C        25.8764   35.6505    1.5412  C     
48   C        25.1277   34.7003    2.5069  C     
49   H        30.8069   44.6362    7.8504  H     
50   H        32.8415   48.3048    7.4770  H     
51   H        33.2677   47.8369    5.1580  H     
52   H        31.2154   44.1582    5.5470  H     
53   H        32.5145   46.6070    3.1203  H     
54   H        34.7741   46.0834    3.8124  H     
55   H        34.3508   44.9243    2.5420  H     
56   H        34.3392   44.4113    4.2446  H     
57   H        31.8309   43.7692    3.4883  H     
58   H        28.5109   44.9871    1.2309  H     
59   H        31.5250   42.1758    1.9364  H     
60   H        27.7595   40.9073    0.6365  H     
61   H        26.4097   41.9988   -1.1381  H     
62   H        24.9123   42.8498   -0.7710  H     
63   H        25.4549   41.5583    0.2962  H     
64   H        27.0345   46.5041    0.0438  H     
65   H        25.3969   47.0148    0.5149  H     
66   H        25.6313   46.0239   -0.9439  H     
67   H        30.9390   40.0621    3.0145  H     
68   H        31.4739   37.7683    1.2308  H     
69   H        32.9261   38.5732    3.7910  H     
70   H        33.3959   37.3194    2.6528  H     
71   H        33.0400   38.7772    0.0299  H     
72   H        34.7544   40.1016    3.6606  H     
73   H        36.1257   41.6582    2.4334  H     
74   H        35.9553   41.8031    0.0182  H     
75   H        34.3945   40.3734   -1.1745  H     
76   H        30.9436   36.2270    2.9988  H     
77   H        30.6772   37.5231    4.1666  H     
78   H        28.7049   37.9517    3.4626  H     
79   H        29.0790   37.8866    1.8682  H     
80   H        28.2592   35.6224    3.5289  H     
81   H        29.5526   33.9292    2.7334  H     
82   H        29.2632   32.4229    0.7137  H     
83   H        30.0761   33.7005   -0.1491  H     
84   H        31.8423   33.4355    1.9284  H     
85   H        30.5193   31.5628    2.9823  H     
86   H        32.1586   31.0604    2.5416  H     
87   H        30.7866   30.5795    1.5348  H     
88   H        31.9024   31.6647   -0.5659  H     
89   H        33.2852   32.0841    0.4715  H     
90   H        32.4675   33.3457   -0.4601  H     
91   H        26.3701   36.9874    3.1715  H     
92   H        26.9031   37.5440    1.6076  H     
93   H        25.1259   36.2174    0.9866  H     
94   H        26.4195   35.0485    0.8094  H     
95   H        25.8351   34.1764    3.1509  H     
96   H        24.5597   33.9582    1.9382  H     
97   H        24.4347   35.2763    3.1194  H     
@<TRIPOS>BOND
     1    1    2 2
     2    1    6 1
     3    2    3 1
     4    2    8 1
     5    3    4 2
     6    4    5 1
     7    5    6 2
     8    5    7 1
     9    7    9 1
    10    7   10 1
    11   10   11 am
    12   11   12 2
    13   11   13 1
    14   13   15 2
    15   13   16 1
    16   14   15 1
    17   14   18 2
    18   14   19 1
    19   16   17 2
    20   17   18 1
    21   17   25 1
    22   19   20 1
    23   19   22 1
    24   21   22 1
    25   22   23 2
    26   22   24 2
    27   25   26 2
    28   25   27 am
    29   27   28 1
    30   28   29 1
    31   28   36 1
    32   29   30 1
    33   30   31 1
    34   30   32 2
    35   31   35 2
    36   32   33 1
    37   33   34 2
    38   34   35 1
    39   36   37 1
    40   37   38 1
    41   38   39 1
    42   38   46 1
    43   39   40 2
    44   39   41 am
    45   41   42 1
    46   42   43 1
    47   43   44 1
    48   43   45 1
    49   46   47 1
    50   47   48 1
    51    1   49 1
    52    3   50 1
    53    4   51 1
    54    6   52 1
    55    7   53 1
    56    9   54 1
    57    9   55 1
    58    9   56 1
    59   10   57 1
    60   15   58 1
    61   16   59 1
    62   18   60 1
    63   20   61 1
    64   20   62 1
    65   20   63 1
    66   21   64 1
    67   21   65 1
    68   21   66 1
    69   27   67 1
    70   28   68 1
    71   29   69 1
    72   29   70 1
    73   31   71 1
    74   32   72 1
    75   33   73 1
    76   34   74 1
    77   35   75 1
    78   36   76 1
    79   36   77 1
    80   37   78 1
    81   37   79 1
    82   38   80 1
    83   41   81 1
    84   42   82 1
    85   42   83 1
    86   43   84 1
    87   44   85 1
    88   44   86 1
    89   44   87 1
    90   45   88 1
    91   45   89 1
    92   45   90 1
    93   46   91 1
    94   46   92 1
    95   47   93 1
    96   47   94 1
    97   48   95 1
    98   48   96 1
    99   48   97 1
@<TRIPOS>PROPERTY_DATA
  Total_Score	| 22.3252
  Crash		| -2.6344
  Polar		| 8.4230
  FragIndex	| 1
  FragRMSD	| 0.285

