@<TRIPOS>MOLECULE
BindingDB_16699
 92 95 0 0 0
SMALL
NO_CHARGES


@<TRIPOS>ATOM
1    C        31.2867   45.3532    7.0165  C     
2    C        31.7013   46.5846    7.5549  C     
3    C        32.5092   47.4495    6.7929  C     
4    C        32.8936   47.0812    5.4916  C     
5    C        32.4817   45.8492    4.9288  C     
6    C        31.6796   44.9880    5.7171  C     
7    C        32.9544   45.4794    3.5579  C     
8    F        31.3418   46.9224    8.7637  F     
9    C        34.4029   44.9393    3.6217  C     
10   N        32.1035   44.5106    2.9251  N     
11   C        31.0415   44.7591    2.1665  C     
12   O        30.7738   45.9231    1.8675  O     
13   C        30.1844   43.7311    1.7609  C     
14   C        27.9321   42.9975    0.9555  C     
15   C        28.8473   43.9980    1.3756  C     
16   C        30.6147   42.3882    1.7093  C     
17   C        29.7650   41.3455    1.2898  C     
18   C        28.4375   41.6665    0.9253  C     
19   N        26.6141   43.3018    0.5547  N     
20   C        25.8806   42.4350   -0.3453  C     
21   C        25.9473   46.1678    0.0472  C     
22   S        25.7873   44.6893    1.0767  S     
23   O        24.2129   44.3927    1.1453  O     
24   O        26.0968   45.0316    2.5994  O     
25   C        30.2470   40.0404    1.2142  C     
26   O        29.9839   39.3740    0.2173  O     
27   N        30.9596   39.5373    2.2181  N     
28   C        31.6532   38.2753    2.2358  C     
29   C        33.1500   38.4738    2.6363  C     
30   C        33.8844   39.5546    1.9177  C     
31   C        33.8764   39.6254    0.5032  C     
32   C        34.6282   40.5222    2.6346  C     
33   C        35.3438   41.5298    1.9596  C     
34   C        35.3144   41.5929    0.5561  C     
35   C        34.5757   40.6458   -0.1706  C     
36   C        30.9544   37.2875    3.2088  C     
37   N        29.5263   37.0600    2.8651  N     
38   C        29.0107   35.6631    2.7419  C     
39   C        28.8031   35.2478    1.3558  C     
40   O        28.6203   36.0892    0.4819  O     
41   N        28.6789   33.9560    1.0721  N     
42   C        27.7008   35.5576    3.5627  C     
43   C        28.4658   33.3761   -0.2182  C     
44   C        27.3280   33.9674   -0.9764  C     
45   C        24.9583   34.5810   -1.1229  C     
46   C        25.1655   35.0966   -2.4139  C     
47   C        26.4509   35.0641   -2.9842  C     
48   C        27.5236   34.4984   -2.2714  C     
49   C        26.0292   34.0095   -0.4113  C     
50   H        30.7053   44.7144    7.5655  H     
51   H        32.8257   48.3379    7.1834  H     
52   H        33.4842   47.7197    4.9537  H     
53   H        31.3747   44.0812    5.3612  H     
54   H        32.9860   46.3794    2.9342  H     
55   H        35.0824   45.6859    4.0426  H     
56   H        34.7566   44.7025    2.6185  H     
57   H        34.4567   44.0383    4.2380  H     
58   H        32.1856   43.6021    3.2563  H     
59   H        28.5525   44.9722    1.4148  H     
60   H        31.5877   42.1738    1.9190  H     
61   H        27.8316   40.8894    0.6531  H     
62   H        26.5535   42.0556   -1.1238  H     
63   H        25.0506   42.9302   -0.8575  H     
64   H        25.4475   41.5936    0.2079  H     
65   H        26.9923   46.4642   -0.0500  H     
66   H        25.3881   46.9825    0.5122  H     
67   H        25.5440   45.9591   -0.9454  H     
68   H        31.0555   40.0915    3.0076  H     
69   H        31.6332   37.8024    1.2489  H     
70   H        33.1909   38.6515    3.7168  H     
71   H        33.6919   37.5368    2.4585  H     
72   H        33.3486   38.9464   -0.0476  H     
73   H        34.6620   40.4921    3.6552  H     
74   H        35.8915   42.2095    2.4863  H     
75   H        35.8299   42.3255    0.0670  H     
76   H        34.5537   40.6910   -1.1911  H     
77   H        31.5319   36.3581    3.2209  H     
78   H        30.9783   37.6980    4.2241  H     
79   H        28.9821   37.5326    3.5868  H     
80   H        29.3174   37.5510    1.9897  H     
81   H        29.7112   34.9532    3.1901  H     
82   H        28.7722   33.3343    1.8149  H     
83   H        27.9228   35.7124    4.6228  H     
84   H        27.2373   34.5784    3.4568  H     
85   H        26.9881   36.3181    3.2356  H     
86   H        29.4049   33.4372   -0.7711  H     
87   H        28.2557   32.3152   -0.0703  H     
88   H        24.0244   34.6058   -0.7083  H     
89   H        24.3864   35.5052   -2.9349  H     
90   H        26.6025   35.4376   -3.9238  H     
91   H        28.4493   34.4798   -2.7061  H     
92   H        25.8635   33.6403    0.5272  H     
@<TRIPOS>BOND
     1    1    2 2
     2    1    6 1
     3    2    3 1
     4    2    8 1
     5    3    4 2
     6    4    5 1
     7    5    6 2
     8    5    7 1
     9    7    9 1
    10    7   10 1
    11   10   11 am
    12   11   12 2
    13   11   13 1
    14   13   15 2
    15   13   16 1
    16   14   15 1
    17   14   18 2
    18   14   19 1
    19   16   17 2
    20   17   18 1
    21   17   25 1
    22   19   20 1
    23   19   22 1
    24   21   22 1
    25   22   23 2
    26   22   24 2
    27   25   26 2
    28   25   27 am
    29   27   28 1
    30   28   29 1
    31   28   36 1
    32   29   30 1
    33   30   31 1
    34   30   32 2
    35   31   35 2
    36   32   33 1
    37   33   34 2
    38   34   35 1
    39   36   37 1
    40   37   38 1
    41   38   39 1
    42   38   42 1
    43   39   40 2
    44   39   41 am
    45   41   43 1
    46   43   44 1
    47   44   48 2
    48   44   49 1
    49   45   46 1
    50   45   49 2
    51   46   47 2
    52   47   48 1
    53    1   50 1
    54    3   51 1
    55    4   52 1
    56    6   53 1
    57    7   54 1
    58    9   55 1
    59    9   56 1
    60    9   57 1
    61   10   58 1
    62   15   59 1
    63   16   60 1
    64   18   61 1
    65   20   62 1
    66   20   63 1
    67   20   64 1
    68   21   65 1
    69   21   66 1
    70   21   67 1
    71   27   68 1
    72   28   69 1
    73   29   70 1
    74   29   71 1
    75   31   72 1
    76   32   73 1
    77   33   74 1
    78   34   75 1
    79   35   76 1
    80   36   77 1
    81   36   78 1
    82   37   79 1
    83   37   80 1
    84   38   81 1
    85   41   82 1
    86   42   83 1
    87   42   84 1
    88   42   85 1
    89   43   86 1
    90   43   87 1
    91   45   88 1
    92   46   89 1
    93   47   90 1
    94   48   91 1
    95   49   92 1
@<TRIPOS>PROPERTY_DATA
  Total_Score	| 18.5597
  Crash		| -2.8060
  Polar		| 6.8261
  FragIndex	| 1
  FragRMSD	| 0.335

