@<TRIPOS>MOLECULE
BindingDB_16696
 100 102 0 0 0
SMALL
NO_CHARGES


@<TRIPOS>ATOM
1    C        32.4729   47.4525    7.0895  C     
2    C        31.7613   46.5262    7.8713  C     
3    C        31.2824   45.3420    7.2873  C     
4    C        31.5214   45.0815    5.9228  C     
5    C        32.2358   46.0024    5.1158  C     
6    C        32.7086   47.1915    5.7257  C     
7    C        32.5633   45.7331    3.6776  C     
8    F        31.5610   46.7558    9.1389  F     
9    C        34.0485   45.3111    3.5420  C     
10   N        31.7312   44.7159    3.0889  N     
11   C        30.9267   44.8256    2.0292  C     
12   O        30.8845   45.8793    1.3945  O     
13   C        30.0779   43.7849    1.6545  C     
14   C        27.8304   43.0231    0.8664  C     
15   C        28.7404   44.0461    1.2400  C     
16   C        30.5089   42.4380    1.6836  C     
17   C        29.6613   41.3888    1.2758  C     
18   C        28.3335   41.6980    0.8780  C     
19   N        26.5054   43.3078    0.5014  N     
20   C        25.7303   42.4020   -0.3231  C     
21   C        25.9183   46.1539   -0.0067  C     
22   S        25.7248   44.7074    1.0497  S     
23   O        24.1408   44.4741    1.1686  O     
24   O        26.1076   45.0502    2.5470  O     
25   C        30.1313   40.0820    1.2239  C     
26   O        29.8970   39.4230    0.2117  O     
27   N        30.8076   39.5582    2.2390  N     
28   C        31.3889   38.2424    2.3043  C     
29   C        32.8708   38.3183    2.7842  C     
30   C        33.6502   39.4517    2.2029  C     
31   C        34.1644   40.4768    3.0344  C     
32   C        33.8835   39.5382    0.8085  C     
33   C        34.6043   40.6188    0.2646  C     
34   C        35.1147   41.6225    1.1058  C     
35   C        34.8953   41.5500    2.4911  C     
36   C        30.5136   37.3404    3.2228  C     
37   N        29.0929   37.3098    2.7732  N     
38   C        28.4040   35.9967    2.6729  C     
39   C        28.9489   35.2454    1.5482  C     
40   O        28.8203   35.7052    0.4217  O     
41   N        29.6472   34.1350    1.7596  N     
42   C        30.3143   33.3843    0.7423  C     
43   C        31.4444   32.4838    1.3229  C     
44   C        30.8862   31.2939    2.1546  C     
45   C        32.3967   31.9849    0.2027  C     
46   C        26.8727   36.2530    2.5232  C     
47   C        26.0257   34.9789    2.2511  C     
48   C        23.9666   36.8760    1.0597  C     
49   S        24.2769   35.3350    1.9504  S     
50   O        23.6337   34.1211    1.1450  O     
51   O        23.5341   35.3838    3.3544  O     
52   H        32.8263   48.3160    7.5099  H     
53   H        30.7684   44.6585    7.8478  H     
54   H        31.1831   44.1956    5.5374  H     
55   H        33.2416   47.8770    5.1824  H     
56   H        32.4420   46.6693    3.1245  H     
57   H        34.7065   46.1327    3.8345  H     
58   H        34.2719   45.0479    2.5067  H     
59   H        34.2686   44.4465    4.1736  H     
60   H        31.7302   43.8501    3.5355  H     
61   H        28.4369   45.0218    1.2120  H     
62   H        31.4757   42.2210    1.9471  H     
63   H        27.7203   40.9223    0.6123  H     
64   H        26.3018   42.0941   -1.2016  H     
65   H        24.7959   42.8387   -0.7010  H     
66   H        25.4698   41.5110    0.2550  H     
67   H        26.9707   46.4307   -0.0686  H     
68   H        25.3480   46.9860    0.4057  H     
69   H        25.5477   45.9269   -1.0053  H     
70   H        30.9016   40.1129    3.0341  H     
71   H        31.3923   37.7788    1.3129  H     
72   H        32.8792   38.3821    3.8748  H     
73   H        33.3772   37.3878    2.5228  H     
74   H        34.0030   40.4516    4.0452  H     
75   H        33.5197   38.8173    0.1774  H     
76   H        34.7566   40.6745   -0.7443  H     
77   H        35.6443   42.4014    0.7125  H     
78   H        35.2675   42.2773    3.1050  H     
79   H        30.9516   36.3382    3.2488  H     
80   H        30.5282   37.7298    4.2445  H     
81   H        28.5651   37.8961    3.4232  H     
82   H        29.0319   37.7485    1.8547  H     
83   H        28.5540   35.4550    3.6125  H     
84   H        29.7469   33.8295    2.6764  H     
85   H        29.5923   32.7727    0.1933  H     
86   H        30.7596   34.0924    0.0375  H     
87   H        32.0416   33.1026    1.9958  H     
88   H        30.2163   31.6526    2.9392  H     
89   H        31.7045   30.7491    2.6320  H     
90   H        30.3349   30.6035    1.5142  H     
91   H        31.8568   31.3666   -0.5167  H     
92   H        33.2162   31.3996    0.6258  H     
93   H        32.8306   32.8376   -0.3253  H     
94   H        26.5071   36.7274    3.4401  H     
95   H        26.7148   36.9603    1.7046  H     
96   H        26.4066   34.4593    1.3724  H     
97   H        26.0909   34.3060    3.1087  H     
98   H        24.5376   37.6920    1.5028  H     
99   H        22.9055   37.1217    1.1260  H     
100  H        24.2479   36.7671    0.0101  H     
@<TRIPOS>BOND
     1    1    2 2
     2    1    6 1
     3    2    3 1
     4    2    8 1
     5    3    4 2
     6    4    5 1
     7    5    6 2
     8    5    7 1
     9    7    9 1
    10    7   10 1
    11   10   11 am
    12   11   12 2
    13   11   13 1
    14   13   15 2
    15   13   16 1
    16   14   15 1
    17   14   18 2
    18   14   19 1
    19   16   17 2
    20   17   18 1
    21   17   25 1
    22   19   20 1
    23   19   22 1
    24   21   22 1
    25   22   23 2
    26   22   24 2
    27   25   26 2
    28   25   27 am
    29   27   28 1
    30   28   29 1
    31   28   36 1
    32   29   30 1
    33   30   31 1
    34   30   32 2
    35   31   35 2
    36   32   33 1
    37   33   34 2
    38   34   35 1
    39   36   37 1
    40   37   38 1
    41   38   39 1
    42   38   46 1
    43   39   40 2
    44   39   41 am
    45   41   42 1
    46   42   43 1
    47   43   44 1
    48   43   45 1
    49   46   47 1
    50   47   49 1
    51   48   49 1
    52   49   50 2
    53   49   51 2
    54    1   52 1
    55    3   53 1
    56    4   54 1
    57    6   55 1
    58    7   56 1
    59    9   57 1
    60    9   58 1
    61    9   59 1
    62   10   60 1
    63   15   61 1
    64   16   62 1
    65   18   63 1
    66   20   64 1
    67   20   65 1
    68   20   66 1
    69   21   67 1
    70   21   68 1
    71   21   69 1
    72   27   70 1
    73   28   71 1
    74   29   72 1
    75   29   73 1
    76   31   74 1
    77   32   75 1
    78   33   76 1
    79   34   77 1
    80   35   78 1
    81   36   79 1
    82   36   80 1
    83   37   81 1
    84   37   82 1
    85   38   83 1
    86   41   84 1
    87   42   85 1
    88   42   86 1
    89   43   87 1
    90   44   88 1
    91   44   89 1
    92   44   90 1
    93   45   91 1
    94   45   92 1
    95   45   93 1
    96   46   94 1
    97   46   95 1
    98   47   96 1
    99   47   97 1
   100   48   98 1
   101   48   99 1
   102   48  100 1
@<TRIPOS>PROPERTY_DATA
  Total_Score	| 23.2420
  Crash		| -2.9506
  Polar		| 8.5902
  FragIndex	| 1
  FragRMSD	| 0.220

