@<TRIPOS>MOLECULE
BindingDB_16689
 67 69 0 0 0
SMALL
NO_CHARGES


@<TRIPOS>ATOM
1    C        31.3261   45.3494    7.3041  C     
2    C        31.8165   46.5513    7.8487  C     
3    C        32.5322   47.4464    7.0322  C     
4    C        32.7493   47.1369    5.6782  C     
5    C        32.2519   45.9377    5.1032  C     
6    C        31.5389   45.0484    5.9468  C     
7    C        32.5226   45.6499    3.6530  C     
8    F        31.6173   46.8300    9.1087  F     
9    C        33.9902   45.2019    3.4521  C     
10   N        31.6710   44.6430    3.0612  N     
11   C        30.8704   44.7858    2.0038  C     
12   O        30.7881   45.8615    1.4113  O     
13   C        30.0331   43.7397    1.6120  C     
14   C        27.7704   42.9855    0.8945  C     
15   C        28.6958   44.0003    1.2478  C     
16   C        30.4805   42.3976    1.5835  C     
17   C        29.5944   41.3424    1.2749  C     
18   C        28.2598   41.6497    0.9340  C     
19   N        26.4568   43.2882    0.5274  N     
20   C        25.7158   42.4202   -0.3596  C     
21   C        25.9844   46.1431   -0.0235  C     
22   S        25.6855   44.7162    1.0368  S     
23   O        24.1144   44.5027    1.1169  O     
24   O        26.0814   45.0513    2.5417  O     
25   C        30.0663   40.0404    1.2536  C     
26   O        29.8984   39.3956    0.2250  O     
27   N        30.7611   39.5549    2.2797  N     
28   C        31.3735   38.2479    2.3752  C     
29   C        32.8297   38.3416    2.9383  C     
30   C        33.6556   39.4184    2.3158  C     
31   C        33.9490   39.3979    0.9337  C     
32   C        34.1731   40.4922    3.0816  C     
33   C        34.8381   41.5743    2.4742  C     
34   C        35.0296   41.5794    1.0832  C     
35   C        34.6183   40.4709    0.3240  C     
36   C        30.4661   37.3298    3.2536  C     
37   O        31.1133   36.1124    3.6159  O     
38   H        30.8157   44.6905    7.8969  H     
39   H        32.8970   48.3203    7.4197  H     
40   H        33.2761   47.8027    5.1054  H     
41   H        31.1761   44.1640    5.5845  H     
42   H        32.3998   46.5941    3.1111  H     
43   H        34.6827   45.9749    3.7925  H     
44   H        34.1765   45.0221    2.3929  H     
45   H        34.1929   44.2800    4.0019  H     
46   H        31.6927   43.7604    3.4755  H     
47   H        28.3811   44.9700    1.2634  H     
48   H        31.4606   42.1931    1.7545  H     
49   H        27.6204   40.8813    0.7284  H     
50   H        26.3279   42.1818   -1.2290  H     
51   H        24.7886   42.8599   -0.7343  H     
52   H        25.4574   41.5017    0.1669  H     
53   H        27.0552   46.3103   -0.1474  H     
54   H        25.5321   47.0279    0.4234  H     
55   H        25.5359   45.9579   -0.9970  H     
56   H        30.8456   40.1228    3.0616  H     
57   H        31.4486   37.7847    1.3850  H     
58   H        32.8071   38.5025    4.0198  H     
59   H        33.3011   37.3645    2.7718  H     
60   H        33.6608   38.6108    0.3550  H     
61   H        34.0439   40.4977    4.0918  H     
62   H        35.1732   42.3536    3.0427  H     
63   H        35.4721   42.3836    0.6287  H     
64   H        34.7878   40.4436   -0.6823  H     
65   H        30.1673   37.8402    4.1705  H     
66   H        29.5550   37.0499    2.7181  H     
67   H        31.6966   36.3362    4.3705  H     
@<TRIPOS>BOND
     1    1    2 2
     2    1    6 1
     3    2    3 1
     4    2    8 1
     5    3    4 2
     6    4    5 1
     7    5    6 2
     8    5    7 1
     9    7    9 1
    10    7   10 1
    11   10   11 am
    12   11   12 2
    13   11   13 1
    14   13   15 2
    15   13   16 1
    16   14   15 1
    17   14   18 2
    18   14   19 1
    19   16   17 2
    20   17   18 1
    21   17   25 1
    22   19   20 1
    23   19   22 1
    24   21   22 1
    25   22   23 2
    26   22   24 2
    27   25   26 2
    28   25   27 am
    29   27   28 1
    30   28   29 1
    31   28   36 1
    32   29   30 1
    33   30   31 1
    34   30   32 2
    35   31   35 2
    36   32   33 1
    37   33   34 2
    38   34   35 1
    39   36   37 1
    40    1   38 1
    41    3   39 1
    42    4   40 1
    43    6   41 1
    44    7   42 1
    45    9   43 1
    46    9   44 1
    47    9   45 1
    48   10   46 1
    49   15   47 1
    50   16   48 1
    51   18   49 1
    52   20   50 1
    53   20   51 1
    54   20   52 1
    55   21   53 1
    56   21   54 1
    57   21   55 1
    58   27   56 1
    59   28   57 1
    60   29   58 1
    61   29   59 1
    62   31   60 1
    63   32   61 1
    64   33   62 1
    65   34   63 1
    66   35   64 1
    67   36   65 1
    68   36   66 1
    69   37   67 1
@<TRIPOS>PROPERTY_DATA
  Total_Score	| 15.2377
  Crash		| -1.6430
  Polar		| 5.2535
  FragIndex	| 1
  FragRMSD	| 0.220

