@<TRIPOS>MOLECULE
BindingDB_16691
 88 90 0 0 0
SMALL
NO_CHARGES


@<TRIPOS>ATOM
1    C        32.4708   47.4652    6.7995  C     
2    C        31.6717   46.5992    7.5779  C     
3    C        31.2718   45.3597    7.0466  C     
4    C        31.6644   44.9912    5.7519  C     
5    C        32.4501   45.8567    4.9434  C     
6    C        32.8421   47.1005    5.4917  C     
7    C        32.8948   45.4579    3.5753  C     
8    F        31.3439   46.9358    8.7926  F     
9    C        34.2863   44.7776    3.6350  C     
10   N        31.9716   44.5457    2.9603  N     
11   C        30.9035   44.8329    2.2212  C     
12   O        30.6110   46.0189    2.0498  O     
13   C        30.0475   43.8220    1.7589  C     
14   C        27.8306   43.1081    0.8549  C     
15   C        28.7447   44.1049    1.2842  C     
16   C        30.4557   42.4663    1.7369  C     
17   C        29.6094   41.4343    1.2845  C     
18   C        28.3073   41.7705    0.8522  C     
19   N        26.5353   43.4279    0.4439  N     
20   C        25.8221   42.6191   -0.5149  C     
21   C        26.0289   46.3097    0.0685  C     
22   S        25.7346   44.8155    1.0342  S     
23   O        24.1702   44.5488    1.1092  O     
24   O        26.1182   45.0869    2.5592  O     
25   C        30.0821   40.1268    1.2184  C     
26   O        29.9105   39.4915    0.1868  O     
27   N        30.7442   39.5931    2.2455  N     
28   C        31.4121   38.3203    2.2689  C     
29   C        32.8894   38.4850    2.7388  C     
30   C        33.6988   39.4990    1.9887  C     
31   C        34.4878   40.4499    2.6807  C     
32   C        33.7267   39.5027    0.5745  C     
33   C        34.5115   40.4323   -0.1300  C     
34   C        35.3175   41.3479    0.5723  C     
35   C        35.3023   41.3591    1.9783  C     
36   C        30.6258   37.3201    3.1625  C     
37   N        29.1781   37.3235    2.8201  N     
38   C        28.5020   36.0059    2.7318  C     
39   C        29.0004   35.2433    1.5997  C     
40   O        28.7783   35.6641    0.4690  O     
41   N        29.6987   34.1355    1.8015  N     
42   C        30.2378   33.3015    0.7689  C     
43   C        31.2877   32.2750    1.2843  C     
44   C        30.6698   31.1848    2.2142  C     
45   C        32.0368   31.6036    0.0983  C     
46   H        32.7831   48.3578    7.1867  H     
47   H        30.7054   44.7217    7.6051  H     
48   H        31.3824   44.0768    5.3985  H     
49   H        33.4228   47.7465    4.9495  H     
50   H        33.0098   46.3450    2.9376  H     
51   H        35.0188   45.4478    4.0886  H     
52   H        34.6236   44.5308    2.6263  H     
53   H        34.2459   43.8557    4.2216  H     
54   H        32.0836   43.6134    3.2092  H     
55   H        28.4453   45.0754    1.2609  H     
56   H        31.4111   42.2261    1.9974  H     
57   H        27.6827   41.0221    0.5525  H     
58   H        26.4718   42.3800   -1.3614  H     
59   H        24.9409   43.1176   -0.9198  H     
60   H        25.4878   41.6922   -0.0412  H     
61   H        27.0980   46.5319    0.0295  H     
62   H        25.5025   47.1472    0.5302  H     
63   H        25.6548   46.1605   -0.9451  H     
64   H        30.7839   40.1106    3.0657  H     
65   H        31.4433   37.8809    1.2671  H     
66   H        32.8847   38.7294    3.8059  H     
67   H        33.4008   37.5235    2.6407  H     
68   H        34.4866   40.4812    3.7011  H     
69   H        33.1668   38.8326    0.0425  H     
70   H        34.5068   40.4384   -1.1501  H     
71   H        35.9098   42.0091    0.0596  H     
72   H        35.8917   42.0228    2.4861  H     
73   H        31.0693   36.3248    3.0345  H     
74   H        30.7266   37.5972    4.2153  H     
75   H        28.6987   37.8725    3.5312  H     
76   H        29.0508   37.7967    1.9212  H     
77   H        28.6214   35.4679    3.6756  H     
78   H        27.4326   36.1718    2.5861  H     
79   H        29.8512   33.8706    2.7232  H     
80   H        29.4147   32.7647    0.2923  H     
81   H        30.7206   33.9411    0.0260  H     
82   H        32.0322   32.8212    1.8789  H     
83   H        30.2695   31.6483    3.1239  H     
84   H        31.4220   30.4609    2.5146  H     
85   H        29.8525   30.6621    1.7037  H     
86   H        31.3453   30.9974   -0.4921  H     
87   H        32.8399   30.9623    0.4676  H     
88   H        32.4763   32.3666   -0.5500  H     
@<TRIPOS>BOND
     1    1    2 2
     2    1    6 1
     3    2    3 1
     4    2    8 1
     5    3    4 2
     6    4    5 1
     7    5    6 2
     8    5    7 1
     9    7    9 1
    10    7   10 1
    11   10   11 am
    12   11   12 2
    13   11   13 1
    14   13   15 2
    15   13   16 1
    16   14   15 1
    17   14   18 2
    18   14   19 1
    19   16   17 2
    20   17   18 1
    21   17   25 1
    22   19   20 1
    23   19   22 1
    24   21   22 1
    25   22   23 2
    26   22   24 2
    27   25   26 2
    28   25   27 am
    29   27   28 1
    30   28   29 1
    31   28   36 1
    32   29   30 1
    33   30   31 1
    34   30   32 2
    35   31   35 2
    36   32   33 1
    37   33   34 2
    38   34   35 1
    39   36   37 1
    40   37   38 1
    41   38   39 1
    42   39   40 2
    43   39   41 am
    44   41   42 1
    45   42   43 1
    46   43   44 1
    47   43   45 1
    48    1   46 1
    49    3   47 1
    50    4   48 1
    51    6   49 1
    52    7   50 1
    53    9   51 1
    54    9   52 1
    55    9   53 1
    56   10   54 1
    57   15   55 1
    58   16   56 1
    59   18   57 1
    60   20   58 1
    61   20   59 1
    62   20   60 1
    63   21   61 1
    64   21   62 1
    65   21   63 1
    66   27   64 1
    67   28   65 1
    68   29   66 1
    69   29   67 1
    70   31   68 1
    71   32   69 1
    72   33   70 1
    73   34   71 1
    74   35   72 1
    75   36   73 1
    76   36   74 1
    77   37   75 1
    78   37   76 1
    79   38   77 1
    80   38   78 1
    81   41   79 1
    82   42   80 1
    83   42   81 1
    84   43   82 1
    85   44   83 1
    86   44   84 1
    87   44   85 1
    88   45   86 1
    89   45   87 1
    90   45   88 1
@<TRIPOS>PROPERTY_DATA
  Total_Score	| 18.6450
  Crash		| -2.5091
  Polar		| 7.8901
  FragIndex	| 1
  FragRMSD	| 0.324

