@<TRIPOS>MOLECULE
BindingDB_16037
 71 73 0 0 0
SMALL
NO_CHARGES


@<TRIPOS>ATOM
1    C        32.5062   47.4552    6.9991  C     
2    C        31.8233   46.5299    7.8039  C     
3    C        31.3705   45.3215    7.2516  C     
4    C        31.6117   45.0314    5.8956  C     
5    C        32.7504   47.1652    5.6423  C     
6    C        32.3060   45.9486    5.0673  C     
7    C        32.6362   45.6482    3.6392  C     
8    C        34.0902   45.1080    3.5184  C     
9    N        31.7246   44.7001    3.0500  N     
10   C        30.7888   44.9334    2.1359  C     
11   O        30.6035   46.0876    1.7333  O     
12   C        29.8988   43.9375    1.7222  C     
13   C        27.6952   43.2584    0.7873  C     
14   C        28.6052   44.2441    1.2352  C     
15   C        30.2747   42.5749    1.7591  C     
16   C        29.4200   41.5611    1.2863  C     
17   C        28.1386   41.9095    0.8103  C     
18   N        26.4435   43.5942    0.2936  N     
19   C        25.8415   42.8302   -0.7748  C     
20   C        25.7872   46.4237   -0.0732  C     
21   S        25.5719   44.9164    0.8982  S     
22   O        24.0311   44.5446    0.9736  O     
23   O        25.9518   45.1928    2.4231  O     
24   F        31.6262   46.7885    9.0689  F     
25   C        29.8556   40.2495    1.2433  C     
26   O        29.7316   39.6460    0.1845  O     
27   N        30.4178   39.7178    2.3141  N     
28   C        31.0414   38.1340    4.0376  C     
29   O        30.7407   36.7713    4.3886  O     
30   C        30.0203   37.3101    1.8666  C     
31   O        28.6614   37.4497    2.2785  O     
32   C        30.9834   38.3896    2.4915  C     
33   C        32.4296   38.2974    1.8412  C     
34   C        33.2891   39.5261    1.7279  C     
35   C        33.9126   39.8490    0.4911  C     
36   C        34.7621   40.9642    0.3628  C     
37   C        34.9890   41.8085    1.4652  C     
38   C        34.3927   41.5079    2.7033  C     
39   C        33.5697   40.3726    2.8396  C     
40   H        32.8410   48.3382    7.3924  H     
41   H        30.8707   44.6407    7.8311  H     
42   H        31.2791   44.1390    5.5268  H     
43   H        33.2552   47.8493    5.0796  H     
44   H        32.6088   46.5845    3.0653  H     
45   H        34.8017   45.8814    3.8228  H     
46   H        34.3108   44.8190    2.4811  H     
47   H        34.2409   44.2322    4.1677  H     
48   H        31.7733   43.7985    3.4162  H     
49   H        28.3246   45.2234    1.2061  H     
50   H        31.2068   42.3110    2.0743  H     
51   H        27.5188   41.1643    0.4855  H     
52   H        26.5766   42.6128   -1.5605  H     
53   H        25.0021   43.3584   -1.2465  H     
54   H        25.4420   41.8883   -0.3884  H     
55   H        26.8402   46.7024   -0.0823  H     
56   H        25.2033   47.2293    0.3683  H     
57   H        25.4524   46.2539   -1.0979  H     
58   H        30.4278   40.2746    3.1059  H     
59   H        30.3145   38.7862    4.5350  H     
60   H        32.0325   38.3915    4.4280  H     
61   H        31.5308   36.4930    4.8978  H     
62   H        30.3582   36.3059    2.1273  H     
63   H        30.0227   37.3514    0.7792  H     
64   H        28.6873   37.6081    3.2449  H     
65   H        33.0117   37.5565    2.3881  H     
66   H        32.3094   37.8886    0.8377  H     
67   H        33.7787   39.2511   -0.3314  H     
68   H        35.2112   41.1714   -0.5240  H     
69   H        35.5885   42.6315    1.3833  H     
70   H        34.5579   42.0975    3.5112  H     
71   H        33.1986   40.1597    3.7634  H     
@<TRIPOS>BOND
     1    1    2 2
     2    1    5 1
     3    2    3 1
     4    2   24 1
     5    3    4 2
     6    4    6 1
     7    5    6 2
     8    6    7 1
     9    7    8 1
    10    7    9 1
    11    9   10 am
    12   10   11 2
    13   10   12 1
    14   12   14 2
    15   12   15 1
    16   13   14 1
    17   13   17 2
    18   13   18 1
    19   15   16 2
    20   16   17 1
    21   16   25 1
    22   18   19 1
    23   18   21 1
    24   20   21 1
    25   21   22 2
    26   21   23 2
    27   25   26 2
    28   25   27 am
    29   27   32 1
    30   28   29 1
    31   28   32 1
    32   30   31 1
    33   30   32 1
    34   32   33 1
    35   33   34 1
    36   34   35 1
    37   34   39 2
    38   35   36 2
    39   36   37 1
    40   37   38 2
    41   38   39 1
    42    1   40 1
    43    3   41 1
    44    4   42 1
    45    5   43 1
    46    7   44 1
    47    8   45 1
    48    8   46 1
    49    8   47 1
    50    9   48 1
    51   14   49 1
    52   15   50 1
    53   17   51 1
    54   19   52 1
    55   19   53 1
    56   19   54 1
    57   20   55 1
    58   20   56 1
    59   20   57 1
    60   27   58 1
    61   28   59 1
    62   28   60 1
    63   29   61 1
    64   30   62 1
    65   30   63 1
    66   31   64 1
    67   33   65 1
    68   33   66 1
    69   35   67 1
    70   36   68 1
    71   37   69 1
    72   38   70 1
    73   39   71 1
@<TRIPOS>PROPERTY_DATA
  Total_Score	| 13.4706
  Crash		| -3.4827
  Polar		| 6.1632
  FragIndex	| 1
  FragRMSD	| 0.371

