@<TRIPOS>MOLECULE
BindingDB_16690
 69 71 0 0 0
SMALL
NO_CHARGES


@<TRIPOS>ATOM
1    C        31.2583   45.2668    7.2257  C     
2    C        31.7332   46.4617    7.7972  C     
3    C        32.4950   47.3565    7.0260  C     
4    C        32.8122   47.0374    5.6929  C     
5    C        32.3672   45.8253    5.1057  C     
6    C        31.5728   44.9516    5.8916  C     
7    C        32.7968   45.4833    3.7135  C     
8    F        31.4767   46.7361    9.0443  F     
9    C        34.2779   45.0311    3.7144  C     
10   N        31.9371   44.4980    3.0999  N     
11   C        30.9351   44.7278    2.2495  C     
12   O        30.6951   45.8879    1.9108  O     
13   C        30.0736   43.7198    1.8124  C     
14   C        27.8395   42.9952    0.9495  C     
15   C        28.7423   43.9893    1.3997  C     
16   C        30.5133   42.3762    1.7267  C     
17   C        29.6746   41.3375    1.2627  C     
18   C        28.3470   41.6708    0.8918  C     
19   N        26.5276   43.2985    0.5431  N     
20   C        25.8028   42.4405   -0.3653  C     
21   C        26.0104   46.1674    0.0105  C     
22   S        25.7267   44.7126    1.0395  S     
23   O        24.1477   44.4894    1.1168  O     
24   O        26.0772   45.0449    2.5558  O     
25   C        30.1536   40.0340    1.1408  C     
26   O        29.9041   39.3981    0.1182  O     
27   N        30.9180   39.5062    2.0897  N     
28   C        31.5738   38.2315    2.0740  C     
29   C        32.9802   38.3327    2.7393  C     
30   C        33.7956   39.4654    2.2281  C     
31   C        34.2246   40.5043    3.0913  C     
32   C        34.1054   39.5621    0.8508  C     
33   C        34.8070   40.6745    0.3446  C     
34   C        35.2129   41.7075    1.2126  C     
35   C        34.9284   41.6153    2.5862  C     
36   C        30.6939   37.1538    2.7553  C     
37   N        30.4813   37.4010    4.1873  N     
38   H        30.7021   44.6131    7.7761  H     
39   H        32.8388   48.2294    7.4305  H     
40   H        33.3828   47.6931    5.1520  H     
41   H        31.2301   44.0677    5.5096  H     
42   H        32.7654   46.4039    3.1233  H     
43   H        34.9237   45.8163    4.1149  H     
44   H        34.5971   44.8286    2.6940  H     
45   H        34.4164   44.1249    4.3185  H     
46   H        32.0224   43.5863    3.4387  H     
47   H        28.4261   44.9575    1.4334  H     
48   H        31.4871   42.1621    1.9550  H     
49   H        27.7324   40.9172    0.5883  H     
50   H        26.4369   42.1825   -1.2140  H     
51   H        24.8990   42.8938   -0.7806  H     
52   H        25.4961   41.5282    0.1476  H     
53   H        27.0733   46.4090    0.0102  H     
54   H        25.4480   47.0145    0.4079  H     
55   H        25.6860   45.9665   -1.0125  H     
56   H        31.0776   40.0608    2.8709  H     
57   H        31.7324   37.9244    1.0367  H     
58   H        32.8496   38.4283    3.8197  H     
59   H        33.5388   37.4105    2.5640  H     
60   H        34.0190   40.4666    4.0920  H     
61   H        33.8161   38.8243    0.2000  H     
62   H        35.0120   40.7411   -0.6533  H     
63   H        35.7066   42.5218    0.8441  H     
64   H        35.2233   42.3726    3.2165  H     
65   H        29.7184   37.1232    2.2674  H     
66   H        31.1561   36.1726    2.6412  H     
67   H        31.3420   37.2154    4.7156  H     
68   H        29.7438   36.7819    4.5240  H     
69   H        30.1913   38.3720    4.3408  H     
@<TRIPOS>BOND
     1    1    2 2
     2    1    6 1
     3    2    3 1
     4    2    8 1
     5    3    4 2
     6    4    5 1
     7    5    6 2
     8    5    7 1
     9    7    9 1
    10    7   10 1
    11   10   11 am
    12   11   12 2
    13   11   13 1
    14   13   15 2
    15   13   16 1
    16   14   15 1
    17   14   18 2
    18   14   19 1
    19   16   17 2
    20   17   18 1
    21   17   25 1
    22   19   20 1
    23   19   22 1
    24   21   22 1
    25   22   23 2
    26   22   24 2
    27   25   26 2
    28   25   27 am
    29   27   28 1
    30   28   29 1
    31   28   36 1
    32   29   30 1
    33   30   31 1
    34   30   32 2
    35   31   35 2
    36   32   33 1
    37   33   34 2
    38   34   35 1
    39   36   37 1
    40    1   38 1
    41    3   39 1
    42    4   40 1
    43    6   41 1
    44    7   42 1
    45    9   43 1
    46    9   44 1
    47    9   45 1
    48   10   46 1
    49   15   47 1
    50   16   48 1
    51   18   49 1
    52   20   50 1
    53   20   51 1
    54   20   52 1
    55   21   53 1
    56   21   54 1
    57   21   55 1
    58   27   56 1
    59   28   57 1
    60   29   58 1
    61   29   59 1
    62   31   60 1
    63   32   61 1
    64   33   62 1
    65   34   63 1
    66   35   64 1
    67   36   65 1
    68   36   66 1
    69   37   67 1
    70   37   68 1
    71   37   69 1
@<TRIPOS>PROPERTY_DATA
  Total_Score	| 14.9492
  Crash		| -2.3542
  Polar		| 5.2726
  FragIndex	| 1
  FragRMSD	| 0.428

