@<TRIPOS>MOLECULE
BindingDB_16692
 91 93 0 0 0
SMALL
NO_CHARGES


@<TRIPOS>ATOM
1    C        32.4629   47.4879    7.0531  C     
2    C        31.7642   46.5640    7.8558  C     
3    C        31.3352   45.3449    7.2969  C     
4    C        31.5954   45.0552    5.9482  C     
5    C        32.2928   45.9755    5.1188  C     
6    C        32.7221   47.1968    5.7080  C     
7    C        32.6391   45.6696    3.6908  C     
8    F        31.5301   46.8332    9.1085  F     
9    C        34.0960   45.1485    3.5994  C     
10   N        31.7652   44.6897    3.1014  N     
11   C        30.9386   44.8457    2.0663  C     
12   O        30.8633   45.9317    1.5030  O     
13   C        30.0917   43.8089    1.6753  C     
14   C        27.8539   43.0432    0.8677  C     
15   C        28.7679   44.0690    1.2216  C     
16   C        30.5115   42.4582    1.7112  C     
17   C        29.6721   41.4042    1.2971  C     
18   C        28.3481   41.7140    0.8946  C     
19   N        26.5277   43.3236    0.5042  N     
20   C        25.7574   42.4056   -0.3039  C     
21   C        26.0186   46.1910    0.0631  C     
22   S        25.7327   44.7176    1.0572  S     
23   O        24.1369   44.5073    1.0677  O     
24   O        26.0395   45.0061    2.5844  O     
25   C        30.1492   40.1045    1.2203  C     
26   O        29.9593   39.4744    0.1785  O     
27   N        30.8187   39.5636    2.2349  N     
28   C        31.4316   38.2643    2.2700  C     
29   C        32.8896   38.3554    2.8088  C     
30   C        33.6838   39.4926    2.2653  C     
31   C        34.0903   40.5560    3.1048  C     
32   C        34.0324   39.5481    0.8909  C     
33   C        34.7556   40.6418    0.3765  C     
34   C        35.1621   41.6822    1.2267  C     
35   C        34.8347   41.6362    2.5956  C     
36   C        30.5678   37.2820    3.1125  C     
37   N        29.1210   37.3778    2.7676  N     
38   C        28.3358   36.1174    2.7273  C     
39   C        28.7625   35.2904    1.5976  C     
40   O        28.6497   35.7413    0.4608  O     
41   N        29.3787   34.1329    1.8212  N     
42   C        30.0134   33.3286    0.8202  C     
43   C        31.3393   32.6949    1.3384  C     
44   C        31.0890   31.3927    2.1436  C     
45   C        32.3306   32.4317    0.1692  C     
46   C        26.8254   36.4585    2.6471  C     
47   H        32.7841   48.3710    7.4588  H     
48   H        30.8363   44.6594    7.8684  H     
49   H        31.2844   44.1552    5.5831  H     
50   H        33.2413   47.8800    5.1460  H     
51   H        32.5915   46.6020    3.1187  H     
52   H        34.7958   45.9107    3.9483  H     
53   H        34.3435   44.9055    2.5658  H     
54   H        34.2236   44.2514    4.2125  H     
55   H        31.7378   43.8280    3.5415  H     
56   H        28.4697   45.0464    1.1627  H     
57   H        31.4780   42.2400    1.9722  H     
58   H        27.7407   40.9381    0.6302  H     
59   H        26.3397   42.0627   -1.1609  H     
60   H        24.8383   42.8497   -0.7073  H     
61   H        25.4613   41.5435    0.2924  H     
62   H        27.0794   46.4441    0.0760  H     
63   H        25.4437   47.0269    0.4602  H     
64   H        25.7088   45.9967   -0.9640  H     
65   H        30.8968   40.1071    3.0379  H     
66   H        31.4888   37.8427    1.2616  H     
67   H        32.8522   38.4180    3.9039  H     
68   H        33.4217   37.4271    2.5728  H     
69   H        33.8470   40.5546    4.0986  H     
70   H        33.7519   38.7982    0.2549  H     
71   H        34.9852   40.6795   -0.6209  H     
72   H        35.6992   42.4693    0.8587  H     
73   H        35.1390   42.3864    3.2162  H     
74   H        30.9520   36.2686    2.9541  H     
75   H        30.6675   37.5069    4.1785  H     
76   H        28.6916   37.9907    3.4627  H     
77   H        29.0278   37.8306    1.8554  H     
78   H        28.4920   35.5895    3.6718  H     
79   H        29.4565   33.8396    2.7407  H     
80   H        29.3313   32.5399    0.4897  H     
81   H        30.2356   33.9689   -0.0384  H     
82   H        31.8171   33.4152    2.0116  H     
83   H        30.4209   31.5864    2.9863  H     
84   H        32.0298   31.0087    2.5417  H     
85   H        30.6377   30.6254    1.5120  H     
86   H        31.9011   31.7314   -0.5486  H     
87   H        33.2644   32.0147    0.5509  H     
88   H        32.5629   33.3643   -0.3464  H     
89   H        26.5291   37.0531    3.5118  H     
90   H        26.2274   35.5435    2.6416  H     
91   H        26.6005   37.0332    1.7444  H     
@<TRIPOS>BOND
     1    1    2 2
     2    1    6 1
     3    2    3 1
     4    2    8 1
     5    3    4 2
     6    4    5 1
     7    5    6 2
     8    5    7 1
     9    7    9 1
    10    7   10 1
    11   10   11 am
    12   11   12 2
    13   11   13 1
    14   13   15 2
    15   13   16 1
    16   14   15 1
    17   14   18 2
    18   14   19 1
    19   16   17 2
    20   17   18 1
    21   17   25 1
    22   19   20 1
    23   19   22 1
    24   21   22 1
    25   22   23 2
    26   22   24 2
    27   25   26 2
    28   25   27 am
    29   27   28 1
    30   28   29 1
    31   28   36 1
    32   29   30 1
    33   30   31 1
    34   30   32 2
    35   31   35 2
    36   32   33 1
    37   33   34 2
    38   34   35 1
    39   36   37 1
    40   37   38 1
    41   38   39 1
    42   38   46 1
    43   39   40 2
    44   39   41 am
    45   41   42 1
    46   42   43 1
    47   43   44 1
    48   43   45 1
    49    1   47 1
    50    3   48 1
    51    4   49 1
    52    6   50 1
    53    7   51 1
    54    9   52 1
    55    9   53 1
    56    9   54 1
    57   10   55 1
    58   15   56 1
    59   16   57 1
    60   18   58 1
    61   20   59 1
    62   20   60 1
    63   20   61 1
    64   21   62 1
    65   21   63 1
    66   21   64 1
    67   27   65 1
    68   28   66 1
    69   29   67 1
    70   29   68 1
    71   31   69 1
    72   32   70 1
    73   33   71 1
    74   34   72 1
    75   35   73 1
    76   36   74 1
    77   36   75 1
    78   37   76 1
    79   37   77 1
    80   38   78 1
    81   41   79 1
    82   42   80 1
    83   42   81 1
    84   43   82 1
    85   44   83 1
    86   44   84 1
    87   44   85 1
    88   45   86 1
    89   45   87 1
    90   45   88 1
    91   46   89 1
    92   46   90 1
    93   46   91 1
@<TRIPOS>PROPERTY_DATA
  Total_Score	| 21.1141
  Crash		| -2.2572
  Polar		| 8.3437
  FragIndex	| 1
  FragRMSD	| 0.207

