@<TRIPOS>MOLECULE
BindingDB_16693
 94 96 0 0 0
SMALL
NO_CHARGES


@<TRIPOS>ATOM
1    C        32.4242   47.4719    7.1462  C     
2    C        31.7225   46.5268    7.9162  C     
3    C        31.2607   45.3438    7.3167  C     
4    C        31.5081   45.1020    5.9480  C     
5    C        32.2265   46.0336    5.1578  C     
6    C        32.6753   47.2241    5.7829  C     
7    C        32.5725   45.7772    3.7236  C     
8    F        31.5133   46.7426    9.1868  F     
9    C        34.0650   45.3817    3.5959  C     
10   N        31.7695   44.7471    3.1200  N     
11   C        30.9393   44.8662    2.0793  C     
12   O        30.8314   45.9436    1.4991  O     
13   C        30.1163   43.8049    1.6875  C     
14   C        27.8951   43.0063    0.8721  C     
15   C        28.7877   44.0455    1.2342  C     
16   C        30.5649   42.4625    1.7258  C     
17   C        29.7398   41.3988    1.3043  C     
18   C        28.4128   41.6887    0.8878  C     
19   N        26.5643   43.2694    0.5051  N     
20   C        25.8089   42.3494   -0.3116  C     
21   C        25.9751   46.1126    0.0157  C     
22   S        25.7514   44.6537    1.0482  S     
23   O        24.1640   44.4012    1.1153  O     
24   O        26.0932   44.9849    2.5614  O     
25   C        30.2346   40.1009    1.2526  C     
26   O        30.0104   39.4392    0.2405  O     
27   N        30.9125   39.5853    2.2660  N     
28   C        31.5181   38.2762    2.3229  C     
29   C        32.9496   38.3594    2.9339  C     
30   C        33.7471   39.5393    2.4793  C     
31   C        33.9794   40.6334    3.3447  C     
32   C        34.2517   39.6059    1.1581  C     
33   C        34.9648   40.7372    0.7210  C     
34   C        35.2029   41.8108    1.5948  C     
35   C        34.7069   41.7555    2.9077  C     
36   C        30.6097   37.2884    3.1073  C     
37   N        29.1815   37.4434    2.7324  N     
38   C        28.3262   36.2319    2.6421  C     
39   C        28.7769   35.3758    1.5478  C     
40   O        28.6525   35.7859    0.4015  O     
41   N        29.3504   34.2017    1.7982  N     
42   C        29.9395   33.3141    0.8363  C     
43   C        31.2942   32.7424    1.3617  C     
44   C        31.0763   31.4528    2.1964  C     
45   C        32.3071   32.4869    0.2132  C     
46   C        26.8514   36.7054    2.4658  C     
47   C        25.8496   35.5694    2.1554  C     
48   H        32.7618   48.3376    7.5803  H     
49   H        30.7527   44.6453    7.8634  H     
50   H        31.1687   44.2217    5.5534  H     
51   H        33.1951   47.9254    5.2521  H     
52   H        32.4443   46.7210    3.1765  H     
53   H        34.7109   46.2316    3.8289  H     
54   H        34.2879   45.0562    2.5780  H     
55   H        34.3004   44.5695    4.2829  H     
56   H        31.7986   43.8748    3.5412  H     
57   H        28.4708   45.0170    1.1953  H     
58   H        31.5343   42.2687    2.0061  H     
59   H        27.8144   40.9022    0.6228  H     
60   H        26.4085   42.0207   -1.1653  H     
61   H        24.8831   42.7817   -0.7155  H     
62   H        25.5200   41.4789    0.2840  H     
63   H        27.0318   46.3800   -0.0246  H     
64   H        25.4083   46.9503    0.4280  H     
65   H        25.6230   45.8992   -0.9956  H     
66   H        31.0065   40.1435    3.0615  H     
67   H        31.6295   37.8702    1.3088  H     
68   H        32.8615   38.3777    4.0228  H     
69   H        33.5033   37.4517    2.6830  H     
70   H        33.6071   40.6251    4.3027  H     
71   H        34.0900   38.8338    0.5053  H     
72   H        35.3082   40.7819   -0.2384  H     
73   H        35.7269   42.6251    1.2829  H     
74   H        34.8778   42.5296    3.5487  H     
75   H        30.9662   36.2727    2.9247  H     
76   H        30.6882   37.4785    4.1818  H     
77   H        28.7677   38.0630    3.4310  H     
78   H        29.1256   37.9154    1.8293  H     
79   H        28.3892   35.7012    3.5978  H     
80   H        29.4019   33.9239    2.7308  H     
81   H        29.2352   32.5010    0.6439  H     
82   H        30.1041   33.8223   -0.1203  H     
83   H        31.7511   33.4936    2.0128  H     
84   H        30.3655   31.6331    3.0047  H     
85   H        32.0177   31.1213    2.6352  H     
86   H        30.6874   30.6480    1.5721  H     
87   H        31.9138   31.7561   -0.4934  H     
88   H        33.2477   32.1139    0.6214  H     
89   H        32.5177   33.4150   -0.3224  H     
90   H        26.5254   37.1922    3.3886  H     
91   H        26.7905   37.4497    1.6674  H     
92   H        26.0353   35.1535    1.1644  H     
93   H        24.8284   35.9600    2.1812  H     
94   H        25.9383   34.7727    2.8960  H     
@<TRIPOS>BOND
     1    1    2 2
     2    1    6 1
     3    2    3 1
     4    2    8 1
     5    3    4 2
     6    4    5 1
     7    5    6 2
     8    5    7 1
     9    7    9 1
    10    7   10 1
    11   10   11 am
    12   11   12 2
    13   11   13 1
    14   13   15 2
    15   13   16 1
    16   14   15 1
    17   14   18 2
    18   14   19 1
    19   16   17 2
    20   17   18 1
    21   17   25 1
    22   19   20 1
    23   19   22 1
    24   21   22 1
    25   22   23 2
    26   22   24 2
    27   25   26 2
    28   25   27 am
    29   27   28 1
    30   28   29 1
    31   28   36 1
    32   29   30 1
    33   30   31 1
    34   30   32 2
    35   31   35 2
    36   32   33 1
    37   33   34 2
    38   34   35 1
    39   36   37 1
    40   37   38 1
    41   38   39 1
    42   38   46 1
    43   39   40 2
    44   39   41 am
    45   41   42 1
    46   42   43 1
    47   43   44 1
    48   43   45 1
    49   46   47 1
    50    1   48 1
    51    3   49 1
    52    4   50 1
    53    6   51 1
    54    7   52 1
    55    9   53 1
    56    9   54 1
    57    9   55 1
    58   10   56 1
    59   15   57 1
    60   16   58 1
    61   18   59 1
    62   20   60 1
    63   20   61 1
    64   20   62 1
    65   21   63 1
    66   21   64 1
    67   21   65 1
    68   27   66 1
    69   28   67 1
    70   29   68 1
    71   29   69 1
    72   31   70 1
    73   32   71 1
    74   33   72 1
    75   34   73 1
    76   35   74 1
    77   36   75 1
    78   36   76 1
    79   37   77 1
    80   37   78 1
    81   38   79 1
    82   41   80 1
    83   42   81 1
    84   42   82 1
    85   43   83 1
    86   44   84 1
    87   44   85 1
    88   44   86 1
    89   45   87 1
    90   45   88 1
    91   45   89 1
    92   46   90 1
    93   46   91 1
    94   47   92 1
    95   47   93 1
    96   47   94 1
@<TRIPOS>PROPERTY_DATA
  Total_Score	| 21.5135
  Crash		| -2.6705
  Polar		| 8.2648
  FragIndex	| 1
  FragRMSD	| 0.294

