@<TRIPOS>MOLECULE
BindingDB_16698
 86 89 0 0 0
SMALL
NO_CHARGES


@<TRIPOS>ATOM
1    C        32.5116   47.4064    7.0203  C     
2    C        31.7745   46.5128    7.8160  C     
3    C        31.2838   45.3191    7.2550  C     
4    C        31.5320   45.0228    5.9012  C     
5    C        32.2735   45.9112    5.0834  C     
6    C        32.7598   47.1067    5.6700  C     
7    C        32.6051   45.6138    3.6554  C     
8    F        31.5601   46.7874    9.0732  F     
9    C        34.0584   45.0943    3.5357  C     
10   N        31.7128   44.6452    3.0750  N     
11   C        30.8760   44.8180    2.0531  C     
12   O        30.8111   45.9065    1.4969  O     
13   C        30.0081   43.7958    1.6582  C     
14   C        27.7629   43.0792    0.8673  C     
15   C        28.6912   44.0810    1.2232  C     
16   C        30.4076   42.4395    1.6868  C     
17   C        29.5369   41.3894    1.3184  C     
18   C        28.2204   41.7352    0.9152  C     
19   N        26.4658   43.3996    0.4686  N     
20   C        25.7414   42.5582   -0.4490  C     
21   C        25.9411   46.2922    0.0503  C     
22   S        25.6758   44.7980    1.0267  S     
23   O        24.1049   44.5449    1.1558  O     
24   O        26.0880   45.0898    2.5336  O     
25   C        29.9696   40.0616    1.3370  C     
26   O        29.4252   39.2179    0.6149  O     
27   N        30.9260   39.6486    2.1729  N     
28   C        31.5125   38.3355    2.1920  C     
29   C        33.0081   38.3834    2.6329  C     
30   C        33.8696   39.3420    1.8783  C     
31   C        34.8652   40.1048    2.5338  C     
32   C        33.7097   39.5029    0.4807  C     
33   C        34.5031   40.4187   -0.2331  C     
34   C        35.4843   41.1717    0.4329  C     
35   C        35.6702   41.0116    1.8173  C     
36   C        30.6839   37.3580    3.0753  C     
37   N        29.2284   37.4118    2.7598  N     
38   C        28.4955   36.1142    2.7125  C     
39   C        28.9501   35.2786    1.6033  C     
40   O        28.7800   35.6798    0.4534  O     
41   N        29.5719   34.1324    1.8523  N     
42   C        26.9683   36.3735    2.6478  C     
43   C        30.0950   33.2647    0.8522  C     
44   C        31.6152   33.0540    0.8308  C     
45   C        30.6994   31.9495    1.3678  C     
46   H        32.8776   48.2739    7.4214  H     
47   H        30.7537   44.6565    7.8257  H     
48   H        31.1720   44.1391    5.5302  H     
49   H        33.3078   47.7689    5.1154  H     
50   H        32.5615   46.5498    3.0887  H     
51   H        34.7671   45.8429    3.8995  H     
52   H        34.2922   44.8860    2.4904  H     
53   H        34.1907   44.1775    4.1145  H     
54   H        31.6872   43.7816    3.5193  H     
55   H        28.3994   45.0590    1.1805  H     
56   H        31.3705   42.2170    1.9455  H     
57   H        27.5677   40.9845    0.6846  H     
58   H        26.3662   42.3233   -1.3130  H     
59   H        24.8314   43.0239   -0.8348  H     
60   H        25.4519   41.6276    0.0442  H     
61   H        27.0061   46.5220    0.0144  H     
62   H        25.4115   47.1247    0.5142  H     
63   H        25.5687   46.1544   -0.9652  H     
64   H        31.2932   40.3057    2.7912  H     
65   H        31.5009   37.9214    1.1780  H     
66   H        33.0455   38.6092    3.7012  H     
67   H        33.4363   37.3837    2.4987  H     
68   H        35.0201   40.0002    3.5393  H     
69   H        33.0109   38.9599   -0.0278  H     
70   H        34.3693   40.5303   -1.2411  H     
71   H        36.0712   41.8292   -0.0896  H     
72   H        36.3926   41.5522    2.2982  H     
73   H        31.0804   36.3475    2.9370  H     
74   H        30.7993   37.6139    4.1349  H     
75   H        28.7942   37.9941    3.4836  H     
76   H        29.0883   37.9091    1.8642  H     
77   H        28.6845   35.6023    3.6656  H     
78   H        29.6989   33.8750    2.7777  H     
79   H        26.6501   36.9874    3.4910  H     
80   H        26.4244   35.4301    2.6850  H     
81   H        26.7086   36.8951    1.7252  H     
82   H        29.5652   33.1413   -0.0984  H     
83   H        32.0496   32.8918   -0.1588  H     
84   H        32.1979   33.5704    1.5937  H     
85   H        30.7680   31.8039    2.4473  H     
86   H        30.6013   31.0772    0.7164  H     
@<TRIPOS>BOND
     1    1    2 2
     2    1    6 1
     3    2    3 1
     4    2    8 1
     5    3    4 2
     6    4    5 1
     7    5    6 2
     8    5    7 1
     9    7    9 1
    10    7   10 1
    11   10   11 am
    12   11   12 2
    13   11   13 1
    14   13   15 2
    15   13   16 1
    16   14   15 1
    17   14   18 2
    18   14   19 1
    19   16   17 2
    20   17   18 1
    21   17   25 1
    22   19   20 1
    23   19   22 1
    24   21   22 1
    25   22   23 2
    26   22   24 2
    27   25   26 2
    28   25   27 am
    29   27   28 1
    30   28   29 1
    31   28   36 1
    32   29   30 1
    33   30   31 1
    34   30   32 2
    35   31   35 2
    36   32   33 1
    37   33   34 2
    38   34   35 1
    39   36   37 1
    40   37   38 1
    41   38   39 1
    42   38   42 1
    43   39   40 2
    44   39   41 am
    45   41   43 1
    46   43   44 1
    47   43   45 1
    48   44   45 1
    49    1   46 1
    50    3   47 1
    51    4   48 1
    52    6   49 1
    53    7   50 1
    54    9   51 1
    55    9   52 1
    56    9   53 1
    57   10   54 1
    58   15   55 1
    59   16   56 1
    60   18   57 1
    61   20   58 1
    62   20   59 1
    63   20   60 1
    64   21   61 1
    65   21   62 1
    66   21   63 1
    67   27   64 1
    68   28   65 1
    69   29   66 1
    70   29   67 1
    71   31   68 1
    72   32   69 1
    73   33   70 1
    74   34   71 1
    75   35   72 1
    76   36   73 1
    77   36   74 1
    78   37   75 1
    79   37   76 1
    80   38   77 1
    81   41   78 1
    82   42   79 1
    83   42   80 1
    84   42   81 1
    85   43   82 1
    86   44   83 1
    87   44   84 1
    88   45   85 1
    89   45   86 1
@<TRIPOS>PROPERTY_DATA
  Total_Score	| 18.5776
  Crash		| -2.3950
  Polar		| 7.5368
  FragIndex	| 1
  FragRMSD	| 0.317

