@<TRIPOS>MOLECULE
BindingDB_16720
 87 89 0 0 0
SMALL
NO_CHARGES


@<TRIPOS>ATOM
1    C        31.8057   39.6282    1.4123  C     
2    C        29.3066   39.8756    2.0624  C     
3    C        29.0751   41.3100    1.7017  C     
4    C        30.0397   42.2980    2.0060  C     
5    C        29.8769   43.6578    1.6428  C     
6    C        28.6496   44.0169    1.0355  C     
7    C        27.6227   43.0780    0.7883  C     
8    C        27.8626   41.7223    1.1037  C     
9    N        26.4280   43.4759    0.2302  N     
10   C        25.8851   42.7900   -0.9174  C     
11   C        25.8891   46.3437   -0.0901  C     
12   S        25.6106   44.8258    0.8414  S     
13   O        24.0488   44.5136    0.8779  O     
14   O        25.9869   45.0662    2.3730  O     
15   C        30.9126   44.5884    1.8155  C     
16   O        30.8923   45.6305    1.1695  O     
17   N        31.9475   44.3536    2.6211  N     
18   C        33.2232   45.0242    2.6228  C     
19   C        33.3576   45.9848    3.8367  C     
20   C        34.3768   43.9810    2.6724  C     
21   C        34.4318   43.0091    1.5424  C     
22   C        34.5568   42.5182   -0.8580  C     
23   C        34.4793   43.4395    0.1971  C     
24   C        34.4807   41.6191    1.7995  C     
25   C        34.5339   40.6785    0.7467  C     
26   C        34.5808   41.1426   -0.5866  C     
27   C        32.8932   38.7675    0.7318  C     
28   N        32.4478   47.1481    3.7148  N     
29   C        32.5379   48.1757    4.7913  C     
30   C        31.5599   49.3413    4.4433  C     
31   C        32.1418   50.3621    3.4427  C     
32   C        32.3414   47.6692    6.1574  C     
33   O        32.9417   48.2123    7.0840  O     
34   N        31.5237   46.6555    6.4166  N     
35   C        31.2425   46.0698    7.6931  C     
36   C        32.3645   45.2106    8.3694  C     
37   C        31.8180   44.4885    9.6408  C     
38   C        32.9783   44.1697    7.3913  C     
39   C        34.3433   39.2298    1.0276  C     
40   C        30.3628   39.1015    1.2252  C     
41   H        32.0317   39.7036    2.4801  H     
42   H        31.8572   40.6217    0.9686  H     
43   H        29.5946   39.8229    3.1156  H     
44   H        28.3755   39.3117    1.9654  H     
45   H        30.8902   42.0136    2.4915  H     
46   H        28.4885   44.9892    0.7697  H     
47   H        27.1310   41.0310    0.9229  H     
48   H        26.6604   42.6656   -1.6786  H     
49   H        25.0561   43.3334   -1.3831  H     
50   H        25.5115   41.8052   -0.6284  H     
51   H        26.9282   46.6537    0.0145  H     
52   H        25.2409   47.1357    0.2845  H     
53   H        25.6713   46.1697   -1.1440  H     
54   H        31.8895   43.5689    3.1994  H     
55   H        33.3405   45.6289    1.7293  H     
56   H        33.0706   45.4405    4.7561  H     
57   H        34.4067   46.3125    3.9713  H     
58   H        35.3291   44.5113    2.6873  H     
59   H        34.3013   43.4511    3.6325  H     
60   H        34.5742   42.8454   -1.8229  H     
61   H        34.4385   44.4330   -0.0311  H     
62   H        34.4265   41.2857    2.7677  H     
63   H        34.5951   40.4813   -1.3625  H     
64   H        32.7803   37.7365    1.0697  H     
65   H        32.7283   38.7962   -0.3465  H     
66   H        32.6452   47.5842    2.8174  H     
67   H        31.4896   46.8016    3.6836  H     
68   H        33.5497   48.5814    4.7442  H     
69   H        30.6482   48.9286    4.0106  H     
70   H        31.2778   49.8931    5.3456  H     
71   H        33.0331   50.8341    3.8575  H     
72   H        31.4053   51.1382    3.2383  H     
73   H        32.4011   49.8775    2.5041  H     
74   H        31.0146   46.3191    5.6654  H     
75   H        30.9340   46.8700    8.3747  H     
76   H        30.3776   45.4219    7.5259  H     
77   H        33.1623   45.8852    8.6898  H     
78   H        31.5243   45.2279   10.3886  H     
79   H        32.5880   43.8493   10.0774  H     
80   H        30.9518   43.8666    9.3951  H     
81   H        32.2055   43.4871    6.9917  H     
82   H        33.7560   43.5885    7.9146  H     
83   H        33.4584   44.6854    6.5445  H     
84   H        35.0163   38.6334    0.4110  H     
85   H        34.5813   38.9983    2.0709  H     
86   H        30.0902   39.1419    0.1674  H     
87   H        30.3405   38.0493    1.5299  H     
@<TRIPOS>BOND
     1    1   27 1
     2    1   40 1
     3    2    3 1
     4    2   40 1
     5    3    4 1
     6    3    8 2
     7    4    5 2
     8    5    6 1
     9    5   15 1
    10    6    7 2
    11    7    8 1
    12    7    9 1
    13    9   10 1
    14    9   12 1
    15   11   12 1
    16   12   13 2
    17   12   14 2
    18   15   16 2
    19   15   17 1
    20   17   18 1
    21   18   19 1
    22   18   20 1
    23   19   28 1
    24   20   21 1
    25   21   23 2
    26   21   24 1
    27   22   23 1
    28   22   26 2
    29   24   25 2
    30   25   26 1
    31   25   39 1
    32   27   39 1
    33   28   29 1
    34   29   30 1
    35   29   32 1
    36   30   31 1
    37   32   33 2
    38   32   34 am
    39   34   35 1
    40   35   36 1
    41   36   37 1
    42   36   38 1
    43    1   41 1
    44    1   42 1
    45    2   43 1
    46    2   44 1
    47    4   45 1
    48    6   46 1
    49    8   47 1
    50   10   48 1
    51   10   49 1
    52   10   50 1
    53   11   51 1
    54   11   52 1
    55   11   53 1
    56   17   54 1
    57   18   55 1
    58   19   56 1
    59   19   57 1
    60   20   58 1
    61   20   59 1
    62   22   60 1
    63   23   61 1
    64   24   62 1
    65   26   63 1
    66   27   64 1
    67   27   65 1
    68   28   66 1
    69   28   67 1
    70   29   68 1
    71   30   69 1
    72   30   70 1
    73   31   71 1
    74   31   72 1
    75   31   73 1
    76   34   74 1
    77   35   75 1
    78   35   76 1
    79   36   77 1
    80   37   78 1
    81   37   79 1
    82   37   80 1
    83   38   81 1
    84   38   82 1
    85   38   83 1
    86   39   84 1
    87   39   85 1
    88   40   86 1
    89   40   87 1
@<TRIPOS>PROPERTY_DATA
  Total_Score	| 8.7171
  Crash		| -8.8554
  Polar		| 3.9751
  FragIndex	| 1
  FragRMSD	| 0.751

