@<TRIPOS>MOLECULE
BindingDB_16700
 91 94 0 0 0
SMALL
NO_CHARGES


@<TRIPOS>ATOM
1    C        32.5090   47.3814    6.9842  C     
2    C        31.7977   46.4848    7.7998  C     
3    C        31.3150   45.2800    7.2579  C     
4    C        31.5516   44.9671    5.9023  C     
5    C        32.2821   45.8496    5.0675  C     
6    C        32.7468   47.0632    5.6371  C     
7    C        32.6316   45.5199    3.6508  C     
8    F        31.6006   46.7701    9.0571  F     
9    C        34.0811   44.9886    3.5643  C     
10   N        31.7587   44.5347    3.0578  N     
11   C        30.9530   44.6847    2.0123  C     
12   O        30.9285   45.7589    1.4165  O     
13   C        30.0701   43.6647    1.6292  C     
14   C        27.8045   42.9699    0.8646  C     
15   C        28.7635   43.9681    1.1750  C     
16   C        30.4225   42.2899    1.7239  C     
17   C        29.5414   41.2514    1.3888  C     
18   C        28.2323   41.6157    0.9592  C     
19   N        26.5234   43.3107    0.4644  N     
20   C        25.7492   42.4592   -0.4114  C     
21   C        25.9458   46.1817   -0.0091  C     
22   S        25.7406   44.7142    1.0293  S     
23   O        24.1701   44.4648    1.1165  O     
24   O        26.1109   45.0340    2.5426  O     
25   C        29.9652   39.9066    1.4507  C     
26   O        29.3185   39.0334    0.8451  O     
27   N        30.9824   39.4987    2.2118  N     
28   C        31.5912   38.2000    2.2382  C     
29   C        33.0980   38.3274    2.6483  C     
30   C        33.8907   39.3320    1.8862  C     
31   C        33.7231   39.4846    0.4902  C     
32   C        34.8651   40.1254    2.5403  C     
33   C        35.6805   41.0129    1.8182  C     
34   C        35.5088   41.1453    0.4278  C     
35   C        34.5134   40.4014   -0.2327  C     
36   C        30.8765   37.1933    3.1938  C     
37   N        29.4933   36.8604    2.7743  N     
38   C        29.1466   35.4230    2.5334  C     
39   C        29.7832   34.8331    1.3418  C     
40   O        29.8490   35.5646    0.3580  O     
41   C        27.6110   35.3149    2.4208  C     
42   C        30.3863   31.1831    1.6416  C     
43   C        29.9191   32.5308    2.2145  C     
44   C        30.7456   32.9644    0.0328  C     
45   C        30.4360   31.4532    0.1362  C     
46   N        30.1718   33.5443    1.2259  N     
47   C        32.2000   33.2334   -0.0708  C     
48   O        33.0546   32.8513    0.9038  O     
49   O        32.7347   33.7055   -1.2201  O     
50   H        32.8686   48.2630    7.3699  H     
51   H        30.8019   44.6218    7.8483  H     
52   H        31.2018   44.0796    5.5356  H     
53   H        33.2773   47.7266    5.0682  H     
54   H        32.6002   46.4454    3.0636  H     
55   H        34.7849   45.7451    3.9172  H     
56   H        34.3315   44.7488    2.5284  H     
57   H        34.2011   44.0863    4.1698  H     
58   H        31.7243   43.6806    3.5158  H     
59   H        28.4830   44.9490    1.0891  H     
60   H        31.3726   42.0548    2.0059  H     
61   H        27.5664   40.8821    0.7211  H     
62   H        26.3635   42.0936   -1.2357  H     
63   H        24.8998   42.9842   -0.8557  H     
64   H        25.3570   41.6138    0.1566  H     
65   H        26.9978   46.4609   -0.0336  H     
66   H        25.3549   47.0022    0.3994  H     
67   H        25.6033   45.9615   -1.0221  H     
68   H        31.4547   40.1993    2.7054  H     
69   H        31.5837   37.7709    1.2279  H     
70   H        33.1335   38.5631    3.7157  H     
71   H        33.5853   37.3583    2.5210  H     
72   H        33.0278   38.9333   -0.0121  H     
73   H        35.0044   40.0442    3.5468  H     
74   H        36.3972   41.5611    2.2986  H     
75   H        36.0971   41.7974   -0.1013  H     
76   H        34.3836   40.5126   -1.2402  H     
77   H        31.4765   36.2845    3.2657  H     
78   H        30.8235   37.6314    4.1945  H     
79   H        28.8759   37.1987    3.5141  H     
80   H        29.2604   37.3900    1.9322  H     
81   H        29.4405   34.8918    3.4338  H     
82   H        27.1365   35.6909    3.3280  H     
83   H        27.3138   34.2705    2.2893  H     
84   H        27.2403   35.8898    1.5639  H     
85   H        31.3837   30.9307    2.0103  H     
86   H        29.7048   30.3632    1.8855  H     
87   H        28.8475   32.4924    2.4097  H     
88   H        30.4518   32.7246    3.1473  H     
89   H        30.2453   33.3400   -0.8590  H     
90   H        31.1709   30.8209   -0.3719  H     
91   H        29.4504   31.2422   -0.2924  H     
@<TRIPOS>BOND
     1    1    2 2
     2    1    6 1
     3    2    3 1
     4    2    8 1
     5    3    4 2
     6    4    5 1
     7    5    6 2
     8    5    7 1
     9    7    9 1
    10    7   10 1
    11   10   11 am
    12   11   12 2
    13   11   13 1
    14   13   15 2
    15   13   16 1
    16   14   15 1
    17   14   18 2
    18   14   19 1
    19   16   17 2
    20   17   18 1
    21   17   25 1
    22   19   20 1
    23   19   22 1
    24   21   22 1
    25   22   23 2
    26   22   24 2
    27   25   26 2
    28   25   27 am
    29   27   28 1
    30   28   29 1
    31   28   36 1
    32   29   30 1
    33   30   31 1
    34   30   32 2
    35   31   35 2
    36   32   33 1
    37   33   34 2
    38   34   35 1
    39   36   37 1
    40   37   38 1
    41   38   39 1
    42   38   41 1
    43   39   40 2
    44   39   46 am
    45   42   43 1
    46   42   45 1
    47   43   46 1
    48   44   45 1
    49   44   46 1
    50   44   47 1
    51   47   48 2
    52   47   49 1
    53    1   50 1
    54    3   51 1
    55    4   52 1
    56    6   53 1
    57    7   54 1
    58    9   55 1
    59    9   56 1
    60    9   57 1
    61   10   58 1
    62   15   59 1
    63   16   60 1
    64   18   61 1
    65   20   62 1
    66   20   63 1
    67   20   64 1
    68   21   65 1
    69   21   66 1
    70   21   67 1
    71   27   68 1
    72   28   69 1
    73   29   70 1
    74   29   71 1
    75   31   72 1
    76   32   73 1
    77   33   74 1
    78   34   75 1
    79   35   76 1
    80   36   77 1
    81   36   78 1
    82   37   79 1
    83   37   80 1
    84   38   81 1
    85   41   82 1
    86   41   83 1
    87   41   84 1
    88   42   85 1
    89   42   86 1
    90   43   87 1
    91   43   88 1
    92   44   89 1
    93   45   90 1
    94   45   91 1
@<TRIPOS>PROPERTY_DATA
  Total_Score	| 16.1123
  Crash		| -4.4220
  Polar		| 5.2681
  FragIndex	| 1
  FragRMSD	| 0.624

