@<TRIPOS>MOLECULE
BindingDB_16697
 85 87 0 0 0
SMALL
NO_CHARGES


@<TRIPOS>ATOM
1    C        31.3098   45.2860    7.3138  C     
2    C        31.8050   46.4381    7.9485  C     
3    C        32.5068   47.4005    7.2004  C     
4    C        32.7184   47.2031    5.8246  C     
5    C        32.2279   46.0459    5.1567  C     
6    C        31.5137   45.0953    5.9325  C     
7    C        32.5068   45.8606    3.6941  C     
8    F        31.6222   46.6040    9.2279  F     
9    C        34.0109   45.5452    3.4671  C     
10   N        31.7282   44.8100    3.0953  N     
11   C        30.8976   44.9079    2.0523  C     
12   O        30.7855   45.9730    1.4535  O     
13   C        30.0835   43.8416    1.6742  C     
14   C        27.8583   43.0347    0.8609  C     
15   C        28.7437   44.0745    1.2379  C     
16   C        30.5254   42.5017    1.7151  C     
17   C        29.7050   41.4341    1.2965  C     
18   C        28.3764   41.7192    0.8875  C     
19   N        26.5258   43.3047    0.4893  N     
20   C        25.7676   42.3746   -0.3149  C     
21   C        25.9423   46.1697    0.0224  C     
22   S        25.7261   44.6976    1.0369  S     
23   O        24.1421   44.4515    1.1204  O     
24   O        26.0707   44.9895    2.5525  O     
25   C        30.1955   40.1389    1.2356  C     
26   O        29.9305   39.4651    0.2419  O     
27   N        30.9292   39.6383    2.2235  N     
28   C        31.5405   38.3335    2.2770  C     
29   C        32.9948   38.4201    2.8408  C     
30   C        33.7644   39.6058    2.3703  C     
31   C        34.2236   39.6943    1.0319  C     
32   C        34.0365   40.6841    3.2457  C     
33   C        34.7628   41.8061    2.8050  C     
34   C        35.2121   41.8807    1.4769  C     
35   C        34.9368   40.8263    0.5892  C     
36   C        30.6557   37.3562    3.1038  C     
37   N        29.2134   37.4654    2.7573  N     
38   C        28.4128   36.2165    2.7167  C     
39   C        28.8562   35.3424    1.6348  C     
40   O        28.7172   35.7202    0.4773  O     
41   N        29.4420   34.1846    1.9218  N     
42   C        30.0070   33.2470    1.0012  C     
43   C        31.3801   32.7779    1.5211  C     
44   C        26.9146   36.5832    2.5578  C     
45   H        30.8013   44.5726    7.8461  H     
46   H        32.8686   48.2364    7.6606  H     
47   H        33.2444   47.9132    5.3076  H     
48   H        31.1539   44.2407    5.5069  H     
49   H        32.2872   46.8177    3.2000  H     
50   H        34.6213   46.4325    3.6683  H     
51   H        34.1784   45.2402    2.4310  H     
52   H        34.3369   44.7346    4.1293  H     
53   H        31.7857   43.9360    3.5105  H     
54   H        28.4187   45.0466    1.1994  H     
55   H        31.4928   42.3040    1.9946  H     
56   H        27.7791   40.9373    0.6098  H     
57   H        26.3406   42.0429   -1.1795  H     
58   H        24.8292   42.7896   -0.7053  H     
59   H        25.5005   41.5049    0.2835  H     
60   H        26.9973   46.4464   -0.0255  H     
61   H        25.3722   46.9931    0.4582  H     
62   H        25.5756   45.9673   -0.9844  H     
63   H        31.0637   40.2105    3.0065  H     
64   H        31.6167   37.9145    1.2585  H     
65   H        32.9410   38.4305    3.9334  H     
66   H        33.5432   37.5176    2.5690  H     
67   H        34.0313   38.9370    0.3700  H     
68   H        33.6977   40.6675    4.2096  H     
69   H        34.9637   42.5737    3.4518  H     
70   H        35.7391   42.6972    1.1568  H     
71   H        35.2554   40.8811   -0.3808  H     
72   H        31.0294   36.3426    2.9488  H     
73   H        30.7462   37.5813    4.1677  H     
74   H        28.7898   38.0707    3.4640  H     
75   H        29.1160   37.9260    1.8498  H     
76   H        28.5165   35.7164    3.6862  H     
77   H        29.5151   33.9507    2.8613  H     
78   H        29.3361   32.3870    0.9363  H     
79   H        30.1274   33.6614   -0.0039  H     
80   H        32.0604   33.6265    1.6081  H     
81   H        31.8117   32.0521    0.8293  H     
82   H        31.2732   32.3099    2.5024  H     
83   H        26.5910   37.2131    3.3901  H     
84   H        26.2988   35.6809    2.5536  H     
85   H        26.7456   37.1324    1.6290  H     
@<TRIPOS>BOND
     1    1    2 2
     2    1    6 1
     3    2    3 1
     4    2    8 1
     5    3    4 2
     6    4    5 1
     7    5    6 2
     8    5    7 1
     9    7    9 1
    10    7   10 1
    11   10   11 am
    12   11   12 2
    13   11   13 1
    14   13   15 2
    15   13   16 1
    16   14   15 1
    17   14   18 2
    18   14   19 1
    19   16   17 2
    20   17   18 1
    21   17   25 1
    22   19   20 1
    23   19   22 1
    24   21   22 1
    25   22   23 2
    26   22   24 2
    27   25   26 2
    28   25   27 am
    29   27   28 1
    30   28   29 1
    31   28   36 1
    32   29   30 1
    33   30   31 1
    34   30   32 2
    35   31   35 2
    36   32   33 1
    37   33   34 2
    38   34   35 1
    39   36   37 1
    40   37   38 1
    41   38   39 1
    42   38   44 1
    43   39   40 2
    44   39   41 am
    45   41   42 1
    46   42   43 1
    47    1   45 1
    48    3   46 1
    49    4   47 1
    50    6   48 1
    51    7   49 1
    52    9   50 1
    53    9   51 1
    54    9   52 1
    55   10   53 1
    56   15   54 1
    57   16   55 1
    58   18   56 1
    59   20   57 1
    60   20   58 1
    61   20   59 1
    62   21   60 1
    63   21   61 1
    64   21   62 1
    65   27   63 1
    66   28   64 1
    67   29   65 1
    68   29   66 1
    69   31   67 1
    70   32   68 1
    71   33   69 1
    72   34   70 1
    73   35   71 1
    74   36   72 1
    75   36   73 1
    76   37   74 1
    77   37   75 1
    78   38   76 1
    79   41   77 1
    80   42   78 1
    81   42   79 1
    82   43   80 1
    83   43   81 1
    84   43   82 1
    85   44   83 1
    86   44   84 1
    87   44   85 1
@<TRIPOS>PROPERTY_DATA
  Total_Score	| 19.8127
  Crash		| -2.2052
  Polar		| 8.3010
  FragIndex	| 1
  FragRMSD	| 0.243

