@<TRIPOS>MOLECULE
BindingDB_50342007
 48 50 0 0 0
SMALL
NO_CHARGES


@<TRIPOS>ATOM
1    C        37.9718   -0.8070   14.0747  C     
2    C        37.1104   -0.6271   12.8238  C     
3    C        37.6492   -1.7335   11.8872  C     
4    O        39.0257   -1.9406   12.2692  O     
5    C        39.3336   -1.2225   13.4766  C     
6    N        36.8279   -2.9425   11.9094  N     
7    O        38.0432    0.3744   14.8729  O     
8    C        40.2012   -2.0797   14.4459  C     
9    N        41.6157   -2.4509   14.0917  N     
10   C        41.8719   -2.9332   12.6987  C     
11   C        42.2104   -1.8158   11.6719  C     
12   C        43.3197   -0.8430   12.1768  C     
13   C        43.0094   -0.3530   13.6200  C     
14   C        42.6916   -1.5285   14.5741  C     
15   C        43.5549    0.3197   11.2794  C     
16   O        43.0250    0.4093   10.0377  O     
17   O        44.2680    1.3817   11.7184  O     
18   C        37.2668   -4.0944   12.5068  C     
19   C        36.5112   -5.2151   12.5739  C     
20   C        35.2681   -5.1595   11.9909  C     
21   N        34.8475   -4.0468   11.3980  N     
22   C        35.6009   -2.9523   11.3441  C     
23   O        35.1128   -1.9888   10.7667  O     
24   O        34.5041   -6.1150   11.9939  O     
25   C        36.9801   -6.4244   13.2465  C     
26   H        37.5546   -1.6146   14.6849  H     
27   H        36.0467   -0.7284   13.0546  H     
28   H        37.2850    0.3586   12.3802  H     
29   H        37.6805   -1.3530   10.8616  H     
30   H        39.8750   -0.3179   13.1999  H     
31   H        38.3931    1.0735   14.2809  H     
32   H        40.2089   -1.5831   15.4199  H     
33   H        39.6679   -3.0192   14.6077  H     
34   H        41.7665   -3.2879   14.6608  H     
35   H        42.7233   -3.6184   12.7394  H     
36   H        41.0239   -3.5186   12.3338  H     
37   H        42.5397   -2.2842   10.7392  H     
38   H        41.3089   -1.2478   11.4447  H     
39   H        44.2578   -1.4060   12.2098  H     
40   H        43.8746    0.1848   14.0193  H     
41   H        42.1702    0.3442   13.6113  H     
42   H        42.4506   -1.1286   15.5626  H     
43   H        43.6039   -2.1191   14.6995  H     
44   H        38.1663   -4.1176   12.9230  H     
45   H        33.9669   -4.0346   10.9919  H     
46   H        37.9815   -6.3150   13.6695  H     
47   H        37.0052   -7.2539   12.5369  H     
48   H        36.3011   -6.6789   14.0634  H     
@<TRIPOS>BOND
     1    1    2 1
     2    1    5 1
     3    1    7 1
     4    2    3 1
     5    3    4 1
     6    3    6 1
     7    4    5 1
     8    5    8 1
     9    6   18 1
    10    6   22 1
    11    8    9 1
    12    9   10 1
    13    9   14 1
    14   10   11 1
    15   11   12 1
    16   12   13 1
    17   12   15 1
    18   13   14 1
    19   15   16 1
    20   15   17 2
    21   18   19 2
    22   19   20 1
    23   19   25 1
    24   20   21 1
    25   20   24 2
    26   21   22 1
    27   22   23 2
    28    1   26 1
    29    2   27 1
    30    2   28 1
    31    3   29 1
    32    5   30 1
    33    7   31 1
    34    8   32 1
    35    8   33 1
    36    9   34 1
    37   10   35 1
    38   10   36 1
    39   11   37 1
    40   11   38 1
    41   12   39 1
    42   13   40 1
    43   13   41 1
    44   14   42 1
    45   14   43 1
    46   18   44 1
    47   21   45 1
    48   25   46 1
    49   25   47 1
    50   25   48 1
@<TRIPOS>PROPERTY_DATA
  Total_Score	| 3.6755
  Crash		| -0.3627
  Polar		| 4.4713
  FragIndex	| 1
  FragRMSD	| 1.274

