@<TRIPOS>MOLECULE
BindingDB_50292717
 46 48 0 0 0
SMALL
NO_CHARGES


@<TRIPOS>ATOM
1    C        36.7797   -5.1174   12.4123  C     
2    C        37.4361   -3.9412   12.2825  C     
3    N        36.8589   -2.8272   11.7354  N     
4    C        35.6107   -2.9496   11.2337  C     
5    N        34.9507   -4.0978   11.3513  N     
6    C        35.4911   -5.1626   11.9346  C     
7    O        34.7961   -6.1663   12.0065  O     
8    O        35.0178   -2.0420   10.6646  O     
9    C        37.5620   -1.5450   11.6863  C     
10   O        38.9514   -1.5905   12.0797  O     
11   C        39.1363   -0.9793   13.3721  C     
12   C        37.7174   -0.6667   13.9012  C     
13   C        36.9299   -0.4759   12.6062  C     
14   O        37.6508    0.4835   14.7402  O     
15   C        39.9613   -1.8846   14.3354  C     
16   N        41.1828   -2.5725   13.8045  N     
17   C        41.5600   -3.8115   14.5510  C     
18   C        42.6233   -4.6183   13.7623  C     
19   C        43.8655   -3.7501   13.4409  C     
20   C        43.4615   -2.4220   12.7565  C     
21   C        42.3636   -1.6844   13.5647  C     
22   C        37.4516   -6.2596   13.0276  C     
23   H        38.3768   -3.9039   12.5917  H     
24   H        34.0479   -4.1604   11.0036  H     
25   H        37.5472   -1.1844   10.6536  H     
26   H        39.6735   -0.0387   13.2187  H     
27   H        37.3086   -1.5226   14.4496  H     
28   H        37.1052    0.5242   12.1959  H     
29   H        35.8580   -0.6085   12.7708  H     
30   H        36.7258    0.4824   15.0731  H     
31   H        40.2567   -1.2813   15.1990  H     
32   H        39.3007   -2.6563   14.7339  H     
33   H        40.9055   -2.9012   12.8760  H     
34   H        41.9485   -3.5603   15.5424  H     
35   H        40.6870   -4.4561   14.6857  H     
36   H        42.9303   -5.4871   14.3511  H     
37   H        42.1819   -4.9814   12.8291  H     
38   H        44.4017   -3.5300   14.3683  H     
39   H        44.5405   -4.3064   12.7865  H     
40   H        44.3401   -1.7785   12.6634  H     
41   H        43.0878   -2.6302   11.7509  H     
42   H        42.0579   -0.8023   12.9958  H     
43   H        42.7915   -1.3462   14.5127  H     
44   H        38.3505   -6.5098   12.4599  H     
45   H        36.8246   -7.1519   13.0681  H     
46   H        37.7404   -6.0096   14.0510  H     
@<TRIPOS>BOND
     1    1    2 2
     2    1    6 1
     3    1   22 1
     4    2    3 1
     5    3    4 1
     6    9    3 1
     7    4    5 1
     8    4    8 2
     9    5    6 1
    10    6    7 2
    11    9   10 1
    12    9   13 1
    13   10   11 1
    14   11   12 1
    15   11   15 1
    16   12   13 1
    17   12   14 1
    18   15   16 1
    19   16   17 1
    20   16   21 1
    21   17   18 1
    22   18   19 1
    23   19   20 1
    24   20   21 1
    25    2   23 1
    26    5   24 1
    27    9   25 1
    28   11   26 1
    29   12   27 1
    30   13   28 1
    31   13   29 1
    32   14   30 1
    33   15   31 1
    34   15   32 1
    35   16   33 1
    36   17   34 1
    37   17   35 1
    38   18   36 1
    39   18   37 1
    40   19   38 1
    41   19   39 1
    42   20   40 1
    43   20   41 1
    44   21   42 1
    45   21   43 1
    46   22   44 1
    47   22   45 1
    48   22   46 1
@<TRIPOS>PROPERTY_DATA
  Total_Score	| 1.9645
  Crash		| -0.3337
  Polar		| 2.7175
  FragIndex	| 1
  FragRMSD	| 0.582

