@<TRIPOS>MOLECULE
BindingDB_50342008
 48 50 0 0 0
SMALL
NO_CHARGES


@<TRIPOS>ATOM
1    C        38.0245   -0.6893   13.8290  C     
2    C        37.1853   -0.5551   12.5562  C     
3    C        37.6458   -1.7655   11.7111  C     
4    O        39.0183   -1.9968   12.0887  O     
5    C        39.3529   -1.2608   13.2781  C     
6    N        36.7751   -2.9346   11.8343  N     
7    O        37.3762   -1.5585   14.7595  O     
8    C        40.1585   -2.1417   14.2807  C     
9    N        41.6070   -2.4704   14.0336  N     
10   C        41.9967   -2.9227   12.6606  C     
11   C        42.3706   -1.7829   11.6723  C     
12   C        43.3811   -0.7609   12.2760  C     
13   C        42.9405   -0.3159   13.7011  C     
14   C        42.6091   -1.5224   14.6114  C     
15   C        43.6128    0.4227   11.4049  C     
16   O        43.1222    0.5161   10.1469  O     
17   O        44.3021    1.4874   11.8738  O     
18   C        37.2039   -4.0887   12.4348  C     
19   C        36.4149   -5.1796   12.5726  C     
20   C        35.1417   -5.0908   12.0619  C     
21   N        34.7338   -3.9810   11.4549  N     
22   C        35.5235   -2.9187   11.3266  C     
23   O        35.0460   -1.9608   10.7318  O     
24   O        34.3380   -6.0099   12.1321  O     
25   C        36.9340   -6.3720   13.2389  C     
26   H        38.1773    0.2826   14.3072  H     
27   H        36.1142   -0.5537   12.7733  H     
28   H        37.4383    0.3779   12.0410  H     
29   H        37.6712   -1.4720   10.6580  H     
30   H        39.9665   -0.4130   12.9747  H     
31   H        36.5074   -1.1397   14.9443  H     
32   H        40.0697   -1.6865   15.2707  H     
33   H        39.6382   -3.0984   14.3583  H     
34   H        41.7377   -3.3104   14.6033  H     
35   H        42.8691   -3.5741   12.7641  H     
36   H        41.2052   -3.5375   12.2245  H     
37   H        42.8029   -2.2279   10.7706  H     
38   H        41.4637   -1.2611   11.3681  H     
39   H        44.3444   -1.2720   12.3711  H     
40   H        43.7481    0.2534   14.1709  H     
41   H        42.0735    0.3435   13.6417  H     
42   H        42.2855   -1.1540   15.5883  H     
43   H        43.5340   -2.0794   14.7882  H     
44   H        38.1290   -4.1440   12.7888  H     
45   H        33.8363   -3.9492   11.0884  H     
46   H        37.8076   -6.7448   12.6997  H     
47   H        36.2052   -7.1825   13.2926  H     
48   H        37.2308   -6.1245   14.2608  H     
@<TRIPOS>BOND
     1    1    2 1
     2    1    5 1
     3    1    7 1
     4    2    3 1
     5    3    4 1
     6    3    6 1
     7    4    5 1
     8    5    8 1
     9    6   18 1
    10    6   22 1
    11    8    9 1
    12    9   10 1
    13    9   14 1
    14   10   11 1
    15   11   12 1
    16   12   13 1
    17   12   15 1
    18   13   14 1
    19   15   16 1
    20   15   17 2
    21   18   19 2
    22   19   20 1
    23   19   25 1
    24   20   21 1
    25   20   24 2
    26   21   22 1
    27   22   23 2
    28    1   26 1
    29    2   27 1
    30    2   28 1
    31    3   29 1
    32    5   30 1
    33    7   31 1
    34    8   32 1
    35    8   33 1
    36    9   34 1
    37   10   35 1
    38   10   36 1
    39   11   37 1
    40   11   38 1
    41   12   39 1
    42   13   40 1
    43   13   41 1
    44   14   42 1
    45   14   43 1
    46   18   44 1
    47   21   45 1
    48   25   46 1
    49   25   47 1
    50   25   48 1
@<TRIPOS>PROPERTY_DATA
  Total_Score	| 4.8936
  Crash		| -0.4502
  Polar		| 5.6228
  FragIndex	| 1
  FragRMSD	| 1.371

