@<TRIPOS>MOLECULE
BindingDB_50292715
 53 55 0 0 0
SMALL
NO_CHARGES


@<TRIPOS>ATOM
1    C        36.4736   -5.1982   12.5549  C     
2    C        37.2411   -4.0928   12.5159  C     
3    N        36.8112   -2.9371   11.9175  N     
4    C        35.5858   -2.9404   11.3425  C     
5    N        34.8250   -4.0333   11.3908  N     
6    C        35.2421   -5.1497   11.9813  C     
7    O        34.5049   -6.1241   12.0005  O     
8    O        35.1096   -1.9760   10.7571  O     
9    C        37.6504   -1.7421   11.8781  C     
10   O        39.0177   -1.9633   12.2803  O     
11   C        39.3257   -1.2361   13.4800  C     
12   C        37.9709   -0.7538   14.0434  C     
13   C        37.1222   -0.5962   12.7782  C     
14   O        37.3384    0.6769   12.1657  O     
15   O        38.0770    0.4544   14.7958  O     
16   C        40.1360   -2.0959   14.4972  C     
17   N        41.5224   -2.5364   14.1325  N     
18   C        42.5189   -1.4245   14.0355  C     
19   C        43.9589   -1.9940   13.9383  C     
20   C        44.1203   -2.9465   12.7160  C     
21   C        43.0233   -4.0545   12.7867  C     
22   C        41.5944   -3.4770   12.9713  C     
23   C        44.1711   -2.1760   11.4442  C     
24   O        45.1912   -1.2923   11.2736  O     
25   O        43.2311   -2.3229   10.4796  O     
26   C        45.4240   -0.3822   10.1910  C     
27   C        46.7274   -0.7456    9.4568  C     
28   H        36.8008   -6.0268   12.9981  H     
29   H        38.1338   -4.1453   12.9459  H     
30   H        33.9461   -4.0175   10.9810  H     
31   H        37.7024   -1.4023   10.8392  H     
32   H        39.9180   -0.3629   13.1937  H     
33   H        37.5185   -1.5227   14.6790  H     
34   H        36.0584   -0.6904   13.0133  H     
35   H        36.7822    0.6698   11.3581  H     
36   H        38.6427    0.2294   15.5643  H     
37   H        40.2028   -1.5351   15.4338  H     
38   H        39.5531   -2.9912   14.7286  H     
39   H        41.8306   -3.0915   14.9348  H     
40   H        42.3150   -0.7912   13.1677  H     
41   H        42.4669   -0.7967   14.9293  H     
42   H        44.6769   -1.1695   13.8885  H     
43   H        44.1750   -2.5524   14.8552  H     
44   H        45.0890   -3.4478   12.8058  H     
45   H        43.0558   -4.6717   11.8846  H     
46   H        43.2400   -4.7100   13.6357  H     
47   H        40.9094   -4.3142   13.1303  H     
48   H        41.2978   -2.9732   12.0508  H     
49   H        44.5929   -0.3738    9.4823  H     
50   H        45.5158    0.6207   10.6116  H     
51   H        47.5665   -0.7469   10.1553  H     
52   H        46.9255   -0.0131    8.6714  H     
53   H        46.6417   -1.7334    9.0035  H     
@<TRIPOS>BOND
     1    1    2 2
     2    1    6 1
     3    2    3 1
     4    3    4 1
     5    9    3 1
     6    4    5 1
     7    4    8 2
     8    5    6 1
     9    6    7 2
    10    9   10 1
    11    9   13 1
    12   10   11 1
    13   11   12 1
    14   11   16 1
    15   12   13 1
    16   12   15 1
    17   13   14 1
    18   16   17 1
    19   17   18 1
    20   17   22 1
    21   18   19 1
    22   19   20 1
    23   20   21 1
    24   20   23 1
    25   21   22 1
    26   23   24 1
    27   23   25 2
    28   24   26 1
    29   26   27 1
    30    1   28 1
    31    2   29 1
    32    5   30 1
    33    9   31 1
    34   11   32 1
    35   12   33 1
    36   13   34 1
    37   14   35 1
    38   15   36 1
    39   16   37 1
    40   16   38 1
    41   17   39 1
    42   18   40 1
    43   18   41 1
    44   19   42 1
    45   19   43 1
    46   20   44 1
    47   21   45 1
    48   21   46 1
    49   22   47 1
    50   22   48 1
    51   26   49 1
    52   26   50 1
    53   27   51 1
    54   27   52 1
    55   27   53 1
@<TRIPOS>PROPERTY_DATA
  Total_Score	| 2.7195
  Crash		| -0.4896
  Polar		| 2.0566
  FragIndex	| 1
  FragRMSD	| 0.785

