@<TRIPOS>MOLECULE
BindingDB_50292719
 44 46 0 0 0
SMALL
NO_CHARGES


@<TRIPOS>ATOM
1    C        36.6753   -5.1126   12.3748  C     
2    C        37.3828   -3.9674   12.3345  C     
3    N        36.8750   -2.8308   11.7645  N     
4    C        35.6230   -2.8759   11.2537  C     
5    N        34.9231   -4.0102   11.3032  N     
6    C        35.4234   -5.1184   11.8420  C     
7    O        34.7349   -6.1273   11.8717  O     
8    O        35.0633   -1.9110   10.7477  O     
9    C        37.6335   -1.5876   11.7985  C     
10   O        39.0557   -1.7636   11.9266  O     
11   C        39.5980   -0.7705   12.8086  C     
12   C        38.4401    0.1789   13.2057  C     
13   C        37.2001   -0.6911   12.9751  C     
14   O        36.0231    0.0640   12.6848  O     
15   O        38.4171    1.3373   12.3673  O     
16   C        40.2702   -1.4782   14.0190  C     
17   N        41.3707   -2.4319   13.6404  N     
18   C        42.6697   -1.7550   13.3125  C     
19   C        43.7388   -2.7621   12.8193  C     
20   C        43.9452   -3.9035   13.8418  C     
21   C        42.5965   -4.5646   14.2132  C     
22   C        41.5584   -3.5081   14.6685  C     
23   H        37.0591   -5.9290   12.7914  H     
24   H        38.2837   -3.9661   12.7545  H     
25   H        34.0248   -4.0275   10.9407  H     
26   H        37.4968   -1.0379   10.8600  H     
27   H        40.3525   -0.2017   12.2634  H     
28   H        38.4944    0.5077   14.2463  H     
29   H        37.0135   -1.3075   13.8618  H     
30   H        35.5238    0.0897   13.5342  H     
31   H        39.2064    1.8605   12.6289  H     
32   H        40.6491   -0.7239   14.7157  H     
33   H        39.4722   -2.0195   14.5382  H     
34   H        41.0638   -2.9052   12.7879  H     
35   H        42.5290   -1.0212   12.5173  H     
36   H        43.0495   -1.2211   14.1890  H     
37   H        43.4175   -3.1834   11.8628  H     
38   H        44.6846   -2.2395   12.6592  H     
39   H        44.6148   -4.6576   13.4206  H     
40   H        44.4145   -3.5023   14.7462  H     
41   H        42.2038   -5.1006   13.3459  H     
42   H        42.7543   -5.2887   15.0161  H     
43   H        41.8766   -3.0704   15.6217  H     
44   H        40.6135   -4.0330   14.8382  H     
@<TRIPOS>BOND
     1    1    2 2
     2    1    6 1
     3    2    3 1
     4    3    4 1
     5    9    3 1
     6    4    5 1
     7    4    8 2
     8    5    6 1
     9    6    7 2
    10    9   10 1
    11    9   13 1
    12   10   11 1
    13   11   12 1
    14   11   16 1
    15   12   13 1
    16   12   15 1
    17   13   14 1
    18   16   17 1
    19   17   18 1
    20   17   22 1
    21   18   19 1
    22   19   20 1
    23   20   21 1
    24   21   22 1
    25    1   23 1
    26    2   24 1
    27    5   25 1
    28    9   26 1
    29   11   27 1
    30   12   28 1
    31   13   29 1
    32   14   30 1
    33   15   31 1
    34   16   32 1
    35   16   33 1
    36   17   34 1
    37   18   35 1
    38   18   36 1
    39   19   37 1
    40   19   38 1
    41   20   39 1
    42   20   40 1
    43   21   41 1
    44   21   42 1
    45   22   43 1
    46   22   44 1
@<TRIPOS>PROPERTY_DATA
  Total_Score	| 2.2114
  Crash		| -0.2754
  Polar		| 3.4859
  FragIndex	| 1
  FragRMSD	| 0.703

