@<TRIPOS>MOLECULE
BindingDB_50292724
 32 33 0 0 0
SMALL
NO_CHARGES


@<TRIPOS>ATOM
1    C        36.6800   -5.1151   12.3557  C     
2    C        37.3882   -3.9665   12.2776  C     
3    N        36.8400   -2.8184   11.7470  N     
4    C        35.5852   -2.8805   11.2369  C     
5    N        34.8946   -4.0153   11.3090  N     
6    C        35.4117   -5.1160   11.8595  C     
7    O        34.7345   -6.1292   11.9283  O     
8    O        35.0122   -1.9295   10.7209  O     
9    C        37.5492   -1.5480   11.8247  C     
10   O        38.9584   -1.6318   12.0726  O     
11   C        39.3797   -0.3394   12.5519  C     
12   C        38.1650    0.3385   13.2483  C     
13   C        37.0336   -0.6765   12.9871  C     
14   O        36.8179   -1.5056   14.1379  O     
15   O        37.8461    1.5956   12.6116  O     
16   C        40.6191   -0.5358   13.4603  C     
17   O        40.4764   -1.6129   14.3863  O     
18   P        37.2244    2.7468   13.4654  P     
19   O        35.7507    2.4147   13.7718  O     
20   O        37.9799    2.9735   14.7903  O     
21   O        37.2511    3.9610   12.6885  O     
22   H        37.0924   -5.9333   12.7545  H     
23   H        38.3203   -3.9555   12.6532  H     
24   H        33.9861   -4.0398   10.9619  H     
25   H        37.4144   -1.0011   10.8712  H     
26   H        39.6891    0.2604   11.6887  H     
27   H        38.3046    0.4417   14.3295  H     
28   H        36.0888   -0.1777   12.7398  H     
29   H        36.2162   -0.9758   14.7081  H     
30   H        41.4902   -0.7546   12.8284  H     
31   H        40.8186    0.3926   14.0116  H     
32   H        39.8001   -1.3178   15.0229  H     
@<TRIPOS>BOND
     1    1    2 2
     2    1    6 1
     3    2    3 1
     4    3    4 1
     5    9    3 1
     6    4    5 1
     7    4    8 2
     8    5    6 1
     9    6    7 2
    10    9   10 1
    11    9   13 1
    12   10   11 1
    13   11   12 1
    14   11   16 1
    15   12   13 1
    16   12   15 1
    17   13   14 1
    18   15   18 1
    19   16   17 1
    20   18   19 1
    21   18   20 1
    22   18   21 2
    23    1   22 1
    24    2   23 1
    25    5   24 1
    26    9   25 1
    27   11   26 1
    28   12   27 1
    29   13   28 1
    30   14   29 1
    31   16   30 1
    32   16   31 1
    33   17   32 1
@<TRIPOS>PROPERTY_DATA
  Total_Score	| 4.6616
  Crash		| -0.3285
  Polar		| 6.0807
  FragIndex	| 1
  FragRMSD	| 1.042

