@<TRIPOS>MOLECULE
BindingDB_50292714
 46 48 0 0 0
SMALL
NO_CHARGES


@<TRIPOS>ATOM
1    C        35.5722   -5.6284   13.4431  C     
2    C        36.6339   -4.8243   13.6109  C     
3    N        36.8097   -3.6977   12.8522  N     
4    C        35.8762   -3.3992   11.9202  C     
5    N        34.8207   -4.1992   11.7648  N     
6    C        34.6646   -5.2978   12.4958  C     
7    O        33.6742   -5.9875   12.3205  O     
8    O        35.9405   -2.4242   11.1878  O     
9    C        37.9893   -2.8972   13.1485  C     
10   O        38.1391   -1.6454   12.4620  O     
11   C        39.4766   -1.1303   12.6862  C     
12   C        40.3563   -2.4421   12.6458  C     
13   C        39.3228   -3.6028   12.8109  C     
14   O        39.1970   -4.3548   11.5942  O     
15   N        41.6076   -2.6434   13.4748  N     
16   C        42.7717   -1.7877   13.0695  C     
17   C        44.0950   -2.3697   13.6412  C     
18   C        44.0225   -2.5606   15.1773  C     
19   C        42.7681   -3.3691   15.5814  C     
20   C        41.4902   -2.7379   14.9726  C     
21   C        39.7073   -0.1084   11.5000  C     
22   O        40.2955   -0.6475   10.3131  O     
23   C        39.4749   -0.3567   13.9641  C     
24   O        38.3462   -0.1677   14.6906  O     
25   O        40.5338    0.4117   14.3193  O     
26   H        35.4557   -6.4246   14.0229  H     
27   H        37.2966   -5.0728   14.3164  H     
28   H        34.1541   -3.9794   11.0987  H     
29   H        37.9765   -2.6789   14.2205  H     
30   H        40.7094   -2.5500   11.6137  H     
31   H        39.5986   -4.3036   13.6028  H     
32   H        38.5006   -5.0171   11.7821  H     
33   H        41.9101   -3.5925   13.2021  H     
34   H        42.8822   -1.7636   11.9805  H     
35   H        42.6331   -0.7569   13.4112  H     
36   H        44.2910   -3.3324   13.1752  H     
37   H        44.9248   -1.6977   13.4035  H     
38   H        44.9044   -3.0919   15.5231  H     
39   H        43.9983   -1.5850   15.6709  H     
40   H        42.8501   -4.3979   15.2251  H     
41   H        42.6663   -3.3862   16.6626  H     
42   H        41.3483   -1.7491   15.4134  H     
43   H        40.6245   -3.3536   15.2663  H     
44   H        38.7302    0.3230   11.1953  H     
45   H        40.3399    0.7461   11.7989  H     
46   H        39.6479   -1.3106    9.9646  H     
@<TRIPOS>BOND
     1    1    2 2
     2    1    6 1
     3    2    3 1
     4    3    4 1
     5    9    3 1
     6    4    5 1
     7    4    8 2
     8    5    6 1
     9    6    7 2
    10    9   10 1
    11    9   13 1
    12   10   11 1
    13   11   12 1
    14   11   21 1
    15   11   23 1
    16   12   13 1
    17   12   15 1
    18   13   14 1
    19   15   16 1
    20   15   20 1
    21   16   17 1
    22   17   18 1
    23   18   19 1
    24   19   20 1
    25   21   22 1
    26   23   24 1
    27   23   25 2
    28    1   26 1
    29    2   27 1
    30    5   28 1
    31    9   29 1
    32   12   30 1
    33   13   31 1
    34   14   32 1
    35   15   33 1
    36   16   34 1
    37   16   35 1
    38   17   36 1
    39   17   37 1
    40   18   38 1
    41   18   39 1
    42   19   40 1
    43   19   41 1
    44   20   42 1
    45   20   43 1
    46   21   44 1
    47   21   45 1
    48   22   46 1
@<TRIPOS>PROPERTY_DATA
  Total_Score	| 0.4588
  Crash		| -1.1465
  Polar		| 2.1719
  FragIndex	| 1
  FragRMSD	| 1.134

