@<TRIPOS>MOLECULE
BindingDB_50292720
 42 44 0 0 0
SMALL
NO_CHARGES


@<TRIPOS>ATOM
1    C        36.6598   -5.0966   12.4132  C     
2    C        37.3823   -3.9613   12.3643  C     
3    N        36.8824   -2.8173   11.7942  N     
4    C        35.6306   -2.8577   11.2808  C     
5    N        34.9198   -3.9831   11.3352  N     
6    C        35.4071   -5.0901   11.8848  C     
7    O        34.7114   -6.0944   11.9203  O     
8    O        35.0842   -1.8999   10.7467  O     
9    C        37.6540   -1.5759   11.8107  C     
10   O        39.0765   -1.7569   11.9297  O     
11   C        39.6327   -0.7628   12.7986  C     
12   C        38.4837    0.2071   13.1941  C     
13   C        37.2418   -0.6682   12.9895  C     
14   O        36.0544    0.0664   12.6863  O     
15   O        38.4344    1.3420   12.3185  O     
16   C        40.2914   -1.4626   14.0205  C     
17   N        41.3971   -2.4152   13.6576  N     
18   C        42.7003   -1.7398   13.3697  C     
19   C        43.7797   -2.7744   12.9717  C     
20   O        43.9011   -3.8081   13.9678  O     
21   C        42.6661   -4.5060   14.2229  C     
22   C        41.5641   -3.5121   14.6666  C     
23   H        37.0288   -5.9142   12.8413  H     
24   H        38.2894   -3.9679   12.7729  H     
25   H        34.0270   -3.9945   10.9619  H     
26   H        37.5046   -1.0248   10.8731  H     
27   H        40.4057   -0.2174   12.2453  H     
28   H        38.5561    0.5730   14.2200  H     
29   H        37.0768   -1.2832   13.8794  H     
30   H        35.5498    0.1124   13.5413  H     
31   H        39.2710    1.8370   12.4981  H     
32   H        40.6633   -0.6995   14.7075  H     
33   H        39.4886   -1.9944   14.5413  H     
34   H        41.1205   -2.8902   12.7950  H     
35   H        42.5817   -1.0364   12.5474  H     
36   H        43.0417   -1.1846   14.2489  H     
37   H        43.5383   -3.2148   11.9998  H     
38   H        44.7442   -2.2719   12.8810  H     
39   H        42.3452   -5.0480   13.3273  H     
40   H        42.8351   -5.2389   15.0160  H     
41   H        41.8234   -3.0956   15.6479  H     
42   H        40.6270   -4.0751   14.7686  H     
@<TRIPOS>BOND
     1    1    2 2
     2    1    6 1
     3    2    3 1
     4    3    4 1
     5    9    3 1
     6    4    5 1
     7    4    8 2
     8    5    6 1
     9    6    7 2
    10    9   10 1
    11    9   13 1
    12   10   11 1
    13   11   12 1
    14   11   16 1
    15   12   13 1
    16   12   15 1
    17   13   14 1
    18   16   17 1
    19   17   18 1
    20   17   22 1
    21   18   19 1
    22   19   20 1
    23   20   21 1
    24   21   22 1
    25    1   23 1
    26    2   24 1
    27    5   25 1
    28    9   26 1
    29   11   27 1
    30   12   28 1
    31   13   29 1
    32   14   30 1
    33   15   31 1
    34   16   32 1
    35   16   33 1
    36   17   34 1
    37   18   35 1
    38   18   36 1
    39   19   37 1
    40   19   38 1
    41   21   39 1
    42   21   40 1
    43   22   41 1
    44   22   42 1
@<TRIPOS>PROPERTY_DATA
  Total_Score	| 2.2993
  Crash		| -0.2371
  Polar		| 3.4883
  FragIndex	| 1
  FragRMSD	| 0.696

