@<TRIPOS>MOLECULE
BindingDB_50292718
 41 43 0 0 0
SMALL
NO_CHARGES


@<TRIPOS>ATOM
1    C        36.6584   -5.1003   12.3978  C     
2    C        37.3797   -3.9625   12.3450  C     
3    N        36.8751   -2.8209   11.7787  N     
4    C        35.6248   -2.8647   11.2662  C     
5    N        34.9155   -3.9877   11.3223  N     
6    C        35.4016   -5.0957   11.8766  C     
7    O        34.6986   -6.0952   11.9116  O     
8    O        35.0787   -1.9099   10.7299  O     
9    C        37.6410   -1.5776   11.7923  C     
10   O        39.0725   -1.7282   11.8883  O     
11   C        39.6107   -0.7613   12.8034  C     
12   C        38.4605    0.2005   13.1932  C     
13   C        37.2244   -0.6784   12.9747  C     
14   O        36.0425    0.0776   12.7067  O     
15   O        38.4320    1.3648   12.3485  O     
16   C        40.2255   -1.5038   14.0273  C     
17   N        41.3059   -2.4610   13.6421  N     
18   C        42.6415   -1.8775   13.3634  C     
19   C        43.5881   -3.0928   13.3046  C     
20   C        42.8830   -4.1976   14.1202  C     
21   C        41.5771   -3.5473   14.6159  C     
22   H        37.0343   -5.9180   12.8216  H     
23   H        38.2915   -3.9719   12.7436  H     
24   H        34.0203   -3.9980   10.9452  H     
25   H        37.4695   -1.0337   10.8533  H     
26   H        40.4081   -0.1881   12.3125  H     
27   H        38.5163    0.5412   14.2385  H     
28   H        37.0667   -1.3041   13.8616  H     
29   H        35.5275    0.0626   13.5442  H     
30   H        39.2275    1.8914   12.6049  H     
31   H        40.6198   -0.7752   14.7548  H     
32   H        39.4285   -2.0657   14.5246  H     
33   H        40.9972   -2.9232   12.7827  H     
34   H        42.6442   -1.3383   12.4150  H     
35   H        42.9526   -1.1994   14.1656  H     
36   H        43.7208   -3.4167   12.2647  H     
37   H        44.5676   -2.8445   13.7247  H     
38   H        42.6616   -5.0566   13.4786  H     
39   H        43.4970   -4.5339   14.9596  H     
40   H        41.7167   -3.1486   15.6283  H     
41   H        40.7622   -4.2746   14.6250  H     
@<TRIPOS>BOND
     1    1    2 2
     2    1    6 1
     3    2    3 1
     4    3    4 1
     5    9    3 1
     6    4    5 1
     7    4    8 2
     8    5    6 1
     9    6    7 2
    10    9   10 1
    11    9   13 1
    12   10   11 1
    13   11   12 1
    14   11   16 1
    15   12   13 1
    16   12   15 1
    17   13   14 1
    18   16   17 1
    19   17   18 1
    20   17   21 1
    21   18   19 1
    22   19   20 1
    23   20   21 1
    24    1   22 1
    25    2   23 1
    26    5   24 1
    27    9   25 1
    28   11   26 1
    29   12   27 1
    30   13   28 1
    31   14   29 1
    32   15   30 1
    33   16   31 1
    34   16   32 1
    35   17   33 1
    36   18   34 1
    37   18   35 1
    38   19   36 1
    39   19   37 1
    40   20   38 1
    41   20   39 1
    42   21   40 1
    43   21   41 1
@<TRIPOS>PROPERTY_DATA
  Total_Score	| 2.3530
  Crash		| -0.2369
  Polar		| 3.5244
  FragIndex	| 1
  FragRMSD	| 0.732

