@<TRIPOS>MOLECULE
BindingDB_50342006
 46 48 0 0 0
SMALL
NO_CHARGES


@<TRIPOS>ATOM
1    C        38.0570   -0.6804   13.9217  C     
2    C        37.1325   -0.5849   12.6995  C     
3    C        37.6623   -1.7236   11.7897  C     
4    O        39.0451   -1.9269   12.1484  O     
5    C        39.3956   -1.1403   13.3004  C     
6    N        36.8431   -2.9310   11.8492  N     
7    O        37.2418    0.6794   12.0367  O     
8    O        38.1722    0.5383   14.6607  O     
9    C        40.2752   -1.9489   14.2995  C     
10   N        41.6067   -2.4980   13.8738  N     
11   C        41.6761   -3.1509   12.5274  C     
12   C        42.1083   -2.2175   11.3612  C     
13   C        43.4040   -1.4270   11.7037  C     
14   C        43.2447   -0.6856   13.0571  C     
15   C        42.8133   -1.6597   14.1812  C     
16   C        43.7872   -0.4832   10.6248  C     
17   O        42.9500    0.4960   10.2114  O     
18   O        45.0183   -0.5381   10.0684  O     
19   C        37.3116   -4.0837   12.4243  C     
20   C        36.5653   -5.2029   12.4762  C     
21   C        35.3154   -5.1710   11.9404  C     
22   N        34.8581   -4.0552   11.3779  N     
23   C        35.5970   -2.9482   11.3183  C     
24   O        35.0825   -1.9843   10.7646  O     
25   O        34.5970   -6.1596   11.9711  O     
26   H        37.6625   -1.4504   14.5968  H     
27   H        36.0887   -0.7298   12.9947  H     
28   H        37.6793   -1.3842   10.7503  H     
29   H        39.9445   -0.2614   12.9560  H     
30   H        36.3215    0.9998   11.9301  H     
31   H        38.4545    1.2163   14.0108  H     
32   H        40.4308   -1.3304   15.1898  H     
33   H        39.6786   -2.8026   14.6401  H     
34   H        41.7176   -3.2871   14.5165  H     
35   H        42.4111   -3.9571   12.5983  H     
36   H        40.7220   -3.6236   12.2771  H     
37   H        42.2792   -2.8220   10.4657  H     
38   H        41.3040   -1.5178   11.1339  H     
39   H        44.2152   -2.1529   11.8155  H     
40   H        44.1957   -0.2231   13.3357  H     
41   H        42.5056    0.1112   12.9696  H     
42   H        42.6746   -1.0923   15.1057  H     
43   H        43.6453   -2.3452   14.3670  H     
44   H        38.2171   -4.1229   12.8298  H     
45   H        36.9190   -6.0288   12.9054  H     
46   H        33.9661   -4.0507   10.9962  H     
@<TRIPOS>BOND
     1    1    2 1
     2    1    5 1
     3    1    8 1
     4    2    3 1
     5    2    7 1
     6    3    4 1
     7    3    6 1
     8    4    5 1
     9    5    9 1
    10    6   19 1
    11    6   23 1
    12    9   10 1
    13   10   11 1
    14   10   15 1
    15   11   12 1
    16   12   13 1
    17   13   14 1
    18   13   16 1
    19   14   15 1
    20   16   17 1
    21   16   18 2
    22   19   20 2
    23   20   21 1
    24   21   22 1
    25   21   25 2
    26   22   23 1
    27   23   24 2
    28    1   26 1
    29    2   27 1
    30    3   28 1
    31    5   29 1
    32    7   30 1
    33    8   31 1
    34    9   32 1
    35    9   33 1
    36   10   34 1
    37   11   35 1
    38   11   36 1
    39   12   37 1
    40   12   38 1
    41   13   39 1
    42   14   40 1
    43   14   41 1
    44   15   42 1
    45   15   43 1
    46   19   44 1
    47   20   45 1
    48   22   46 1
@<TRIPOS>PROPERTY_DATA
  Total_Score	| 3.0914
  Crash		| -0.5289
  Polar		| 3.5218
  FragIndex	| 1
  FragRMSD	| 1.173

