@<TRIPOS>MOLECULE
BindingDB_50118239
 36 37 0 0 0
SMALL
NO_CHARGES


@<TRIPOS>ATOM
1    C        37.5760   -1.6511   11.8950  C     
2    C        36.6691   -5.2036   12.3737  C     
3    C        37.3575   -4.0480   12.3863  C     
4    N        36.8409   -2.9049   11.8392  N     
5    C        35.6112   -2.9607   11.2768  C     
6    N        34.9296   -4.1050   11.2772  N     
7    C        35.4357   -5.2161   11.8031  C     
8    O        34.7663   -6.2392   11.7819  O     
9    O        35.0518   -1.9987   10.7694  O     
10   O        39.0015   -1.8021   11.9793  O     
11   C        39.5143   -0.5664   12.4843  C     
12   C        38.5214   -0.1644   13.5936  C     
13   C        37.1884   -0.7954   13.1296  C     
14   C        40.9855   -0.7463   12.9505  C     
15   O        41.8205    0.3800   12.6081  O     
16   O        36.1968    0.1760   12.7868  O     
17   O        38.4746    1.2519   13.7484  O     
18   P        42.3803    0.4613   11.1532  P     
19   O        43.5207   -0.4127   11.0663  O     
20   O        41.3954   -0.0196   10.0629  O     
21   O        42.9356    1.8711   10.8045  O     
22   P        42.1717    3.0623   11.4584  P     
23   O        42.2041    3.0352   13.0028  O     
24   O        40.8162    3.2175   10.9796  O     
25   O        42.9071    4.3445   11.0248  O     
26   H        37.3902   -1.0828   10.9711  H     
27   H        37.0565   -6.0283   12.7776  H     
28   H        38.2520   -4.0509   12.8178  H     
29   H        34.0448   -4.1307   10.8810  H     
30   H        39.4786    0.1743   11.6773  H     
31   H        38.8151   -0.6054   14.5544  H     
32   H        36.7932   -1.4338   13.9264  H     
33   H        40.9932   -0.8264   14.0363  H     
34   H        41.3754   -1.6913   12.5706  H     
35   H        35.5172    0.1081   13.4932  H     
36   H        37.8357    1.4125   14.4725  H     
@<TRIPOS>BOND
     1    1    4 1
     2    1   10 1
     3    1   13 1
     4    2    3 2
     5    2    7 1
     6    3    4 1
     7    4    5 1
     8    5    6 1
     9    5    9 2
    10    6    7 1
    11    7    8 2
    12   10   11 1
    13   11   12 1
    14   11   14 1
    15   12   13 1
    16   12   17 1
    17   13   16 1
    18   14   15 1
    19   15   18 1
    20   18   19 2
    21   18   20 1
    22   18   21 1
    23   21   22 1
    24   22   23 1
    25   22   24 2
    26   22   25 1
    27    1   26 1
    28    2   27 1
    29    3   28 1
    30    6   29 1
    31   11   30 1
    32   12   31 1
    33   13   32 1
    34   14   33 1
    35   14   34 1
    36   16   35 1
    37   17   36 1
@<TRIPOS>PROPERTY_DATA
  Total_Score	| 3.7014
  Crash		| -0.5341
  Polar		| 5.3244
  FragIndex	| 1
  FragRMSD	| 0.575

