@<TRIPOS>MOLECULE
BindingDB_50292716
 43 45 0 0 0
SMALL
NO_CHARGES


@<TRIPOS>ATOM
1    C        36.8103   -5.1041   12.3478  C     
2    C        37.4382   -3.9086   12.2493  C     
3    N        36.8368   -2.7967   11.7232  N     
4    C        35.5904   -2.9353   11.2217  C     
5    N        34.9576   -4.1020   11.3108  N     
6    C        35.5247   -5.1694   11.8643  C     
7    O        34.8518   -6.1894   11.9135  O     
8    O        34.9750   -2.0276   10.6760  O     
9    C        37.5168   -1.5014   11.6853  C     
10   O        38.9124   -1.5334   12.0522  O     
11   C        39.1138   -0.9531   13.3540  C     
12   C        37.7013   -0.6525   13.9094  C     
13   C        36.8888   -0.4529   12.6319  C     
14   O        37.6431    0.4867   14.7663  O     
15   C        39.9434   -1.8728   14.2985  C     
16   N        41.1422   -2.5942   13.7776  N     
17   C        42.3581   -1.8188   13.4529  C     
18   C        43.4005   -2.8916   13.0922  C     
19   C        42.9166   -4.1678   13.8123  C     
20   C        41.6325   -3.7499   14.5521  C     
21   C        37.5065   -6.2444   12.9387  C     
22   H        38.3760   -3.8553   12.5676  H     
23   H        34.0555   -4.1766   10.9630  H     
24   H        37.4793   -1.1247   10.6586  H     
25   H        39.6490   -0.0097   13.2138  H     
26   H        37.3028   -1.5168   14.4545  H     
27   H        37.0448    0.5556   12.2335  H     
28   H        35.8215   -0.6010   12.8134  H     
29   H        36.7174    0.4852   15.0991  H     
30   H        40.2754   -1.2683   15.1465  H     
31   H        39.2755   -2.6299   14.7101  H     
32   H        40.8349   -2.9866   12.8849  H     
33   H        42.1836   -1.1417   12.6144  H     
34   H        42.7186   -1.2461   14.3101  H     
35   H        43.4206   -3.0485   12.0115  H     
36   H        44.3998   -2.5967   13.4253  H     
37   H        42.6931   -4.9497   13.0839  H     
38   H        43.6685   -4.5440   14.5122  H     
39   H        41.8666   -3.4703   15.5817  H     
40   H        40.9033   -4.5604   14.5586  H     
41   H        38.4123   -6.4612   12.3676  H     
42   H        36.8998   -7.1524   12.9569  H     
43   H        37.7871   -6.0109   13.9684  H     
@<TRIPOS>BOND
     1    1    2 2
     2    1    6 1
     3    1   21 1
     4    2    3 1
     5    3    4 1
     6    9    3 1
     7    4    5 1
     8    4    8 2
     9    5    6 1
    10    6    7 2
    11    9   10 1
    12    9   13 1
    13   10   11 1
    14   11   12 1
    15   11   15 1
    16   12   13 1
    17   12   14 1
    18   15   16 1
    19   16   17 1
    20   16   20 1
    21   17   18 1
    22   18   19 1
    23   19   20 1
    24    2   22 1
    25    5   23 1
    26    9   24 1
    27   11   25 1
    28   12   26 1
    29   13   27 1
    30   13   28 1
    31   14   29 1
    32   15   30 1
    33   15   31 1
    34   16   32 1
    35   17   33 1
    36   17   34 1
    37   18   35 1
    38   18   36 1
    39   19   37 1
    40   19   38 1
    41   20   39 1
    42   20   40 1
    43   21   41 1
    44   21   42 1
    45   21   43 1
@<TRIPOS>PROPERTY_DATA
  Total_Score	| 1.9474
  Crash		| -0.2732
  Polar		| 2.7058
  FragIndex	| 1
  FragRMSD	| 0.571

