@<TRIPOS>MOLECULE
BindingDB_50292722
 32 33 0 0 0
SMALL
NO_CHARGES


@<TRIPOS>ATOM
1    O        41.1754    0.7225   13.9050  O     
2    C        40.6003   -0.5448   13.5981  C     
3    C        39.3593   -0.3946   12.6846  C     
4    C        38.1375    0.3074   13.3444  C     
5    O        37.9733    1.6122   12.7353  O     
6    C        36.9763   -0.6623   13.0277  C     
7    O        35.7759   -0.0114   12.6202  O     
8    C        37.5316   -1.5867   11.9242  C     
9    O        38.9227   -1.6941   12.2639  O     
10   N        36.8156   -2.8544   11.8550  N     
11   C        35.5821   -2.9283   11.3050  C     
12   O        35.0104   -1.9767   10.7886  O     
13   N        34.9172   -4.0828   11.3066  N     
14   C        35.4374   -5.1889   11.8310  C     
15   C        36.6796   -5.1625   12.3837  C     
16   C        37.3520   -3.9955   12.3906  C     
17   P        37.2387    2.7341   13.5289  P     
18   O        35.7667    2.4176   13.8657  O     
19   O        37.2404    3.9085   12.6947  O     
20   O        38.0060    3.0937   14.8162  O     
21   O        34.7804   -6.2192   11.8142  O     
22   H        40.5310    1.1665   14.4945  H     
23   H        41.3567   -1.1438   13.0878  H     
24   H        40.3301   -1.0512   14.5271  H     
25   H        39.6709    0.1492   11.7845  H     
26   H        38.2765    0.3629   14.4318  H     
27   H        36.7562   -1.2647   13.9160  H     
28   H        35.2935    0.1530   13.4570  H     
29   H        37.4799   -1.0863   10.9476  H     
30   H        34.0300   -4.1182   10.9177  H     
31   H        37.0797   -5.9800   12.7854  H     
32   H        38.2485   -3.9856   12.8191  H     
@<TRIPOS>BOND
     1    1    2 1
     2    3    2 1
     3    3    4 1
     4    3    9 1
     5    4    5 1
     6    4    6 1
     7    5   17 1
     8    6    7 1
     9    6    8 1
    10    8    9 1
    11    8   10 1
    12   10   11 1
    13   10   16 1
    14   11   12 2
    15   11   13 1
    16   13   14 1
    17   14   15 1
    18   14   21 2
    19   15   16 2
    20   17   18 1
    21   17   19 2
    22   17   20 1
    23    1   22 1
    24    2   23 1
    25    2   24 1
    26    3   25 1
    27    4   26 1
    28    6   27 1
    29    7   28 1
    30    8   29 1
    31   13   30 1
    32   15   31 1
    33   16   32 1
@<TRIPOS>PROPERTY_DATA
  Total_Score	| 4.7104
  Crash		| -0.3390
  Polar		| 6.1403
  FragIndex	| 1
  FragRMSD	| 0.770

