@<TRIPOS>MOLECULE
BindingDB_50292723
 32 33 0 0 0
SMALL
NO_CHARGES


@<TRIPOS>ATOM
1    O        41.3398   -1.9199   13.4291  O     
2    C        40.1250   -1.7575   14.1554  C     
3    C        39.1063   -0.9144   13.3549  C     
4    C        37.7130   -0.8097   14.0021  C     
5    O        37.6336    0.0704   15.1149  O     
6    C        36.8639   -0.4145   12.7783  C     
7    O        37.0624    0.9203   12.2448  O     
8    C        37.4617   -1.4091   11.7405  C     
9    O        38.8775   -1.4530   12.0403  O     
10   N        36.8007   -2.7162   11.7447  N     
11   C        35.5568   -2.8636   11.2326  C     
12   O        34.9334   -1.9526   10.7026  O     
13   N        34.9397   -4.0437   11.2915  N     
14   C        35.5224   -5.1102   11.8314  C     
15   O        34.9114   -6.1677   11.8697  O     
16   C        36.7871   -5.0198   12.3213  C     
17   C        37.4134   -3.8294   12.2589  C     
18   P        36.8839    2.1804   13.1443  P     
19   O        38.0049    2.2928   14.1952  O     
20   O        37.0798    3.4168   12.2504  O     
21   O        35.5872    2.2985   13.7629  O     
22   H        41.7520   -1.0298   13.4057  H     
23   H        39.7192   -2.7482   14.3658  H     
24   H        40.3487   -1.2660   15.1046  H     
25   H        39.5218    0.0921   13.2310  H     
26   H        37.3922   -1.7932   14.3622  H     
27   H        36.6805    0.0764   15.3547  H     
28   H        35.8008   -0.5974   12.9607  H     
29   H        37.3797   -0.9974   10.7286  H     
30   H        34.0434   -4.1288   10.9313  H     
31   H        37.2467   -5.8138   12.7056  H     
32   H        38.3409   -3.7862   12.6083  H     
@<TRIPOS>BOND
     1    1    2 1
     2    3    2 1
     3    3    4 1
     4    3    9 1
     5    4    5 1
     6    4    6 1
     7    6    7 1
     8    6    8 1
     9    7   18 1
    10    8    9 1
    11    8   10 1
    12   10   11 1
    13   10   17 1
    14   11   12 2
    15   11   13 1
    16   13   14 1
    17   14   15 2
    18   14   16 1
    19   16   17 2
    20   18   19 1
    21   18   20 1
    22   18   21 2
    23    1   22 1
    24    2   23 1
    25    2   24 1
    26    3   25 1
    27    4   26 1
    28    5   27 1
    29    6   28 1
    30    8   29 1
    31   13   30 1
    32   16   31 1
    33   17   32 1
@<TRIPOS>PROPERTY_DATA
  Total_Score	| 4.0636
  Crash		| -0.4066
  Polar		| 5.3259
  FragIndex	| 1
  FragRMSD	| 0.571

