@<TRIPOS>MOLECULE
BindingDB_7712
 43 45 0 0 0
SMALL
NO_CHARGES


@<TRIPOS>ATOM
1    C        -7.5848   49.6302   41.2631  C     
2    C        -6.7089   50.0221   42.3043  C     
3    C        -6.8737   51.3041   42.8948  C     
4    C        -7.9170   52.1628   42.4836  C     
5    C        -8.5851   50.5166   40.8201  C     
6    C        -9.4776   50.4423   39.7817  C     
7    C        -8.7606   51.7500   41.4379  C     
8    N        -9.7744   52.3658   40.7958  N     
9    C       -10.1982   51.5858   39.8210  C     
10   O       -11.0344   51.9460   39.0056  O     
11   N       -10.4347   49.2926   37.9446  N     
12   C       -10.4385   48.3953   36.9233  C     
13   C       -10.6134   46.5872   34.7299  C     
14   C       -11.7096   47.4144   35.0649  C     
15   C       -11.6147   48.3118   36.1459  C     
16   C        -9.3462   47.5552   36.5774  C     
17   C        -9.4301   46.6647   35.4927  C     
18   O       -11.8358   45.8583   32.3234  O     
19   S       -10.6919   45.4995   33.3665  S     
20   O        -9.3083   45.6469   32.5905  O     
21   N       -10.7839   43.8830   33.8111  N     
22   C        -9.5102   49.4275   38.8915  C     
23   N        -5.6194   49.2560   42.5570  N     
24   C        -4.3756   49.6544   41.9400  C     
25   C        -5.7763   47.9298   43.1276  C     
26   H        -7.4369   48.7431   40.7734  H     
27   H        -6.2397   51.6191   43.6304  H     
28   H        -8.0450   53.0840   42.9121  H     
29   H       -10.0971   53.2684   40.9667  H     
30   H       -11.2130   49.8687   38.0103  H     
31   H       -12.5826   47.3748   34.5259  H     
32   H       -12.4249   48.9055   36.3724  H     
33   H        -8.4655   47.5950   37.0986  H     
34   H        -8.6213   46.0846   35.2628  H     
35   H       -10.0821   43.2662   33.5411  H     
36   H       -11.5806   43.5442   34.2531  H     
37   H        -8.8316   48.7091   38.9669  H     
38   H        -4.5008   49.6473   40.8512  H     
39   H        -3.5496   48.9831   42.1714  H     
40   H        -4.0882   50.6642   42.2547  H     
41   H        -6.1073   48.0260   44.1673  H     
42   H        -4.8482   47.3555   43.1255  H     
43   H        -6.5162   47.3411   42.5793  H     
@<TRIPOS>BOND
     1    1    2 1
     2    1    5 2
     3    2    3 2
     4    2   23 1
     5    3    4 1
     6    4    7 2
     7    5    6 1
     8    5    7 1
     9    6    9 1
    10    6   22 2
    11    7    8 1
    12    8    9 1
    13    9   10 2
    14   11   12 1
    15   11   22 1
    16   12   15 2
    17   12   16 1
    18   13   14 2
    19   13   17 1
    20   13   19 1
    21   14   15 1
    22   16   17 2
    23   18   19 2
    24   19   20 2
    25   19   21 am
    26   23   24 1
    27   23   25 1
    28    1   26 1
    29    3   27 1
    30    4   28 1
    31    8   29 1
    32   11   30 1
    33   14   31 1
    34   15   32 1
    35   16   33 1
    36   17   34 1
    37   21   35 1
    38   21   36 1
    39   22   37 1
    40   24   38 1
    41   24   39 1
    42   24   40 1
    43   25   41 1
    44   25   42 1
    45   25   43 1
@<TRIPOS>PROPERTY_DATA
  Total_Score	| 6.2628
  Crash		| -2.6394
  Polar		| 2.2324
  FragIndex	| 1
  FragRMSD	| 0.723

