@<TRIPOS>MOLECULE
BindingDB_7762
 38 40 0 0 0
SMALL
NO_CHARGES


@<TRIPOS>ATOM
1    C        -8.1452   52.4589   42.7475  C     
2    C        -8.7089   50.6597   41.1842  C     
3    C        -9.4756   50.5329   40.0493  C     
4    C        -8.8411   51.9778   41.6220  C     
5    N        -9.6803   52.5950   40.7849  N     
6    C       -10.0656   51.7424   39.8553  C     
7    O       -10.7906   52.0816   38.9298  O     
8    N       -10.3475   49.3111   38.2181  N     
9    C       -10.2829   48.4086   37.2062  C     
10   C       -10.3011   46.5522   35.0314  C     
11   C        -9.1934   46.6168   35.9136  C     
12   C        -9.1852   47.5338   36.9856  C     
13   C       -11.3747   48.3474   36.3085  C     
14   C       -11.3944   47.4209   35.2468  C     
15   O       -11.5102   45.6266   32.7129  O     
16   S       -10.2724   45.4393   33.6918  S     
17   O        -9.0206   45.8221   32.7902  O     
18   C        -7.3077   51.5651   43.4494  C     
19   C        -9.5353   49.4326   39.2650  C     
20   N       -10.2054   43.8026   34.1107  N     
21   C        -7.1829   50.2243   43.0323  C     
22   C        -7.8822   49.7600   41.8949  C     
23   C        -8.9892   43.1487   34.4371  C     
24   H        -8.2323   53.4337   43.0338  H     
25   H        -9.9543   53.5239   40.8438  H     
26   H       -11.0980   49.9274   38.1772  H     
27   H        -8.3816   46.0085   35.7637  H     
28   H        -8.3589   47.5767   37.5973  H     
29   H       -12.1851   48.9675   36.4439  H     
30   H       -12.2104   47.3958   34.6281  H     
31   H        -6.7803   51.8990   44.2622  H     
32   H        -8.9757   48.6548   39.5014  H     
33   H       -11.0254   43.3890   34.4193  H     
34   H        -6.5716   49.5845   43.5456  H     
35   H        -7.7824   48.7878   41.5940  H     
36   H        -8.1822   43.4422   33.7572  H     
37   H        -9.1324   42.0673   34.3538  H     
38   H        -8.7045   43.3857   35.4668  H     
@<TRIPOS>BOND
     1    1    4 2
     2    1   18 1
     3    2    3 1
     4    2    4 1
     5    2   22 2
     6    3    6 1
     7    3   19 2
     8    4    5 1
     9    5    6 1
    10    6    7 2
    11    8    9 1
    12    8   19 1
    13    9   12 2
    14    9   13 1
    15   10   11 2
    16   10   14 1
    17   10   16 1
    18   11   12 1
    19   13   14 2
    20   15   16 2
    21   16   17 2
    22   16   20 1
    23   18   21 2
    24   20   23 1
    25   21   22 1
    26    1   24 1
    27    5   25 1
    28    8   26 1
    29   11   27 1
    30   12   28 1
    31   13   29 1
    32   14   30 1
    33   18   31 1
    34   19   32 1
    35   20   33 1
    36   21   34 1
    37   22   35 1
    38   23   36 1
    39   23   37 1
    40   23   38 1
@<TRIPOS>PROPERTY_DATA
  Total_Score	| 7.9797
  Crash		| -0.4122
  Polar		| 2.9592
  FragIndex	| 1
  FragRMSD	| 0.545

