@<TRIPOS>MOLECULE
BindingDB_7719
 49 51 0 0 0
SMALL
NO_CHARGES


@<TRIPOS>ATOM
1    C        -7.8510   49.4715   41.5540  C     
2    C        -7.0918   49.7454   42.7263  C     
3    C        -7.2844   51.0094   43.3566  C     
4    C        -8.1374   51.9890   42.8068  C     
5    C        -8.7009   50.4470   41.0107  C     
6    C        -9.4977   50.4548   39.8916  C     
7    C        -8.8359   51.6896   41.6197  C     
8    N        -9.6907   52.4070   40.8799  N     
9    C       -10.0690   51.6787   39.8485  C     
10   O       -10.8032   52.1117   38.9734  O     
11   N       -10.5371   49.3278   38.0724  N     
12   C       -10.5150   48.4318   37.0512  C     
13   C       -10.6231   46.6250   34.8510  C     
14   C       -11.7134   47.4740   35.1307  C     
15   C       -11.6527   48.3699   36.2155  C     
16   C        -9.4303   47.5631   36.7591  C     
17   C        -9.4808   46.6770   35.6732  C     
18   O        -9.2351   45.7667   32.6789  O     
19   S       -10.6080   45.5842   33.4602  S     
20   O       -10.6394   44.0810   33.9791  O     
21   N       -11.9006   45.7768   32.4053  N     
22   C        -9.6620   49.3979   39.0748  C     
23   C        -6.2411   48.7620   43.2564  C     
24   O        -6.0756   48.7166   44.4730  O     
25   C        -5.4001   47.8751   42.4303  C     
26   C        -5.0764   46.4453   42.9936  C     
27   C        -6.2308   45.7707   43.7939  C     
28   C        -4.6129   45.4897   41.8465  C     
29   H        -7.8057   48.5492   41.1135  H     
30   H        -6.7673   51.2378   44.2172  H     
31   H        -8.2411   52.8986   43.2632  H     
32   H        -9.9642   53.3285   41.0510  H     
33   H       -11.2866   49.9415   38.0965  H     
34   H       -12.5540   47.4547   34.5497  H     
35   H       -12.4558   48.9850   36.3961  H     
36   H        -8.5709   47.5894   37.3019  H     
37   H        -8.6745   46.0778   35.4784  H     
38   H       -12.5709   45.0773   32.3424  H     
39   H       -12.1184   46.6721   32.1033  H     
40   H        -9.1410   48.5873   39.2844  H     
41   H        -5.8242   47.7751   41.4249  H     
42   H        -4.4415   48.3794   42.2770  H     
43   H        -4.2292   46.5506   43.6878  H     
44   H        -6.3730   46.2916   44.7403  H     
45   H        -5.9745   44.7317   44.0466  H     
46   H        -7.1668   45.7877   43.2175  H     
47   H        -5.4495   45.2779   41.1702  H     
48   H        -4.2472   44.5425   42.2651  H     
49   H        -3.7990   45.9460   41.2729  H     
@<TRIPOS>BOND
     1    1    2 1
     2    1    5 2
     3    2    3 2
     4    2   23 1
     5    3    4 1
     6    4    7 2
     7    5    6 1
     8    5    7 1
     9    6    9 1
    10    6   22 2
    11    7    8 1
    12    8    9 1
    13    9   10 2
    14   11   12 1
    15   11   22 1
    16   12   15 2
    17   12   16 1
    18   13   14 2
    19   13   17 1
    20   13   19 1
    21   14   15 1
    22   16   17 2
    23   18   19 2
    24   19   20 2
    25   19   21 am
    26   23   24 2
    27   23   25 1
    28   25   26 1
    29   26   27 1
    30   26   28 1
    31    1   29 1
    32    3   30 1
    33    4   31 1
    34    8   32 1
    35   11   33 1
    36   14   34 1
    37   15   35 1
    38   16   36 1
    39   17   37 1
    40   21   38 1
    41   21   39 1
    42   22   40 1
    43   25   41 1
    44   25   42 1
    45   26   43 1
    46   27   44 1
    47   27   45 1
    48   27   46 1
    49   28   47 1
    50   28   48 1
    51   28   49 1
@<TRIPOS>PROPERTY_DATA
  Total_Score	| 9.7401
  Crash		| -1.7385
  Polar		| 4.7621
  FragIndex	| 1
  FragRMSD	| 0.991

