@<TRIPOS>MOLECULE
BindingDB_7764
 41 44 0 0 0
SMALL
NO_CHARGES


@<TRIPOS>ATOM
1    C        -8.1915   52.5157   42.7501  C     
2    C        -8.6577   50.6642   41.2184  C     
3    C        -9.3855   50.4865   40.0634  C     
4    C        -8.8319   51.9911   41.6166  C     
5    N        -9.6613   52.5650   40.7360  N     
6    C       -10.0000   51.6756   39.8303  C     
7    O       -10.7488   51.9643   38.9041  O     
8    N       -10.1845   49.2166   38.2303  N     
9    C       -10.1713   48.2447   37.2788  C     
10   C       -10.2415   46.3705   35.1086  C     
11   C       -11.2207   47.3810   35.2272  C     
12   C       -11.1793   48.3111   36.2839  C     
13   C        -9.2152   47.2024   37.1812  C     
14   C        -9.2483   46.2864   36.1093  C     
15   O       -11.5665   45.4393   32.9066  O     
16   S       -10.2167   45.2865   33.7456  S     
17   O        -9.0601   45.7484   32.7409  O     
18   C        -7.3680   51.6663   43.5150  C     
19   C        -9.4096   49.3620   39.3143  C     
20   N        -9.9241   43.6843   34.1745  N     
21   C        -7.2059   50.3133   43.1445  C     
22   C        -7.8465   49.8066   41.9929  C     
23   C       -10.6403   42.6043   33.7992  C     
24   C       -12.2042   41.2462   32.8007  C     
25   C       -11.5200   40.2492   33.4916  C     
26   S       -10.2494   41.0198   34.3507  S     
27   N       -11.7001   42.5106   32.9681  N     
28   H        -8.3080   53.4969   43.0075  H     
29   H        -9.9667   53.4895   40.7666  H     
30   H       -10.8589   49.9033   38.1001  H     
31   H       -11.9728   47.4584   34.5410  H     
32   H       -11.8874   49.0496   36.3190  H     
33   H        -8.4648   47.1217   37.8661  H     
34   H        -8.5327   45.5635   36.0626  H     
35   H        -6.8872   52.0292   44.3429  H     
36   H        -8.8488   48.5942   39.5990  H     
37   H        -9.1656   43.5225   34.7536  H     
38   H        -6.6176   49.6992   43.7110  H     
39   H        -7.7212   48.8275   41.7346  H     
40   H       -13.0076   41.0588   32.2088  H     
41   H       -11.7350   39.2508   33.4885  H     
@<TRIPOS>BOND
     1    1    4 2
     2    1   18 1
     3    2    3 1
     4    2    4 1
     5    2   22 2
     6    3    6 1
     7    3   19 2
     8    4    5 1
     9    5    6 1
    10    6    7 2
    11    8    9 1
    12    8   19 1
    13    9   12 2
    14    9   13 1
    15   10   11 2
    16   10   14 1
    17   10   16 1
    18   11   12 1
    19   13   14 2
    20   15   16 2
    21   16   17 2
    22   16   20 1
    23   18   21 2
    24   20   23 1
    25   21   22 1
    26   23   26 1
    27   23   27 2
    28   24   25 2
    29   24   27 1
    30   25   26 1
    31    1   28 1
    32    5   29 1
    33    8   30 1
    34   11   31 1
    35   12   32 1
    36   13   33 1
    37   14   34 1
    38   18   35 1
    39   19   36 1
    40   20   37 1
    41   21   38 1
    42   22   39 1
    43   24   40 1
    44   25   41 1
@<TRIPOS>PROPERTY_DATA
  Total_Score	| 8.0677
  Crash		| -0.5347
  Polar		| 3.8746
  FragIndex	| 1
  FragRMSD	| 0.664

