@<TRIPOS>MOLECULE
BindingDB_7732
 39 41 0 0 0
SMALL
NO_CHARGES


@<TRIPOS>ATOM
1    C        -8.0019   49.7340   41.9554  C     
2    C        -7.2003   50.2002   43.0144  C     
3    C        -7.9679   52.4818   42.6293  C     
4    C        -8.7731   50.6534   41.2202  C     
5    C        -9.5707   50.5353   40.1077  C     
6    C        -8.7819   51.9962   41.5905  C     
7    N        -9.6206   52.6304   40.7631  N     
8    C       -10.0950   51.7647   39.8892  C     
9    O       -10.8423   52.1028   38.9824  O     
10   N       -10.4649   49.3308   38.2768  N     
11   C       -10.4190   48.4107   37.2697  C     
12   C       -10.4313   46.6070   35.0597  C     
13   C        -9.3924   46.5642   36.0087  C     
14   C        -9.3937   47.4427   37.1118  C     
15   C       -11.4581   48.4362   36.3190  C     
16   C       -11.4674   47.5490   35.2260  C     
17   O        -9.0525   45.8744   32.8298  O     
18   S       -10.3789   45.5748   33.6574  S     
19   O       -10.2692   44.0642   34.1468  O     
20   N       -11.7068   45.6921   32.6283  N     
21   C        -7.1245   51.5821   43.3238  C     
22   C        -6.1277   52.0389   44.3260  C     
23   O        -5.6279   53.3507   44.1013  O     
24   C        -9.6779   49.4214   39.3447  C     
25   H        -8.0037   48.7397   41.7179  H     
26   H        -6.6247   49.5244   43.5282  H     
27   H        -7.9754   53.4817   42.8448  H     
28   H        -9.8356   53.5791   40.7895  H     
29   H       -11.1618   50.0047   38.1975  H     
30   H        -8.6260   45.8986   35.8953  H     
31   H        -8.6108   47.3967   37.7600  H     
32   H       -12.2241   49.1161   36.4138  H     
33   H       -12.2414   47.5994   34.5571  H     
34   H       -12.1240   44.8893   32.2670  H     
35   H       -12.0021   46.5679   32.3244  H     
36   H        -6.5562   51.9770   45.3283  H     
37   H        -5.2583   51.3812   44.2784  H     
38   H        -6.3893   53.9532   44.2286  H     
39   H        -9.1276   48.6359   39.5902  H     
@<TRIPOS>BOND
     1    1    2 1
     2    1    4 2
     3    2   21 2
     4    3    6 2
     5    3   21 1
     6    4    5 1
     7    4    6 1
     8    5    8 1
     9    5   24 2
    10    6    7 1
    11    7    8 1
    12    8    9 2
    13   10   11 1
    14   10   24 1
    15   11   14 2
    16   11   15 1
    17   12   13 2
    18   12   16 1
    19   12   18 1
    20   13   14 1
    21   15   16 2
    22   17   18 2
    23   18   19 2
    24   18   20 am
    25   21   22 1
    26   22   23 1
    27    1   25 1
    28    2   26 1
    29    3   27 1
    30    7   28 1
    31   10   29 1
    32   13   30 1
    33   14   31 1
    34   15   32 1
    35   16   33 1
    36   20   34 1
    37   20   35 1
    38   22   36 1
    39   22   37 1
    40   23   38 1
    41   24   39 1
@<TRIPOS>PROPERTY_DATA
  Total_Score	| 9.4998
  Crash		| -1.3163
  Polar		| 4.8188
  FragIndex	| 1
  FragRMSD	| 0.894

