@<TRIPOS>MOLECULE
BindingDB_7763
 50 52 0 0 0
SMALL
NO_CHARGES


@<TRIPOS>ATOM
1    C        -8.1311   52.4879   42.7463  C     
2    C        -8.6913   50.6620   41.2170  C     
3    C        -9.4645   50.5208   40.0852  C     
4    C        -8.8294   51.9837   41.6388  C     
5    N        -9.6744   52.5900   40.8014  N     
6    C       -10.0535   51.7291   39.8827  C     
7    O       -10.7773   52.0549   38.9515  O     
8    N       -10.3373   49.2822   38.2687  N     
9    C       -10.2734   48.3652   37.2650  C     
10   C       -10.2821   46.5069   35.1071  C     
11   C       -11.3641   47.3949   35.2928  C     
12   C       -11.3534   48.3167   36.3544  C     
13   C        -9.1902   47.4700   37.0779  C     
14   C        -9.1932   46.5538   36.0020  C     
15   O       -11.5633   45.4006   32.8790  O     
16   S       -10.2402   45.3992   33.7643  S     
17   O        -9.0758   45.9123   32.8075  O     
18   C        -7.2807   51.6165   43.4581  C     
19   C        -9.5299   49.4096   39.3189  C     
20   N        -9.8902   43.8278   34.2673  N     
21   C        -7.1524   50.2647   43.0611  C     
22   C        -7.8586   49.7793   41.9402  C     
23   C        -8.6693   43.1645   33.9475  C     
24   C        -8.0699   42.4625   35.1904  C     
25   N        -6.5960   42.2068   35.0814  N     
26   C        -6.0517   41.5500   36.3061  C     
27   C        -6.1927   41.4767   33.8430  C     
28   H        -8.2295   53.4683   43.0174  H     
29   H        -9.9368   53.5252   40.8452  H     
30   H       -11.0803   49.9065   38.2215  H     
31   H       -12.1620   47.3816   34.6529  H     
32   H       -12.1458   48.9578   36.4668  H     
33   H        -8.3752   47.4938   37.7006  H     
34   H        -8.3896   45.9299   35.8706  H     
35   H        -6.7543   51.9663   44.2583  H     
36   H        -8.9751   48.6303   39.5742  H     
37   H       -10.6040   43.3128   34.6789  H     
38   H        -6.5394   49.6388   43.5881  H     
39   H        -7.7646   48.7979   41.6664  H     
40   H        -8.8821   42.4219   33.1764  H     
41   H        -7.9346   43.8744   33.5569  H     
42   H        -8.2497   43.1177   36.0487  H     
43   H        -8.6124   41.5301   35.3714  H     
44   H        -6.1493   43.1253   35.0316  H     
45   H        -6.3226   42.1134   37.2038  H     
46   H        -4.9608   41.5215   36.2646  H     
47   H        -6.4295   40.5302   36.4080  H     
48   H        -6.7184   40.5213   33.7581  H     
49   H        -5.1163   41.2810   33.8418  H     
50   H        -6.4042   42.0773   32.9579  H     
@<TRIPOS>BOND
     1    1    4 2
     2    1   18 1
     3    2    3 1
     4    2    4 1
     5    2   22 2
     6    3    6 1
     7    3   19 2
     8    4    5 1
     9    5    6 1
    10    6    7 2
    11    8    9 1
    12    8   19 1
    13    9   12 2
    14    9   13 1
    15   10   11 2
    16   10   14 1
    17   10   16 1
    18   11   12 1
    19   13   14 2
    20   15   16 2
    21   16   17 2
    22   16   20 1
    23   18   21 2
    24   20   23 1
    25   21   22 1
    26   23   24 1
    27   24   25 1
    28   25   26 1
    29   25   27 1
    30    1   28 1
    31    5   29 1
    32    8   30 1
    33   11   31 1
    34   12   32 1
    35   13   33 1
    36   14   34 1
    37   18   35 1
    38   19   36 1
    39   20   37 1
    40   21   38 1
    41   22   39 1
    42   23   40 1
    43   23   41 1
    44   24   42 1
    45   24   43 1
    46   25   44 1
    47   26   45 1
    48   26   46 1
    49   26   47 1
    50   27   48 1
    51   27   49 1
    52   27   50 1
@<TRIPOS>PROPERTY_DATA
  Total_Score	| 10.4566
  Crash		| -0.6853
  Polar		| 5.2031
  FragIndex	| 1
  FragRMSD	| 0.602

