@<TRIPOS>MOLECULE
BindingDB_12013
 34 35 0 0 0
SMALL
NO_CHARGES


@<TRIPOS>ATOM
1    C        -0.0649    8.7028   13.8643  C     
2    C         0.2421    9.8030   14.6856  C     
3    C        -0.4549    9.9940   15.8895  C     
4    C        -1.4750    9.0973   16.2583  C     
5    C        -1.7740    7.9916   15.4384  C     
6    C        -1.0625    7.7680   14.2328  C     
7    C        -1.3551    6.6333   13.3132  C     
8    N        -2.1104    5.5798   13.9197  N     
9    C        -3.4221    5.3700   13.8347  C     
10   O        -4.0894    6.1042   13.1125  O     
11   C        -4.0576    4.3683   14.5871  C     
12   C        -5.4739    4.2666   14.6108  C     
13   C        -3.3286    3.4233   15.3571  C     
14   C        -3.9789    2.4077   16.0813  C     
15   C        -5.3837    2.3244   16.0808  C     
16   C        -6.1282    3.2622   15.3438  C     
17   S        -6.1763    1.0621   16.9746  S     
18   O        -6.0631   -0.2518   16.0892  O     
19   O        -5.4138    0.8216   18.3481  O     
20   N        -7.8126    1.3418   17.2262  N     
21   H         0.4539    8.5861   12.9892  H     
22   H         0.9728   10.4621   14.4083  H     
23   H        -0.2272   10.7879   16.4929  H     
24   H        -2.0023    9.2548   17.1215  H     
25   H        -2.5227    7.3620   15.7248  H     
26   H        -1.8478    7.0305   12.4243  H     
27   H        -0.4208    6.1846   12.9824  H     
28   H        -1.6158    5.0133   14.5283  H     
29   H        -6.0564    4.9304   14.0944  H     
30   H        -2.3075    3.4483   15.4026  H     
31   H        -3.4169    1.7266   16.5989  H     
32   H        -7.1477    3.2141   15.3201  H     
33   H        -8.3797    0.6147   17.5333  H     
34   H        -8.1724    2.2371   17.1442  H     
@<TRIPOS>BOND
     1    1    2 2
     2    1    6 1
     3    2    3 1
     4    3    4 2
     5    4    5 1
     6    5    6 2
     7    6    7 1
     8    7    8 1
     9    8    9 am
    10    9   10 2
    11    9   11 1
    12   11   12 1
    13   11   13 2
    14   12   16 2
    15   13   14 1
    16   14   15 2
    17   15   16 1
    18   15   17 1
    19   17   18 2
    20   17   19 2
    21   17   20 am
    22    1   21 1
    23    2   22 1
    24    3   23 1
    25    4   24 1
    26    5   25 1
    27    7   26 1
    28    7   27 1
    29    8   28 1
    30   12   29 1
    31   13   30 1
    32   14   31 1
    33   16   32 1
    34   20   33 1
    35   20   34 1
@<TRIPOS>PROPERTY_DATA
  Total_Score	| 5.8904
  Crash		| -1.1160
  Polar		| 2.6764
  FragIndex	| 1
  FragRMSD	| 0.891

