@<TRIPOS>MOLECULE
BindingDB_12015
 34 35 0 0 0
SMALL
NO_CHARGES


@<TRIPOS>ATOM
1    C        -1.7435    7.8573   15.3318  C     
2    C        -1.4255    8.9500   16.1616  C     
3    C        -0.4385    9.8742   15.7727  C     
4    C         0.2123    9.7155   14.5336  C     
5    C        -0.1175    8.6326   13.7007  C     
6    F        -0.1236   10.8612   16.5626  F     
7    C        -1.0893    7.6791   14.0919  C     
8    C        -1.3882    6.5354   13.1786  C     
9    N        -2.1618    5.4871   13.7548  N     
10   C        -3.4883    5.3927   13.8231  C     
11   O        -4.1623    6.2619   13.2774  O     
12   C        -4.1256    4.3687   14.5426  C     
13   C        -5.5384    4.2484   14.5652  C     
14   C        -3.3818    3.4322   15.3092  C     
15   C        -4.0135    2.4236   16.0536  C     
16   C        -5.4174    2.3287   16.0729  C     
17   C        -6.1783    3.2496   15.3262  C     
18   S        -6.1889    1.0801   17.0069  S     
19   O        -5.9464   -0.2407   16.1569  O     
20   O        -5.4557    0.7960   18.3889  O     
21   N        -7.8612    1.1592   17.1628  N     
22   H        -2.4666    7.2083   15.6327  H     
23   H        -1.9092    9.0638   17.0542  H     
24   H         0.9391   10.3775   14.2473  H     
25   H         0.3644    8.5391   12.8014  H     
26   H        -1.8681    6.9270   12.2749  H     
27   H        -0.4406    6.0895   12.8742  H     
28   H        -1.6490    4.7556   14.1360  H     
29   H        -6.1341    4.8804   14.0267  H     
30   H        -2.3637    3.4708   15.3453  H     
31   H        -3.4387    1.7699   16.5906  H     
32   H        -7.2005    3.2012   15.3390  H     
33   H        -8.4016    0.3976   16.9009  H     
34   H        -8.2937    2.0097   17.3610  H     
@<TRIPOS>BOND
     1    1    2 2
     2    1    7 1
     3    2    3 1
     4    3    4 2
     5    3    6 1
     6    4    5 1
     7    5    7 2
     8    7    8 1
     9    8    9 1
    10    9   10 am
    11   10   11 2
    12   10   12 1
    13   12   13 1
    14   12   14 2
    15   13   17 2
    16   14   15 1
    17   15   16 2
    18   16   17 1
    19   16   18 1
    20   18   19 2
    21   18   20 2
    22   18   21 am
    23    1   22 1
    24    2   23 1
    25    4   24 1
    26    5   25 1
    27    8   26 1
    28    8   27 1
    29    9   28 1
    30   13   29 1
    31   14   30 1
    32   15   31 1
    33   17   32 1
    34   21   33 1
    35   21   34 1
@<TRIPOS>PROPERTY_DATA
  Total_Score	| 5.9829
  Crash		| -0.9779
  Polar		| 2.5644
  FragIndex	| 1
  FragRMSD	| 0.884

