@<TRIPOS>MOLECULE
BindingDB_28435
 47 49 0 0 0
SMALL
NO_CHARGES


@<TRIPOS>ATOM
1    O       -16.3512   -6.9968    4.4230  O     
2    O       -13.3005   -6.8420    4.1478  O     
3    O       -14.0603   -4.1854    4.8841  O     
4    C       -16.4144  -10.2105   10.0440  C     
5    N       -17.1298   -4.7184    4.3742  N     
6    N       -16.8766   -9.2659    6.4327  N     
7    N       -18.3378   -2.8568    4.2015  N     
8    N       -18.8268   -6.0552    5.5916  N     
9    N       -20.8403   -4.8882    5.9823  N     
10   N       -21.1685   -2.6878    5.2699  N     
11   C       -15.3287   -7.6586    5.1899  C     
12   C       -14.1551   -6.6497    5.2825  C     
13   C       -14.8870   -5.3004    5.2280  C     
14   C       -16.0144   -5.6120    4.2286  C     
15   C       -15.8967   -8.1290    6.5605  C     
16   C       -18.3230   -4.9536    4.9604  C     
17   C       -17.1668   -3.4445    3.9141  C     
18   C       -16.7873  -10.2790    7.5426  C     
19   C       -19.0727   -3.7817    4.8444  C     
20   C       -18.2743   -8.8079    6.1922  C     
21   C       -17.2489   -9.7811    8.9470  C     
22   C       -20.3718   -3.7608    5.3793  C     
23   C       -20.0813   -6.0124    6.1067  C     
24   N       -16.9135  -10.4182   11.2493  N     
25   O       -15.1927  -10.1998    9.9332  O     
26   H       -12.4692   -6.3902    4.3671  H     
27   H       -13.2331   -4.5300    4.4790  H     
28   H       -16.6054   -9.7731    5.5883  H     
29   H       -20.8412   -1.8883    4.8264  H     
30   H       -22.0687   -2.7096    5.6317  H     
31   H       -14.9948   -8.5461    4.6503  H     
32   H       -13.5750   -6.7608    6.2064  H     
33   H       -15.3176   -5.0904    6.2158  H     
34   H       -15.6253   -5.5276    3.2094  H     
35   H       -16.3368   -7.2732    7.0839  H     
36   H       -15.0416   -8.4580    7.1620  H     
37   H       -16.4107   -2.9714    3.4190  H     
38   H       -17.3710  -11.1634    7.2682  H     
39   H       -15.7529  -10.6273    7.5873  H     
40   H       -18.6378   -8.2221    7.0470  H     
41   H       -18.9521   -9.6625    6.0495  H     
42   H       -18.3252   -8.1873    5.2909  H     
43   H       -18.2851  -10.1062    9.1113  H     
44   H       -17.2615   -8.6897    8.9634  H     
45   H       -20.4678   -6.8344    6.5624  H     
46   H       -16.3077  -10.4889   11.9998  H     
47   H       -17.8744  -10.3931   11.4002  H     
@<TRIPOS>BOND
     1    1   11 1
     2    1   14 1
     3   12    2 1
     4   13    3 1
     5    4   21 1
     6    4   24 am
     7    4   25 2
     8   14    5 1
     9    5   16 1
    10    5   17 1
    11    6   15 1
    12    6   18 1
    13    6   20 1
    14    7   17 2
    15    7   19 1
    16    8   16 1
    17    8   23 2
    18    9   22 2
    19    9   23 1
    20   10   22 1
    21   11   12 1
    22   11   15 1
    23   12   13 1
    24   13   14 1
    25   16   19 2
    26   18   21 1
    27   19   22 1
    28    2   26 1
    29    3   27 1
    30    6   28 1
    31   10   29 1
    32   10   30 1
    33   11   31 1
    34   12   32 1
    35   13   33 1
    36   14   34 1
    37   15   35 1
    38   15   36 1
    39   17   37 1
    40   18   38 1
    41   18   39 1
    42   20   40 1
    43   20   41 1
    44   20   42 1
    45   21   43 1
    46   21   44 1
    47   23   45 1
    48   24   46 1
    49   24   47 1
@<TRIPOS>PROPERTY_DATA
  Total_Score	| 9.9606
  Crash		| -2.0832
  Polar		| 8.0240
  FragIndex	| 1
  FragRMSD	| 0.546

