@<TRIPOS>MOLECULE
BindingDB_28429
 59 61 0 0 0
SMALL
NO_CHARGES


@<TRIPOS>ATOM
1    O       -16.4186   -6.9781    4.4195  O     
2    O       -13.2738   -6.8912    4.1641  O     
3    O       -14.0465   -4.3284    3.9594  O     
4    C       -19.3044   -8.7010    8.2458  C     
5    N       -17.2499   -4.7300    4.0976  N     
6    N       -16.4010   -9.2061    6.8381  N     
7    N       -18.4906   -2.8842    4.0360  N     
8    N       -18.9433   -6.1277    5.2480  N     
9    N       -20.8984   -4.9619    5.8598  N     
10   N       -21.1909   -2.6984    5.3661  N     
11   C       -20.6350   -8.8331    9.0298  C     
12   C       -15.3595   -7.4826    5.2522  C     
13   C       -14.1982   -6.4682    5.1719  C     
14   C       -14.8847   -5.1581    4.7676  C     
15   C       -16.1314   -5.6365    3.9795  C     
16   C       -15.9212   -7.7931    6.6770  C     
17   C       -18.4287   -4.9944    4.7005  C     
18   C       -17.3254   -3.4424    3.6485  C     
19   C       -16.8266   -9.5630    8.2408  C     
20   C       -19.1772   -3.8233    4.6913  C     
21   C       -17.3263   -9.7006    5.7744  C     
22   C       -16.3316   -2.6912    2.8400  C     
23   C       -18.3209   -9.8550    8.5552  C     
24   C       -20.4355   -3.8064    5.3150  C     
25   C       -20.1847   -6.1219    5.8032  C     
26   O       -21.4841   -7.6821    8.9751  O     
27   N       -20.8342   -6.4979    9.1317  N     
28   C       -16.9258   -1.7984    1.7261  C     
29   H       -12.4315   -6.4525    4.3802  H     
30   H       -13.1210   -4.5203    4.2194  H     
31   H       -19.5315   -8.7022    7.1877  H     
32   H       -18.8262   -7.7463    8.4792  H     
33   H       -15.5566   -9.7566    6.6897  H     
34   H       -20.8727   -1.8725    4.9669  H     
35   H       -22.0579   -2.7260    5.8015  H     
36   H       -21.2178   -9.6545    8.6025  H     
37   H       -20.4374   -9.0895   10.0698  H     
38   H       -15.0050   -8.4266    4.8312  H     
39   H       -13.6579   -6.3622    6.1191  H     
40   H       -15.1785   -4.6064    5.6701  H     
41   H       -15.8751   -5.7316    2.9187  H     
42   H       -16.7108   -7.0824    6.9235  H     
43   H       -15.1147   -7.6299    7.3993  H     
44   H       -16.2686  -10.4658    8.5026  H     
45   H       -16.4849   -8.8002    8.9470  H     
46   H       -18.2230   -9.0919    5.7015  H     
47   H       -17.6160  -10.7308    5.9643  H     
48   H       -16.8298   -9.6885    4.8032  H     
49   H       -15.7474   -2.0628    3.5139  H     
50   H       -15.6513   -3.4032    2.3602  H     
51   H       -18.4011  -10.1026    9.6178  H     
52   H       -18.6375  -10.7430    7.9996  H     
53   H       -20.5860   -6.9817    6.1842  H     
54   H       -20.3258   -6.4869   10.0201  H     
55   H       -21.5189   -5.7424    9.1176  H     
56   H       -20.1732   -6.3593    8.3649  H     
57   H       -17.5571   -2.3852    1.0558  H     
58   H       -16.1186   -1.3568    1.1389  H     
59   H       -17.5184   -0.9890    2.1612  H     
@<TRIPOS>BOND
     1    1   12 1
     2    1   15 1
     3   13    2 1
     4   14    3 1
     5    4   11 1
     6    4   23 1
     7   15    5 1
     8    5   17 1
     9    5   18 1
    10    6   16 1
    11    6   19 1
    12    6   21 1
    13    7   18 2
    14    7   20 1
    15    8   17 1
    16    8   25 2
    17    9   24 2
    18    9   25 1
    19   10   24 1
    20   11   26 1
    21   12   13 1
    22   12   16 1
    23   13   14 1
    24   14   15 1
    25   17   20 2
    26   18   22 1
    27   19   23 1
    28   20   24 1
    29   22   28 1
    30   26   27 1
    31    2   29 1
    32    3   30 1
    33    4   31 1
    34    4   32 1
    35    6   33 1
    36   10   34 1
    37   10   35 1
    38   11   36 1
    39   11   37 1
    40   12   38 1
    41   13   39 1
    42   14   40 1
    43   15   41 1
    44   16   42 1
    45   16   43 1
    46   19   44 1
    47   19   45 1
    48   21   46 1
    49   21   47 1
    50   21   48 1
    51   22   49 1
    52   22   50 1
    53   23   51 1
    54   23   52 1
    55   25   53 1
    56   27   54 1
    57   27   55 1
    58   27   56 1
    59   28   57 1
    60   28   58 1
    61   28   59 1
@<TRIPOS>PROPERTY_DATA
  Total_Score	| 8.2746
  Crash		| -2.0837
  Polar		| 6.1865
  FragIndex	| 1
  FragRMSD	| 0.556

