@<TRIPOS>MOLECULE
BindingDB_28448
 52 54 0 0 0
SMALL
NO_CHARGES


@<TRIPOS>ATOM
1    O       -16.3817   -6.9352    4.4126  O     
2    O       -13.3261   -6.7311    3.9808  O     
3    O       -14.1121   -4.1236    4.2527  O     
4    C       -16.5588  -10.3158   10.0423  C     
5    N       -17.2511   -4.6834    4.1339  N     
6    N       -16.6906   -8.9088    6.8635  N     
7    N       -18.6654   -3.0104    3.7668  N     
8    N       -18.7177   -5.9125    5.7047  N     
9    N       -20.8174   -4.9046    6.0547  N     
10   N       -21.3918   -2.8760    5.0411  N     
11   C       -15.3041   -7.4614    5.2111  C     
12   C       -14.1560   -6.4317    5.1041  C     
13   C       -14.9065   -5.1125    4.8972  C     
14   C       -16.1093   -5.5674    4.0422  C     
15   C       -15.8013   -7.7145    6.6626  C     
16   C       -18.3603   -4.9004    4.8710  C     
17   C       -17.4502   -3.5109    3.4708  C     
18   C       -17.5150   -8.7954    8.1231  C     
19   C       -19.2382   -3.8527    4.6304  C     
20   C       -17.5850  -10.1544    8.8865  C     
21   C       -20.5004   -3.8533    5.2498  C     
22   C       -19.9397   -5.9153    6.3018  C     
23   N       -17.1953  -10.3347   11.3667  N     
24   C       -16.5593   -2.8586    2.4958  C     
25   C       -17.5061   -9.3136    5.6783  C     
26   H       -12.4596   -6.3420    4.2030  H     
27   H       -13.1961   -4.4748    4.2049  H     
28   H       -16.0089  -11.2516    9.9233  H     
29   H       -15.8264   -9.5058   10.0146  H     
30   H       -16.0427   -9.6847    7.0154  H     
31   H       -21.1763   -2.1228    4.4656  H     
32   H       -22.2616   -2.9186    5.4701  H     
33   H       -14.9727   -8.4129    4.7996  H     
34   H       -13.5322   -6.4006    5.9951  H     
35   H       -15.2437   -4.7345    5.8631  H     
36   H       -15.7961   -5.6137    2.9928  H     
37   H       -16.2677   -6.8031    7.0634  H     
38   H       -14.9051   -7.9101    7.2723  H     
39   H       -17.0776   -8.0499    8.8062  H     
40   H       -18.5318   -8.4517    7.8927  H     
41   H       -17.4114  -10.9774    8.1830  H     
42   H       -18.5956  -10.2795    9.2963  H     
43   H       -20.2064   -6.6814    6.9232  H     
44   H       -18.1103   -9.8728   11.3365  H     
45   H       -16.5856   -9.8502   12.0259  H     
46   H       -17.3000  -11.3021   11.6783  H     
47   H       -15.6297   -2.5660    2.9723  H     
48   H       -17.0239   -1.9554    2.0994  H     
49   H       -16.3498   -3.5333    1.6638  H     
50   H       -18.1153   -8.4858    5.3111  H     
51   H       -18.1651  -10.1489    5.9297  H     
52   H       -16.8456   -9.6535    4.8709  H     
@<TRIPOS>BOND
     1    1   11 1
     2    1   14 1
     3   12    2 1
     4   13    3 1
     5    4   20 1
     6    4   23 1
     7   14    5 1
     8    5   16 1
     9    5   17 1
    10    6   15 1
    11    6   18 1
    12    6   25 1
    13    7   17 2
    14    7   19 1
    15    8   16 1
    16    8   22 2
    17    9   21 2
    18    9   22 1
    19   10   21 1
    20   11   12 1
    21   11   15 1
    22   12   13 1
    23   13   14 1
    24   16   19 2
    25   17   24 1
    26   18   20 1
    27   19   21 1
    28    2   26 1
    29    3   27 1
    30    4   28 1
    31    4   29 1
    32    6   30 1
    33   10   31 1
    34   10   32 1
    35   11   33 1
    36   12   34 1
    37   13   35 1
    38   14   36 1
    39   15   37 1
    40   15   38 1
    41   18   39 1
    42   18   40 1
    43   20   41 1
    44   20   42 1
    45   22   43 1
    46   23   44 1
    47   23   45 1
    48   23   46 1
    49   24   47 1
    50   24   48 1
    51   24   49 1
    52   25   50 1
    53   25   51 1
    54   25   52 1
@<TRIPOS>PROPERTY_DATA
  Total_Score	| 10.8491
  Crash		| -3.1288
  Polar		| 8.9510
  FragIndex	| 1
  FragRMSD	| 0.414

