@<TRIPOS>MOLECULE
BindingDB_28421
 50 52 0 0 0
SMALL
NO_CHARGES


@<TRIPOS>ATOM
1    O       -16.4352   -6.9425    4.4979  O     
2    O       -13.2940   -6.8188    4.1418  O     
3    O       -14.0779   -4.1835    4.4490  O     
4    O       -17.3529  -10.3306   10.1800  O     
5    N       -17.1863   -4.6748    4.2773  N     
6    N       -16.7107   -9.2828    6.6153  N     
7    N       -18.5137   -2.9102    4.0080  N     
8    N       -18.7666   -5.9788    5.6588  N     
9    N       -20.8431   -4.9174    6.0137  N     
10   N       -21.2972   -2.7835    5.1751  N     
11   N       -16.5961  -10.8248   11.1954  N     
12   C       -15.3432   -7.5683    5.2121  C     
13   C       -14.1737   -6.5516    5.2401  C     
14   C       -14.8821   -5.1991    5.0582  C     
15   C       -16.0793   -5.5899    4.1639  C     
16   C       -15.8727   -8.0314    6.6064  C     
17   C       -18.3368   -4.9077    4.9399  C     
18   C       -17.3139   -3.4475    3.7055  C     
19   C       -17.4419   -9.4994    7.9073  C     
20   C       -19.1592   -3.7996    4.7685  C     
21   C       -17.6409   -9.4286    5.4564  C     
22   C       -16.5347   -9.8455    9.1100  C     
23   C       -20.4489   -3.8090    5.3281  C     
24   C       -20.0135   -5.9815    6.2011  C     
25   C       -16.3452   -2.7573    2.8286  C     
26   H       -12.4680   -6.3415    4.3434  H     
27   H       -13.1454   -4.4783    4.5084  H     
28   H       -16.0469  -10.0553    6.5278  H     
29   H       -21.0216   -1.9965    4.6793  H     
30   H       -22.1877   -2.8248    5.5570  H     
31   H       -15.8890  -11.4588   10.8263  H     
32   H       -17.1958  -11.3520   11.8297  H     
33   H       -16.1444  -10.0633   11.7029  H     
34   H       -15.0256   -8.4627    4.6627  H     
35   H       -13.6038   -6.5883    6.1736  H     
36   H       -15.2319   -4.8363    6.0293  H     
37   H       -15.7508   -5.6331    3.1155  H     
38   H       -16.4023   -7.1891    7.0822  H     
39   H       -14.9853   -8.2458    7.2161  H     
40   H       -18.0541   -8.6226    8.1531  H     
41   H       -18.1208  -10.3551    7.8008  H     
42   H       -18.3419   -8.5904    5.4014  H     
43   H       -18.1994  -10.3585    5.5193  H     
44   H       -17.0836   -9.4934    4.5218  H     
45   H       -15.9913   -8.9554    9.4383  H     
46   H       -15.8232  -10.6156    8.7930  H     
47   H       -20.3321   -6.7960    6.7263  H     
48   H       -15.4120   -2.5867    3.3647  H     
49   H       -16.7413   -1.7917    2.5043  H     
50   H       -16.1486   -3.3644    1.9410  H     
@<TRIPOS>BOND
     1    1   12 1
     2    1   15 1
     3   13    2 1
     4   14    3 1
     5    4   11 1
     6    4   22 1
     7   15    5 1
     8    5   17 1
     9    5   18 1
    10    6   16 1
    11    6   19 1
    12    6   21 1
    13    7   18 2
    14    7   20 1
    15    8   17 2
    16    8   24 1
    17    9   23 1
    18    9   24 2
    19   10   23 1
    20   12   13 1
    21   12   16 1
    22   13   14 1
    23   14   15 1
    24   17   20 1
    25   18   25 1
    26   19   22 1
    27   20   23 2
    28    2   26 1
    29    3   27 1
    30    6   28 1
    31   10   29 1
    32   10   30 1
    33   11   31 1
    34   11   32 1
    35   11   33 1
    36   12   34 1
    37   13   35 1
    38   14   36 1
    39   15   37 1
    40   16   38 1
    41   16   39 1
    42   19   40 1
    43   19   41 1
    44   21   42 1
    45   21   43 1
    46   21   44 1
    47   22   45 1
    48   22   46 1
    49   24   47 1
    50   25   48 1
    51   25   49 1
    52   25   50 1
@<TRIPOS>PROPERTY_DATA
  Total_Score	| 10.7660
  Crash		| -2.0230
  Polar		| 8.3041
  FragIndex	| 1
  FragRMSD	| 0.357

