@<TRIPOS>MOLECULE
BindingDB_28433
 53 55 0 0 0
SMALL
NO_CHARGES


@<TRIPOS>ATOM
1    O       -16.3147   -6.9073    4.3797  O     
2    O       -13.2975   -6.7718    4.1457  O     
3    O       -14.0026   -4.1114    4.7916  O     
4    C       -17.5836  -10.3344   10.2247  C     
5    N       -17.1420   -4.6502    4.3039  N     
6    N       -16.7547   -9.1974    6.6461  N     
7    N       -18.5013   -2.8826    4.1273  N     
8    N       -18.7544   -6.0569    5.5533  N     
9    N       -20.8239   -5.0162    5.9890  N     
10   N       -21.2727   -2.8319    5.2683  N     
11   C       -15.3161   -7.5323    5.2157  C     
12   C       -14.1380   -6.5369    5.2818  C     
13   C       -14.8658   -5.1875    5.1904  C     
14   C       -15.9929   -5.5176    4.1905  C     
15   C       -15.9374   -7.9307    6.5943  C     
16   C       -18.3111   -4.9434    4.9129  C     
17   C       -17.2859   -3.3837    3.8155  C     
18   C       -17.5749   -9.3273    7.8993  C     
19   C       -19.1466   -3.8330    4.8068  C     
20   C       -17.5916   -9.4618    5.4380  C     
21   C       -16.7751   -9.7716    9.1567  C     
22   C       -20.4347   -3.8758    5.3640  C     
23   C       -20.0013   -6.0953    6.0951  C     
24   N       -17.0421  -10.5765   11.3958  N     
25   O       -18.7518  -10.6718   10.0749  O     
26   C       -16.3345   -2.5807    3.0181  C     
27   C       -16.6970   -2.5590    1.5226  C     
28   H       -12.4438   -6.3478    4.3269  H     
29   H       -13.2053   -4.5438    4.3928  H     
30   H       -16.0775   -9.9616    6.6708  H     
31   H       -20.9835   -2.0204    4.8198  H     
32   H       -22.1684   -2.8872    5.6337  H     
33   H       -14.9704   -8.4531    4.7378  H     
34   H       -13.5506   -6.6175    6.2011  H     
35   H       -15.2885   -4.9228    6.1690  H     
36   H       -15.5956   -5.4429    3.1780  H     
37   H       -16.5222   -7.0845    6.9687  H     
38   H       -15.1047   -8.0716    7.2873  H     
39   H       -18.0843   -8.3788    8.1212  H     
40   H       -18.3528  -10.0861    7.7366  H     
41   H       -18.3506   -8.6880    5.3021  H     
42   H       -18.0923  -10.4293    5.5170  H     
43   H       -16.9810   -9.5194    4.5402  H     
44   H       -16.2222   -8.9215    9.5619  H     
45   H       -16.0546  -10.5329    8.8452  H     
46   H       -20.3287   -6.9421    6.5649  H     
47   H       -17.5397  -11.0957   12.0400  H     
48   H       -16.1491  -10.2803   11.6068  H     
49   H       -16.3304   -1.5482    3.3910  H     
50   H       -15.3116   -2.9562    3.1466  H     
51   H       -16.6347   -3.5654    1.0925  H     
52   H       -15.9992   -1.9049    0.9936  H     
53   H       -17.7152   -2.1753    1.3835  H     
@<TRIPOS>BOND
     1    1   11 1
     2    1   14 1
     3   12    2 1
     4   13    3 1
     5    4   21 1
     6    4   24 am
     7    4   25 2
     8   14    5 1
     9    5   16 1
    10    5   17 1
    11    6   15 1
    12    6   18 1
    13    6   20 1
    14    7   17 2
    15    7   19 1
    16    8   16 1
    17    8   23 2
    18    9   22 2
    19    9   23 1
    20   10   22 1
    21   11   12 1
    22   11   15 1
    23   12   13 1
    24   13   14 1
    25   16   19 2
    26   17   26 1
    27   18   21 1
    28   19   22 1
    29   26   27 1
    30    2   28 1
    31    3   29 1
    32    6   30 1
    33   10   31 1
    34   10   32 1
    35   11   33 1
    36   12   34 1
    37   13   35 1
    38   14   36 1
    39   15   37 1
    40   15   38 1
    41   18   39 1
    42   18   40 1
    43   20   41 1
    44   20   42 1
    45   20   43 1
    46   21   44 1
    47   21   45 1
    48   23   46 1
    49   24   47 1
    50   24   48 1
    51   26   49 1
    52   26   50 1
    53   27   51 1
    54   27   52 1
    55   27   53 1
@<TRIPOS>PROPERTY_DATA
  Total_Score	| 9.8460
  Crash		| -2.5707
  Polar		| 7.6456
  FragIndex	| 1
  FragRMSD	| 0.322

