@<TRIPOS>MOLECULE
BindingDB_28432
 50 52 0 0 0
SMALL
NO_CHARGES


@<TRIPOS>ATOM
1    O       -16.3800   -6.9432    4.4093  O     
2    O       -13.3053   -6.8767    4.1446  O     
3    O       -14.0080   -4.2464    4.3833  O     
4    C       -18.4127  -10.3628   10.1294  C     
5    N       -17.1944   -4.6745    4.2664  N     
6    N       -16.4106   -9.2772    6.8731  N     
7    N       -18.5364   -2.9062    4.0700  N     
8    N       -18.8028   -6.0625    5.5395  N     
9    N       -20.8588   -5.0002    5.9789  N     
10   N       -21.3003   -2.8263    5.2276  N     
11   C       -15.3742   -7.5435    5.2483  C     
12   C       -14.1836   -6.5629    5.2305  C     
13   C       -14.8610   -5.2014    5.0172  C     
14   C       -16.0657   -5.5656    4.1231  C     
15   C       -15.9432   -7.8575    6.6719  C     
16   C       -18.3568   -4.9567    4.8903  C     
17   C       -17.3261   -3.4128    3.7610  C     
18   C       -16.7270   -9.5902    8.3252  C     
19   C       -19.1803   -3.8433    4.7698  C     
20   C       -17.4088   -9.7127    5.8508  C     
21   C       -18.2044   -9.7682    8.8264  C     
22   C       -20.4642   -3.8698    5.3372  C     
23   C       -20.0515   -6.0866    6.0833  C     
24   C       -16.3708   -2.6311    2.9565  C     
25   N       -17.4531  -10.6510   10.9787  N     
26   O       -19.5444  -10.7035   10.4459  O     
27   H       -12.4639   -6.4347    4.3661  H     
28   H       -13.0905   -4.5790    4.4564  H     
29   H       -15.5830   -9.8446    6.6671  H     
30   H       -21.0137   -2.0268    4.7614  H     
31   H       -22.1919   -2.8807    5.5970  H     
32   H       -15.0646   -8.4951    4.8050  H     
33   H       -13.6084   -6.5764    6.1617  H     
34   H       -15.2011   -4.8047    5.9805  H     
35   H       -15.7566   -5.5537    3.0718  H     
36   H       -16.7518   -7.1649    6.9239  H     
37   H       -15.1316   -7.6833    7.3823  H     
38   H       -16.2067  -10.5330    8.5209  H     
39   H       -16.2851   -8.8493    8.9897  H     
40   H       -18.3839   -9.2843    6.0926  H     
41   H       -17.4999  -10.8005    5.8288  H     
42   H       -17.1359   -9.4392    4.8406  H     
43   H       -18.7449  -10.3947    8.1169  H     
44   H       -18.6737   -8.7792    8.8342  H     
45   H       -20.3977   -6.9213    6.5603  H     
46   H       -15.5376   -2.3166    3.5798  H     
47   H       -16.8513   -1.7364    2.5560  H     
48   H       -16.0042   -3.2286    2.1233  H     
49   H       -17.6533  -11.1764   11.7699  H     
50   H       -16.5245  -10.4278   10.7765  H     
@<TRIPOS>BOND
     1    1   11 1
     2    1   14 1
     3   12    2 1
     4   13    3 1
     5    4   21 1
     6    4   25 am
     7    4   26 2
     8   14    5 1
     9    5   16 1
    10    5   17 1
    11    6   15 1
    12    6   18 1
    13    6   20 1
    14    7   17 2
    15    7   19 1
    16    8   16 1
    17    8   23 2
    18    9   22 2
    19    9   23 1
    20   10   22 1
    21   11   12 1
    22   11   15 1
    23   12   13 1
    24   13   14 1
    25   16   19 2
    26   17   24 1
    27   18   21 1
    28   19   22 1
    29    2   27 1
    30    3   28 1
    31    6   29 1
    32   10   30 1
    33   10   31 1
    34   11   32 1
    35   12   33 1
    36   13   34 1
    37   14   35 1
    38   15   36 1
    39   15   37 1
    40   18   38 1
    41   18   39 1
    42   20   40 1
    43   20   41 1
    44   20   42 1
    45   21   43 1
    46   21   44 1
    47   23   45 1
    48   24   46 1
    49   24   47 1
    50   24   48 1
    51   25   49 1
    52   25   50 1
@<TRIPOS>PROPERTY_DATA
  Total_Score	| 10.1331
  Crash		| -1.7077
  Polar		| 7.1833
  FragIndex	| 1
  FragRMSD	| 0.474

