@<TRIPOS>MOLECULE
BindingDB_28438
 49 51 0 0 0
SMALL
NO_CHARGES


@<TRIPOS>ATOM
1    O       -16.4336   -7.1409    4.6271  O     
2    O       -13.3560   -7.0660    4.3532  O     
3    O       -14.0414   -4.4346    4.5646  O     
4    N       -16.8823  -10.3331   10.6784  N     
5    N       -17.1926   -4.8653    4.3466  N     
6    N       -16.6713   -9.3761    7.0576  N     
7    N       -18.4556   -3.0498    4.0945  N     
8    N       -18.8641   -6.1553    5.6395  N     
9    N       -20.8849   -5.0063    6.0245  N     
10   N       -21.2231   -2.8221    5.2463  N     
11   C       -15.4259   -7.7260    5.4762  C     
12   C       -14.2304   -6.7432    5.4396  C     
13   C       -14.9038   -5.3913    5.1842  C     
14   C       -16.0847   -5.7878    4.2735  C     
15   C       -16.0396   -8.0163    6.8862  C     
16   C       -18.3744   -5.0862    4.9587  C     
17   C       -17.2644   -3.6139    3.8128  C     
18   C       -17.3799   -9.5489    8.3847  C     
19   C       -19.1502   -3.9415    4.8062  C     
20   C       -17.5355   -9.8187    5.9221  C     
21   C       -16.5131   -9.7790    9.5339  C     
22   C       -20.4387   -3.9057    5.3623  C     
23   C       -20.1151   -6.1204    6.1726  C     
24   C       -16.2612   -2.9031    2.9992  C     
25   O       -15.3209   -9.5334    9.4533  O     
26   N       -18.0314  -10.7817   10.9441  N     
27   H       -12.4545   -6.9771    4.7214  H     
28   H       -13.1669   -4.8632    4.4413  H     
29   H       -16.1993  -10.4527   11.3576  H     
30   H       -15.8934  -10.0402    7.0612  H     
31   H       -20.9028   -2.0375    4.7747  H     
32   H       -22.1152   -2.8254    5.6276  H     
33   H       -15.1083   -8.6816    5.0479  H     
34   H       -13.6598   -6.7240    6.3710  H     
35   H       -15.2676   -4.9807    6.1324  H     
36   H       -15.7400   -5.8390    3.2360  H     
37   H       -16.7586   -7.2329    7.1334  H     
38   H       -15.2315   -7.9417    7.6163  H     
39   H       -18.0068   -8.6750    8.5903  H     
40   H       -18.0474  -10.4165    8.3500  H     
41   H       -18.4566   -9.2413    5.8654  H     
42   H       -17.7868  -10.8702    6.0501  H     
43   H       -17.0153   -9.7568    4.9689  H     
44   H       -20.4765   -6.9262    6.6822  H     
45   H       -15.3823   -2.6792    3.6015  H     
46   H       -16.6649   -1.9599    2.6269  H     
47   H       -15.9720   -3.5152    2.1442  H     
48   H       -18.1487  -11.2857   11.7251  H     
49   H       -18.7183  -10.7349   10.3109  H     
@<TRIPOS>BOND
     1    1   11 1
     2    1   14 1
     3   12    2 1
     4   13    3 1
     5    4   21 am
     6    4   26 1
     7   14    5 1
     8    5   16 1
     9    5   17 1
    10    6   15 1
    11    6   18 1
    12    6   20 1
    13    7   17 2
    14    7   19 1
    15    8   16 1
    16    8   23 2
    17    9   22 2
    18    9   23 1
    19   10   22 1
    20   11   12 1
    21   11   15 1
    22   12   13 1
    23   13   14 1
    24   16   19 2
    25   17   24 1
    26   18   21 1
    27   19   22 1
    28   21   25 2
    29    2   27 1
    30    3   28 1
    31    4   29 1
    32    6   30 1
    33   10   31 1
    34   10   32 1
    35   11   33 1
    36   12   34 1
    37   13   35 1
    38   14   36 1
    39   15   37 1
    40   15   38 1
    41   18   39 1
    42   18   40 1
    43   20   41 1
    44   20   42 1
    45   20   43 1
    46   23   44 1
    47   24   45 1
    48   24   46 1
    49   24   47 1
    50   26   48 1
    51   26   49 1
@<TRIPOS>PROPERTY_DATA
  Total_Score	| 10.4769
  Crash		| -1.7681
  Polar		| 7.5971
  FragIndex	| 1
  FragRMSD	| 0.410

