@<TRIPOS>MOLECULE
BindingDB_28428
 56 58 0 0 0
SMALL
NO_CHARGES


@<TRIPOS>ATOM
1    O       -16.3664   -6.9791    4.5429  O     
2    O       -13.2810   -6.7235    4.1028  O     
3    O       -14.1072   -4.1484    4.3802  O     
4    C       -19.3400   -8.8315    8.1678  C     
5    N       -17.2086   -4.7343    4.2187  N     
6    N       -16.3712   -9.2579    6.8434  N     
7    N       -18.5507   -2.9860    3.8964  N     
8    N       -18.7941   -6.0014    5.6369  N     
9    N       -20.8600   -4.9165    5.9853  N     
10   N       -21.3133   -2.8059    5.0768  N     
11   C       -20.6859   -9.0211    8.9227  C     
12   C       -15.2627   -7.5117    5.2990  C     
13   C       -14.1265   -6.4642    5.2283  C     
14   C       -14.8864   -5.1559    5.0202  C     
15   C       -16.0732   -5.6213    4.1521  C     
16   C       -15.7709   -7.8824    6.7240  C     
17   C       -18.3611   -4.9585    4.8845  C     
18   C       -17.3448   -3.5200    3.6194  C     
19   C       -16.8181   -9.5839    8.2509  C     
20   C       -19.1881   -3.8547    4.6801  C     
21   C       -17.3149   -9.6657    5.7608  C     
22   C       -16.3827   -2.8197    2.7467  C     
23   C       -18.3089   -9.9271    8.5216  C     
24   C       -20.4750   -3.8375    5.2480  C     
25   C       -20.0445   -5.9835    6.1852  C     
26   O       -21.2842  -10.3224    8.7699  O     
27   N       -21.9132  -10.4821    7.5721  N     
28   H       -12.3845   -6.8697    4.4686  H     
29   H       -13.2115   -4.5226    4.2521  H     
30   H       -19.5387   -8.8523    7.1019  H     
31   H       -18.9236   -7.8461    8.4022  H     
32   H       -15.5677   -9.8771    6.7032  H     
33   H       -21.0312   -2.0408    4.5518  H     
34   H       -22.1977   -2.8190    5.4660  H     
35   H       -20.4963   -8.9043    9.9921  H     
36   H       -21.3871   -8.2369    8.6256  H     
37   H       -14.9073   -8.4324    4.8282  H     
38   H       -13.5110   -6.4195    6.1300  H     
39   H       -15.2342   -4.7720    5.9825  H     
40   H       -15.7474   -5.6882    3.1079  H     
41   H       -16.4779   -7.1293    7.0952  H     
42   H       -14.9008   -7.8475    7.3887  H     
43   H       -16.2320  -10.4610    8.5547  H     
44   H       -16.5474   -8.7806    8.9570  H     
45   H       -18.1500   -8.9707    5.6537  H     
46   H       -17.7095  -10.6669    5.9485  H     
47   H       -16.7992   -9.7021    4.8127  H     
48   H       -15.5081   -2.5199    3.3235  H     
49   H       -16.8371   -1.9263    2.3172  H     
50   H       -16.0742   -3.4697    1.9284  H     
51   H       -18.3995  -10.1535    9.5884  H     
52   H       -18.5619  -10.8448    7.9805  H     
53   H       -20.3764   -6.7646    6.7383  H     
54   H       -22.6616   -9.7906    7.4666  H     
55   H       -22.3246  -11.4185    7.5416  H     
56   H       -21.2443  -10.3836    6.8066  H     
@<TRIPOS>BOND
     1    1   12 1
     2    1   15 1
     3   13    2 1
     4   14    3 1
     5    4   11 1
     6    4   23 1
     7   15    5 1
     8    5   17 1
     9    5   18 1
    10    6   16 1
    11    6   19 1
    12    6   21 1
    13    7   18 2
    14    7   20 1
    15    8   17 1
    16    8   25 2
    17    9   24 2
    18    9   25 1
    19   10   24 1
    20   11   26 1
    21   12   13 1
    22   12   16 1
    23   13   14 1
    24   14   15 1
    25   17   20 2
    26   18   22 1
    27   19   23 1
    28   20   24 1
    29   26   27 1
    30    2   28 1
    31    3   29 1
    32    4   30 1
    33    4   31 1
    34    6   32 1
    35   10   33 1
    36   10   34 1
    37   11   35 1
    38   11   36 1
    39   12   37 1
    40   13   38 1
    41   14   39 1
    42   15   40 1
    43   16   41 1
    44   16   42 1
    45   19   43 1
    46   19   44 1
    47   21   45 1
    48   21   46 1
    49   21   47 1
    50   22   48 1
    51   22   49 1
    52   22   50 1
    53   23   51 1
    54   23   52 1
    55   25   53 1
    56   27   54 1
    57   27   55 1
    58   27   56 1
@<TRIPOS>PROPERTY_DATA
  Total_Score	| 9.8033
  Crash		| -1.8858
  Polar		| 6.9755
  FragIndex	| 1
  FragRMSD	| 0.501

