@<TRIPOS>MOLECULE
BindingDB_28443
 49 51 0 0 0
SMALL
NO_CHARGES


@<TRIPOS>ATOM
1    O       -16.3988   -7.1266    4.5893  O     
2    O       -13.3684   -7.0177    4.2851  O     
3    O       -14.0645   -4.2865    4.7460  O     
4    N       -17.0317  -10.2482   10.9035  N     
5    N       -17.1814   -4.8758    4.3187  N     
6    N       -16.5550   -9.3367    7.1075  N     
7    N       -18.4605   -3.0680    4.0428  N     
8    N       -18.8316   -6.1583    5.6515  N     
9    N       -20.8630   -4.9976    6.0351  N     
10   N       -21.2323   -2.8373    5.2134  N     
11   C       -15.3901   -7.6965    5.4749  C     
12   C       -14.1886   -6.7094    5.4220  C     
13   C       -14.9011   -5.3568    5.2305  C     
14   C       -16.0435   -5.7657    4.2667  C     
15   C       -15.9848   -7.9564    6.9063  C     
16   C       -18.3543   -5.0885    4.9588  C     
17   C       -17.2759   -3.6390    3.7510  C     
18   C       -17.2266   -9.5679    8.4437  C     
19   C       -19.1428   -3.9508    4.7811  C     
20   C       -17.4357   -9.8250    5.9947  C     
21   C       -16.3065   -9.9289    9.6448  C     
22   C       -20.4328   -3.9086    5.3398  C     
23   C       -20.0843   -6.1090    6.1847  C     
24   C       -16.2888   -2.9453    2.9007  C     
25   H       -12.5205   -6.5487    4.4259  H     
26   H       -13.1991   -4.7071    4.5154  H     
27   H       -17.8176   -9.5940   11.0362  H     
28   H       -16.3774  -10.1773   11.6938  H     
29   H       -17.3793  -11.2168   10.8613  H     
30   H       -15.7439   -9.9573    7.1018  H     
31   H       -20.9291   -2.0596    4.7174  H     
32   H       -22.1209   -2.8535    5.6093  H     
33   H       -15.0362   -8.6646    5.0729  H     
34   H       -13.5753   -6.7166    6.3323  H     
35   H       -15.3364   -5.0390    6.1852  H     
36   H       -15.6539   -5.7834    3.2466  H     
37   H       -16.7345   -7.1865    7.1398  H     
38   H       -15.1720   -7.8463    7.6289  H     
39   H       -17.8113   -8.6841    8.7311  H     
40   H       -17.9304  -10.4013    8.3207  H     
41   H       -18.3103   -9.1764    5.8533  H     
42   H       -17.7894  -10.8440    6.1989  H     
43   H       -16.8831   -9.8744    5.0551  H     
44   H       -15.6643   -9.0619    9.8609  H     
45   H       -15.6712  -10.7932    9.3873  H     
46   H       -20.4424   -6.9072    6.7073  H     
47   H       -15.3669   -2.7717    3.4736  H     
48   H       -16.6982   -1.9835    2.5527  H     
49   H       -16.0771   -3.5740    2.0255  H     
@<TRIPOS>BOND
     1    1   11 1
     2    1   14 1
     3   12    2 1
     4   13    3 1
     5    4   21 1
     6   14    5 1
     7    5   16 1
     8    5   17 1
     9    6   15 1
    10    6   18 1
    11    6   20 1
    12    7   17 2
    13    7   19 1
    14    8   16 1
    15    8   23 2
    16    9   22 2
    17    9   23 1
    18   10   22 1
    19   11   12 1
    20   11   15 1
    21   12   13 1
    22   13   14 1
    23   16   19 2
    24   17   24 1
    25   18   21 1
    26   19   22 1
    27    2   25 1
    28    3   26 1
    29    4   27 1
    30    4   28 1
    31    4   29 1
    32    6   30 1
    33   10   31 1
    34   10   32 1
    35   11   33 1
    36   12   34 1
    37   13   35 1
    38   14   36 1
    39   15   37 1
    40   15   38 1
    41   18   39 1
    42   18   40 1
    43   20   41 1
    44   20   42 1
    45   20   43 1
    46   21   44 1
    47   21   45 1
    48   23   46 1
    49   24   47 1
    50   24   48 1
    51   24   49 1
@<TRIPOS>PROPERTY_DATA
  Total_Score	| 9.1742
  Crash		| -2.3366
  Polar		| 7.0920
  FragIndex	| 1
  FragRMSD	| 0.417

