@<TRIPOS>MOLECULE
BindingDB_28449
 55 57 0 0 0
SMALL
NO_CHARGES


@<TRIPOS>ATOM
1    O       -16.3295   -6.9694    4.3762  O     
2    O       -13.2964   -6.7812    4.1093  O     
3    O       -14.0492   -4.0838    4.6442  O     
4    C       -16.6221  -10.2135    9.9866  C     
5    N       -17.1377   -4.6817    4.2272  N     
6    N       -16.8207   -8.9880    6.8716  N     
7    N       -18.4333   -2.8675    4.1359  N     
8    N       -18.7661   -6.0855    5.4624  N     
9    N       -20.8089   -5.0025    5.9452  N     
10   N       -21.2112   -2.7944    5.2844  N     
11   C       -15.3165   -7.5408    5.2355  C     
12   C       -14.1372   -6.5288    5.2389  C     
13   C       -14.8642   -5.1785    5.0940  C     
14   C       -16.0026   -5.5735    4.1156  C     
15   C       -15.9269   -7.7908    6.6547  C     
16   C       -18.3048   -4.9643    4.8445  C     
17   C       -17.2420   -3.3932    3.7832  C     
18   C       -17.7117   -8.8130    8.0803  C     
19   C       -19.1029   -3.8252    4.7848  C     
20   C       -17.8056  -10.0768    8.9768  C     
21   C       -20.3911   -3.8544    5.3475  C     
22   C       -20.0106   -6.1041    6.0148  C     
23   N       -17.0925  -10.4069   11.3694  N     
24   C       -16.2689   -2.5813    3.0131  C     
25   C       -17.5814   -9.4696    5.6726  C     
26   C       -16.6897   -2.3984    1.5355  C     
27   H       -12.4477   -6.3543    4.3225  H     
28   H       -13.1853   -4.4837    4.4053  H     
29   H       -15.9818  -11.0593    9.7105  H     
30   H       -15.9952   -9.3184    9.9896  H     
31   H       -16.1723   -9.7538    7.0949  H     
32   H       -20.9198   -1.9779    4.8433  H     
33   H       -22.1041   -2.8509    5.6595  H     
34   H       -14.9580   -8.4885    4.8285  H     
35   H       -13.5309   -6.5708    6.1564  H     
36   H       -15.2966   -4.9010    6.0716  H     
37   H       -15.6293   -5.5336    3.0861  H     
38   H       -16.4408   -6.8635    6.9464  H     
39   H       -15.0881   -7.9256    7.3556  H     
40   H       -17.3554   -7.9938    8.7216  H     
41   H       -18.7229   -8.5367    7.7628  H     
42   H       -17.8535  -10.9718    8.3408  H     
43   H       -18.7474  -10.0127    9.5196  H     
44   H       -20.3570   -6.9474    6.4646  H     
45   H       -17.8850   -9.7833   11.5612  H     
46   H       -16.3300  -10.1816   12.0168  H     
47   H       -17.3858  -11.3765   11.5355  H     
48   H       -16.1860   -1.6001    3.4800  H     
49   H       -15.2745   -3.0509    3.0227  H     
50   H       -18.2301   -8.6806    5.2828  H     
51   H       -18.2067  -10.3374    5.9334  H     
52   H       -16.8946   -9.7938    4.8862  H     
53   H       -16.8441   -3.3785    1.0652  H     
54   H       -15.9030   -1.8677    0.9932  H     
55   H       -17.6131   -1.8200    1.4740  H     
@<TRIPOS>BOND
     1    1   11 1
     2    1   14 1
     3   12    2 1
     4   13    3 1
     5    4   20 1
     6    4   23 1
     7   14    5 1
     8    5   16 1
     9    5   17 1
    10    6   15 1
    11    6   18 1
    12    6   25 1
    13    7   17 2
    14    7   19 1
    15    8   16 1
    16    8   22 2
    17    9   21 2
    18    9   22 1
    19   10   21 1
    20   11   12 1
    21   11   15 1
    22   12   13 1
    23   13   14 1
    24   16   19 2
    25   17   24 1
    26   18   20 1
    27   19   21 1
    28   24   26 1
    29    2   27 1
    30    3   28 1
    31    4   29 1
    32    4   30 1
    33    6   31 1
    34   10   32 1
    35   10   33 1
    36   11   34 1
    37   12   35 1
    38   13   36 1
    39   14   37 1
    40   15   38 1
    41   15   39 1
    42   18   40 1
    43   18   41 1
    44   20   42 1
    45   20   43 1
    46   22   44 1
    47   23   45 1
    48   23   46 1
    49   23   47 1
    50   24   48 1
    51   24   49 1
    52   25   50 1
    53   25   51 1
    54   25   52 1
    55   26   53 1
    56   26   54 1
    57   26   55 1
@<TRIPOS>PROPERTY_DATA
  Total_Score	| 10.4146
  Crash		| -3.0641
  Polar		| 8.4051
  FragIndex	| 1
  FragRMSD	| 0.324

