@<TRIPOS>MOLECULE
BindingDB_28452
 43 45 0 0 0
SMALL
NO_CHARGES


@<TRIPOS>ATOM
1    O       -16.3998   -7.0239    4.5175  O     
2    O       -13.3306   -6.8754    4.0788  O     
3    O       -14.0872   -4.2408    4.2687  O     
4    N       -17.2312   -4.7652    4.2434  N     
5    N       -16.3567   -9.1584    7.0711  N     
6    N       -18.5708   -3.0106    3.9641  N     
7    N       -18.8040   -6.0682    5.6411  N     
8    N       -20.8657   -4.9806    6.0353  N     
9    N       -21.3089   -2.8462    5.1595  N     
10   C       -15.3291   -7.5492    5.3228  C     
11   C       -14.1566   -6.5421    5.1981  C     
12   C       -14.8830   -5.2126    4.9569  C     
13   C       -16.1063   -5.6634    4.1274  C     
14   C       -15.8413   -7.7778    6.7784  C     
15   C       -18.3767   -5.0021    4.9098  C     
16   C       -17.3698   -3.5423    3.6616  C     
17   C       -16.9055   -9.2582    8.4554  C     
18   C       -19.2030   -3.8988    4.7332  C     
19   C       -20.4804   -3.8915    5.3177  C     
20   C       -20.0471   -6.0567    6.2040  C     
21   C       -17.3289   -9.7011    6.0748  C     
22   C       -16.4209   -2.8388    2.7795  C     
23   H       -12.4273   -6.9432    4.4499  H     
24   H       -13.1767   -4.6276    4.2110  H     
25   H       -15.5403   -9.7801    7.0353  H     
26   H       -21.0225   -2.0796    4.6396  H     
27   H       -22.1943   -2.8626    5.5574  H     
28   H       -15.0089   -8.5096    4.9159  H     
29   H       -13.5383   -6.4828    6.0996  H     
30   H       -15.2003   -4.7863    5.9162  H     
31   H       -15.8193   -5.7180    3.0743  H     
32   H       -16.6122   -7.0321    7.0095  H     
33   H       -15.0072   -7.5916    7.4595  H     
34   H       -16.1743   -8.9147    9.1909  H     
35   H       -17.1405  -10.2957    8.6990  H     
36   H       -17.8103   -8.6552    8.5594  H     
37   H       -20.3680   -6.8625    6.7470  H     
38   H       -18.2202   -9.0740    6.0118  H     
39   H       -17.6376  -10.7132    6.3598  H     
40   H       -16.8668   -9.7684    5.0892  H     
41   H       -15.5294   -2.5430    3.3466  H     
42   H       -16.8815   -1.9430    2.3472  H     
43   H       -16.1190   -3.4926    1.9555  H     
@<TRIPOS>BOND
     1    1   10 1
     2    1   13 1
     3   11    2 1
     4   12    3 1
     5   13    4 1
     6    4   15 1
     7    4   16 1
     8    5   14 1
     9    5   17 1
    10    5   21 1
    11    6   16 2
    12    6   18 1
    13    7   15 1
    14    7   20 2
    15    8   19 2
    16    8   20 1
    17    9   19 1
    18   10   11 1
    19   10   14 1
    20   11   12 1
    21   12   13 1
    22   15   18 2
    23   16   22 1
    24   18   19 1
    25    2   23 1
    26    3   24 1
    27    5   25 1
    28    9   26 1
    29    9   27 1
    30   10   28 1
    31   11   29 1
    32   12   30 1
    33   13   31 1
    34   14   32 1
    35   14   33 1
    36   17   34 1
    37   17   35 1
    38   17   36 1
    39   20   37 1
    40   21   38 1
    41   21   39 1
    42   21   40 1
    43   22   41 1
    44   22   42 1
    45   22   43 1
@<TRIPOS>PROPERTY_DATA
  Total_Score	| 8.2439
  Crash		| -0.9072
  Polar		| 5.7929
  FragIndex	| 1
  FragRMSD	| 0.382

