@<TRIPOS>MOLECULE
BindingDB_28436
 52 54 0 0 0
SMALL
NO_CHARGES


@<TRIPOS>ATOM
1    O       -16.3494   -6.9682    4.3991  O     
2    O       -13.2936   -6.8511    4.1669  O     
3    O       -14.0114   -4.2409    4.2222  O     
4    C       -19.3205  -10.0184    9.4627  C     
5    N       -17.1948   -4.7125    4.2442  N     
6    N       -16.6123   -9.1718    6.8042  N     
7    N       -18.5181   -2.9325    4.1120  N     
8    N       -18.7950   -6.1168    5.5030  N     
9    N       -20.8459   -5.0466    5.9838  N     
10   N       -21.2561   -2.8506    5.2776  N     
11   C       -15.3556   -7.5099    5.2726  C     
12   C       -14.1843   -6.5014    5.2341  C     
13   C       -14.8593   -5.1549    4.9356  C     
14   C       -16.0689   -5.5954    4.0861  C     
15   C       -15.9905   -7.7969    6.6662  C     
16   C       -18.3434   -4.9967    4.8727  C     
17   C       -17.3149   -3.4434    3.7709  C     
18   C       -17.1921   -9.4659    8.1559  C     
19   C       -19.1620   -3.8796    4.7881  C     
20   C       -17.4488   -9.6335    5.6496  C     
21   C       -18.7284   -9.2876    8.3518  C     
22   C       -20.4432   -3.9007    5.3649  C     
23   C       -20.0354   -6.1477    6.0593  C     
24   N       -18.5915  -10.5168   10.4439  N     
25   O       -20.5397  -10.1856    9.4465  O     
26   C       -16.3639   -2.6518    2.9681  C     
27   N       -19.0638  -11.2785   11.3448  N     
28   H       -12.4542   -6.3813    4.3684  H     
29   H       -13.0787   -4.5166    4.3847  H     
30   H       -15.8084   -9.7940    6.7669  H     
31   H       -20.9593   -2.0429    4.8303  H     
32   H       -22.1505   -2.8943    5.6473  H     
33   H       -14.9864   -8.4469    4.8618  H     
34   H       -13.6087   -6.4675    6.1710  H     
35   H       -15.1749   -4.6909    5.8815  H     
36   H       -15.7760   -5.6049    3.0343  H     
37   H       -16.7278   -7.0084    6.8946  H     
38   H       -15.2088   -7.7081    7.4251  H     
39   H       -16.9504  -10.5098    8.3674  H     
40   H       -16.6850   -8.8883    8.9318  H     
41   H       -18.2283   -8.9158    5.3836  H     
42   H       -17.9195  -10.6012    5.8785  H     
43   H       -16.7974   -9.7882    4.7754  H     
44   H       -19.2278   -9.6191    7.4372  H     
45   H       -18.9483   -8.2219    8.4642  H     
46   H       -20.3744   -6.9979    6.5302  H     
47   H       -17.6399  -10.3356   10.4841  H     
48   H       -15.4875   -2.3847    3.5688  H     
49   H       -16.8237   -1.7177    2.6301  H     
50   H       -16.0475   -3.2193    2.0889  H     
51   H       -18.4849  -11.6970   11.9556  H     
52   H       -19.9805  -11.5106   11.3402  H     
@<TRIPOS>BOND
     1    1   11 1
     2    1   14 1
     3   12    2 1
     4   13    3 1
     5    4   21 1
     6    4   24 am
     7    4   25 2
     8   14    5 1
     9    5   16 1
    10    5   17 1
    11    6   15 1
    12    6   18 1
    13    6   20 1
    14    7   17 2
    15    7   19 1
    16    8   16 1
    17    8   23 2
    18    9   22 2
    19    9   23 1
    20   10   22 1
    21   11   12 1
    22   11   15 1
    23   12   13 1
    24   13   14 1
    25   16   19 2
    26   17   26 1
    27   18   21 1
    28   19   22 1
    29   24   27 1
    30    2   28 1
    31    3   29 1
    32    6   30 1
    33   10   31 1
    34   10   32 1
    35   11   33 1
    36   12   34 1
    37   13   35 1
    38   14   36 1
    39   15   37 1
    40   15   38 1
    41   18   39 1
    42   18   40 1
    43   20   41 1
    44   20   42 1
    45   20   43 1
    46   21   44 1
    47   21   45 1
    48   23   46 1
    49   24   47 1
    50   26   48 1
    51   26   49 1
    52   26   50 1
    53   27   51 1
    54   27   52 1
@<TRIPOS>PROPERTY_DATA
  Total_Score	| 9.8112
  Crash		| -1.8728
  Polar		| 7.2914
  FragIndex	| 1
  FragRMSD	| 0.532

