@<TRIPOS>MOLECULE
BindingDB_50245343
 56 60 0 0 0
SMALL
NO_CHARGES


@<TRIPOS>ATOM
1    C         0.5139    8.2416   19.9537  C     
2    C        -0.0433    7.0351   19.4846  C     
3    C         0.7502    6.1141   18.7747  C     
4    C         1.8771    8.5247   19.7215  C     
5    C         2.6744    7.5979   19.0172  C     
6    C         2.1121    6.4034   18.5405  C     
7    N         3.0560    5.6917   17.8742  N     
8    C         4.0207    7.6030   18.6264  C     
9    C         4.2208    6.4067   17.9174  C     
10   C         5.4854    6.0834   17.3783  C     
11   C         6.5728    6.9806   17.5094  C     
12   C         5.1050    8.5039   18.7730  C     
13   C         6.3485    8.2015   18.1978  C     
14   C         7.1606    9.2774   18.4495  C     
15   N         6.4831   10.1546   19.1531  N     
16   C         5.2637    9.7225   19.3769  C     
17   O         8.3110    9.4510   18.0750  O     
18   O         4.4613   10.3554   20.0430  O     
19   C         7.8407    6.6384   16.9702  C     
20   C         9.0140    6.5786   17.7671  C     
21   C        10.2620    6.3100   17.1707  C     
22   C        10.3526    6.0275   15.7978  C     
23   C         9.1892    6.0284   15.0144  C     
24   C         7.9464    6.3466   15.5905  C     
25   O        -0.2842    9.1169   20.6184  O     
26   C         2.8727    4.4149   17.2206  C     
27   C         2.7746    4.5459   15.6718  C     
28   Cl        8.9857    6.8014   19.4488  Cl    
29   C         2.5812    3.1605   14.9846  C     
30   O         1.7290    5.4506   15.3339  O     
31   N         2.2314    3.1549   13.5286  N     
32   C         3.0798    4.0426   12.6851  C     
33   C         2.1767    1.7689   12.9756  C     
34   H        -1.0312    6.8314   19.6502  H     
35   H         0.3265    5.2507   18.4295  H     
36   H         2.2644    9.4000   20.0652  H     
37   H         5.6112    5.1952   16.8928  H     
38   H         6.8291   11.0073   19.4681  H     
39   H        11.1152    6.3001   17.7358  H     
40   H        11.2601    5.8124   15.3757  H     
41   H         9.2519    5.7871   14.0268  H     
42   H         7.1207    6.3660   14.9891  H     
43   H         0.0734   10.0109   20.4324  H     
44   H         3.7130    3.7581   17.4803  H     
45   H         1.9718    3.9142   17.5836  H     
46   H         3.6976    4.9857   15.2969  H     
47   H         3.4919    2.5626   15.1383  H     
48   H         1.7750    2.6424   15.5156  H     
49   H         0.9822    4.9140   14.9941  H     
50   H         1.2740    3.5209   13.4763  H     
51   H         2.9574    5.0776   12.9988  H     
52   H         2.7700    3.9934   11.6360  H     
53   H         4.1352    3.7705   12.7570  H     
54   H         3.1589    1.3005   12.9840  H     
55   H         1.8067    1.7819   11.9467  H     
56   H         1.4906    1.1487   13.5582  H     
@<TRIPOS>BOND
     1    1    2 2
     2    1    4 1
     3    1   25 1
     4    2    3 1
     5    3    6 2
     6    4    5 2
     7    5    6 1
     8    5    8 1
     9    6    7 1
    10    7    9 1
    11    7   26 1
    12    8    9 2
    13    8   12 1
    14    9   10 1
    15   10   11 2
    16   11   13 1
    17   11   19 1
    18   12   13 2
    19   12   16 1
    20   13   14 1
    21   14   15 1
    22   14   17 2
    23   15   16 1
    24   16   18 2
    25   19   20 2
    26   19   24 1
    27   20   21 1
    28   20   28 1
    29   21   22 2
    30   22   23 1
    31   23   24 2
    32   26   27 1
    33   27   29 1
    34   27   30 1
    35   29   31 1
    36   31   32 1
    37   31   33 1
    38    2   34 1
    39    3   35 1
    40    4   36 1
    41   10   37 1
    42   15   38 1
    43   21   39 1
    44   22   40 1
    45   23   41 1
    46   24   42 1
    47   25   43 1
    48   26   44 1
    49   26   45 1
    50   27   46 1
    51   29   47 1
    52   29   48 1
    53   30   49 1
    54   31   50 1
    55   32   51 1
    56   32   52 1
    57   32   53 1
    58   33   54 1
    59   33   55 1
    60   33   56 1
@<TRIPOS>PROPERTY_DATA
  Total_Score	| 9.9621
  Crash		| -2.4702
  Polar		| 6.8026
  FragIndex	| 1
  FragRMSD	| 0.737

