@<TRIPOS>MOLECULE
BindingDB_6763
 45 52 0 0 0
SMALL
NO_CHARGES


@<TRIPOS>ATOM
1    C         5.6143    9.7619   19.5021  C     
2    C         7.5073    9.2873   18.5830  C     
3    O         8.6815    9.4422   18.2947  O     
4    N         6.8699   10.1149   19.3754  N     
5    C         5.3932    8.6451   18.7428  C     
6    C         6.6287    8.3328   18.1428  C     
7    C         4.3611    6.7743   17.5888  C     
8    C         4.2447    7.8620   18.4681  C     
9    C         2.2713    6.8081   18.2139  C     
10   C         2.9045    7.8814   18.8636  C     
11   C         2.1669    8.7202   19.7249  C     
12   C         0.7967    8.4707   19.9321  C     
13   C         0.1679    7.3809   19.2984  C     
14   C         0.9023    6.5421   18.4376  C     
15   N         3.1682    6.1592   17.4343  N     
16   C         2.9399    5.0003   16.6064  C     
17   C         4.6970    3.3237   16.4724  C     
18   C         4.9361    4.5348   15.5521  C     
19   O         3.6380    5.1133   15.3574  O     
20   C         3.4459    3.7062   17.2773  C     
21   C         5.5977    6.4588   16.9851  C     
22   C         6.7398    7.2290   17.2587  C     
23   N         5.8847    5.4796   16.0967  N     
24   C         7.7691    6.6526   16.5074  C     
25   C         7.2061    5.5721   15.8067  C     
26   C         9.1406    6.9523   16.3586  C     
27   C         8.0086    4.7738   14.9612  C     
28   C         9.3800    5.0643   14.8270  C     
29   C         9.9435    6.1530   15.5198  C     
30   O         4.8205   10.4115   20.1600  O     
31   H         7.2661   10.8978   19.7883  H     
32   H         2.5978    9.5041   20.2054  H     
33   H         0.2577    9.0782   20.5537  H     
34   H        -0.8250    7.1964   19.4661  H     
35   H         0.4359    5.7517   17.9882  H     
36   H         1.8793    4.8993   16.3608  H     
37   H         4.4942    2.4339   15.8712  H     
38   H         5.5532    3.1227   17.1227  H     
39   H         5.2720    4.1917   14.5714  H     
40   H         3.6922    3.8651   18.3318  H     
41   H         2.6835    2.9252   17.2129  H     
42   H         9.5714    7.7303   16.8478  H     
43   H         7.6127    3.9799   14.4550  H     
44   H         9.9718    4.4791   14.2304  H     
45   H        10.9400    6.3599   15.4157  H     
@<TRIPOS>BOND
     1    1    4 1
     2    1    5 1
     3    1   30 2
     4    2    3 2
     5    2    4 1
     6    2    6 1
     7    5    6 2
     8    5    8 1
     9    6   22 1
    10    7    8 2
    11    7   15 1
    12    7   21 1
    13    8   10 1
    14    9   10 2
    15    9   14 1
    16    9   15 1
    17   10   11 1
    18   11   12 2
    19   12   13 1
    20   13   14 2
    21   15   16 1
    22   16   19 1
    23   16   20 1
    24   17   18 1
    25   17   20 1
    26   18   19 1
    27   18   23 1
    28   21   22 2
    29   21   23 1
    30   22   24 1
    31   23   25 1
    32   24   25 2
    33   24   26 1
    34   25   27 1
    35   26   29 2
    36   27   28 2
    37   28   29 1
    38    4   31 1
    39   11   32 1
    40   12   33 1
    41   13   34 1
    42   14   35 1
    43   16   36 1
    44   17   37 1
    45   17   38 1
    46   18   39 1
    47   20   40 1
    48   20   41 1
    49   26   42 1
    50   27   43 1
    51   28   44 1
    52   29   45 1
@<TRIPOS>PROPERTY_DATA
  Total_Score	| 7.0755
  Crash		| -0.5560
  Polar		| 2.1274
  FragIndex	| 1
  FragRMSD	| 0.665

