@<TRIPOS>MOLECULE
BindingDB_50245342
 53 57 0 0 0
SMALL
NO_CHARGES


@<TRIPOS>ATOM
1    C         0.5498    8.3368   20.0609  C     
2    C        -0.0598    7.2216   19.4549  C     
3    C         0.7036    6.3085   18.7032  C     
4    C         1.9391    8.5468   19.9203  C     
5    C         2.7048    7.6375   19.1571  C     
6    C         2.0862    6.5137   18.5689  C     
7    N         3.0169    5.7955   17.8849  N     
8    C         4.0564    7.5959   18.8035  C     
9    C         4.2152    6.4183   18.0568  C     
10   C         5.4776    6.0552   17.5284  C     
11   C         6.5868    6.9174   17.6735  C     
12   C         5.1720    8.4536   18.9716  C     
13   C         6.4122    8.1205   18.4091  C     
14   C         7.2553    9.1678   18.6766  C     
15   N         6.5865   10.0738   19.3474  N     
16   C         5.3459    9.6834   19.5450  C     
17   O         8.4210    9.3064   18.3176  O     
18   O         4.5241   10.3948   20.0964  O     
19   C         7.8159    6.6024   17.0466  C     
20   C         7.9031    6.3349   15.6465  C     
21   C         9.1502    6.0322   15.0692  C     
22   C        10.3237    6.0458   15.8438  C     
23   C        10.2422    6.3105   17.2177  C     
24   C         8.9951    6.5839   17.8241  C     
25   O        -0.2205    9.2030   20.7659  O     
26   C         2.7770    4.6584   17.0164  C     
27   C         2.7802    5.0842   15.5158  C     
28   Cl        6.5656    6.4039   14.6091  Cl    
29   C         3.0797    3.9404   14.5099  C     
30   O         1.5698    5.7830   15.2123  O     
31   N         2.3070    3.9841   13.2357  N     
32   C         2.7590    3.0772   12.1763  C     
33   H        -1.0678    7.0827   19.5431  H     
34   H         0.2445    5.5072   18.2698  H     
35   H         2.3719    9.3511   20.3756  H     
36   H         5.5801    5.1799   17.0113  H     
37   H         6.9518   10.9304   19.6160  H     
38   H         9.2177    5.8259   14.0731  H     
39   H        11.2217    5.8376   15.4095  H     
40   H        11.0894    6.3350   17.7809  H     
41   H         8.9712    6.7418   18.8333  H     
42   H         0.1224   10.1008   20.5670  H     
43   H         3.5675    3.9200   17.2124  H     
44   H         1.8310    4.1547   17.2294  H     
45   H         3.5688    5.8299   15.3613  H     
46   H         4.1365    4.0145   14.2243  H     
47   H         2.9838    2.9771   15.0203  H     
48   H         0.8981    5.1101   14.9662  H     
49   H         1.3200    3.7952   13.4096  H     
50   H         2.3690    4.9422   12.8726  H     
51   H         3.8031    3.2630   11.9118  H     
52   H         2.1445    3.2474   11.2827  H     
53   H         2.6397    2.0378   12.4880  H     
@<TRIPOS>BOND
     1    1    2 2
     2    1    4 1
     3    1   25 1
     4    2    3 1
     5    3    6 2
     6    4    5 2
     7    5    6 1
     8    5    8 1
     9    6    7 1
    10    7    9 1
    11    7   26 1
    12    8    9 2
    13    8   12 1
    14    9   10 1
    15   10   11 2
    16   11   13 1
    17   11   19 1
    18   12   13 2
    19   12   16 1
    20   13   14 1
    21   14   15 1
    22   14   17 2
    23   15   16 1
    24   16   18 2
    25   19   20 2
    26   19   24 1
    27   20   21 1
    28   20   28 1
    29   21   22 2
    30   22   23 1
    31   23   24 2
    32   26   27 1
    33   27   29 1
    34   27   30 1
    35   29   31 1
    36   31   32 1
    37    2   33 1
    38    3   34 1
    39    4   35 1
    40   10   36 1
    41   15   37 1
    42   21   38 1
    43   22   39 1
    44   23   40 1
    45   24   41 1
    46   25   42 1
    47   26   43 1
    48   26   44 1
    49   27   45 1
    50   29   46 1
    51   29   47 1
    52   30   48 1
    53   31   49 1
    54   31   50 1
    55   32   51 1
    56   32   52 1
    57   32   53 1
@<TRIPOS>PROPERTY_DATA
  Total_Score	| 10.2348
  Crash		| -1.8337
  Polar		| 6.7901
  FragIndex	| 1
  FragRMSD	| 0.647

