@<TRIPOS>MOLECULE
BindingDB_50280450
 63 70 0 0 0
SMALL
NO_CHARGES


@<TRIPOS>ATOM
1    C         5.0228    3.9642   16.0062  C     
2    N         5.9031    5.1030   16.3282  N     
3    N         3.0556    6.1486   17.2661  N     
4    C         5.5526    6.1810   17.1002  C     
5    C         4.2792    6.6666   17.5005  C     
6    O         3.8610    3.9298   16.8611  O     
7    C         2.7885    4.8586   16.6761  C     
8    C         5.3424    8.5069   18.7110  C     
9    C         4.1742    7.7844   18.3540  C     
10   C         6.6766    6.9813   17.3532  C     
11   C         6.5833    8.1158   18.1894  C     
12   C         5.5791    9.6177   19.4717  C     
13   N         6.8569    9.9198   19.4456  N     
14   C         7.2120    5.2968   15.9628  C     
15   C         2.1625    6.8577   18.0032  C     
16   C         4.5173    3.7781   14.5168  C     
17   C         7.6338    9.0216   18.6732  C     
18   C         7.7100    6.4465   16.5988  C     
19   C         2.8279    7.8693   18.7126  C     
20   C         2.2393    4.8779   15.2217  C     
21   C         3.2869    4.6557   14.0858  C     
22   O         4.7770   10.3154   20.0678  O     
23   O         5.6035    3.9343   13.5826  O     
24   C         5.7077    2.6492   16.5048  C     
25   O         8.5724    8.3570   19.5159  O     
26   N         3.5859    5.8947   13.3139  N     
27   C         8.0865    4.5861   15.1010  C     
28   C         0.7802    6.6394   18.1979  C     
29   C         9.0189    6.9198   16.3743  C     
30   C         2.1254    8.6603   19.6461  C     
31   C         4.4013    6.9234   13.9554  C     
32   C         0.7566    8.4143   19.8725  C     
33   C         9.8580    6.2168   15.4934  C     
34   C         9.3936    5.0510   14.8596  C     
35   C         0.0853    7.4084   19.1493  C     
36   C         5.4532    3.3603   12.2727  C     
37   H         2.0114    4.3911   17.2887  H     
38   H         7.2296   10.6902   19.9052  H     
39   H         4.1586    2.7431   14.4555  H     
40   H         8.1271    9.5532   17.8568  H     
41   H         1.5003    4.0716   15.1508  H     
42   H         1.6895    5.8087   15.0547  H     
43   H         2.7574    4.0630   13.3313  H     
44   H         6.6168    2.4166   15.9606  H     
45   H         5.0399    1.7931   16.3903  H     
46   H         5.9550    2.7257   17.5645  H     
47   H         8.8409    7.5475   19.0341  H     
48   H         4.0597    5.6402   12.4392  H     
49   H         2.6935    6.3197   13.0531  H     
50   H         7.7953    3.7384   14.6215  H     
51   H         0.2818    5.9145   17.6802  H     
52   H         9.3595    7.7712   16.8147  H     
53   H         2.5876    9.3717   20.2048  H     
54   H         4.0498    7.9199   13.6593  H     
55   H         5.4429    6.8130   13.6525  H     
56   H         4.3373    6.8154   15.0311  H     
57   H         0.2473    8.9665   20.5676  H     
58   H        10.8058    6.5526   15.3120  H     
59   H        10.0084    4.5416   14.2197  H     
60   H        -0.9087    7.2326   19.3161  H     
61   H         5.3260    2.2786   12.3410  H     
62   H         6.3582    3.5615   11.7005  H     
63   H         4.6039    3.7945   11.7396  H     
@<TRIPOS>BOND
     1    1    2 1
     2    1    6 1
     3    1   16 1
     4    1   24 1
     5    2    4 1
     6    2   14 1
     7    3    5 1
     8    3    7 1
     9    3   15 1
    10    4    5 1
    11    4   10 2
    12    5    9 2
    13    6    7 1
    14    7   20 1
    15    8    9 1
    16    8   11 2
    17    8   12 1
    18    9   19 1
    19   10   11 1
    20   10   18 1
    21   11   17 1
    22   12   13 1
    23   12   22 2
    24   13   17 1
    25   14   18 2
    26   14   27 1
    27   15   19 2
    28   15   28 1
    29   16   21 1
    30   16   23 1
    31   17   25 1
    32   18   29 1
    33   19   30 1
    34   20   21 1
    35   21   26 1
    36   23   36 1
    37   26   31 1
    38   27   34 2
    39   28   35 2
    40   29   33 2
    41   30   32 2
    42   32   35 1
    43   33   34 1
    44    7   37 1
    45   13   38 1
    46   16   39 1
    47   17   40 1
    48   20   41 1
    49   20   42 1
    50   21   43 1
    51   24   44 1
    52   24   45 1
    53   24   46 1
    54   25   47 1
    55   26   48 1
    56   26   49 1
    57   27   50 1
    58   28   51 1
    59   29   52 1
    60   30   53 1
    61   31   54 1
    62   31   55 1
    63   31   56 1
    64   32   57 1
    65   33   58 1
    66   34   59 1
    67   35   60 1
    68   36   61 1
    69   36   62 1
    70   36   63 1
@<TRIPOS>PROPERTY_DATA
  Total_Score	| 10.3504
  Crash		| -1.1352
  Polar		| 3.1965
  FragIndex	| 1
  FragRMSD	| 1.153

