@<TRIPOS>MOLECULE
BindingDB_2579
 62 69 0 0 0
SMALL
NO_CHARGES


@<TRIPOS>ATOM
1    C         7.6652    9.1979   18.1970  C     
2    C         5.7332    9.7711   19.2612  C     
3    N         6.9741   10.1210   19.0174  N     
4    O         4.9905   10.5080   19.8854  O     
5    C         5.4469    8.5823   18.6438  C     
6    C         6.6118    8.2006   17.9727  C     
7    C         4.2870    7.7798   18.5093  C     
8    C         4.3150    6.6113   17.7195  C     
9    C         2.2589    6.8414   18.3995  C     
10   C         2.9853    7.8920   18.9805  C     
11   C         0.8788    6.7122   18.6544  C     
12   C         0.2482    7.6280   19.5167  C     
13   C         0.9858    8.6683   20.1149  C     
14   C         2.3594    8.8067   19.8500  C     
15   N         3.0802    6.0794   17.6387  N     
16   C         5.5140    6.1834   17.1036  C     
17   C         6.6369    7.0178   17.2019  C     
18   C         7.0955    5.2619   15.8824  C     
19   C         7.6224    6.4511   16.4090  C     
20   C         7.9413    4.4889   15.0488  C     
21   C         8.9245    6.8997   16.1065  C     
22   C         9.7339    6.1293   15.2566  C     
23   C         9.2444    4.9218   14.7357  C     
24   N         5.8093    5.0945   16.3347  N     
25   C         2.2478    5.1754   15.4378  C     
26   C         2.7372    4.9023   16.8947  C     
27   C         4.9142    3.9521   16.1174  C     
28   C         4.3449    3.8031   14.6614  C     
29   O         3.7781    3.9274   17.0084  O     
30   C         3.2500    4.8492   14.2804  C     
31   N         3.7191    6.0213   13.4832  N     
32   C         4.5882    7.0535   14.0718  C     
33   O         5.4103    3.8010   13.6932  O     
34   C         5.1347    3.2468   12.3984  C     
35   C         5.6060    2.6263   16.5748  C     
36   H         7.9708    9.6778   17.2649  H     
37   H         8.5229    8.7749   18.7253  H     
38   H         7.3603   10.9579   19.3248  H     
39   H         0.3297    5.9688   18.2206  H     
40   H        -0.7536    7.5397   19.7090  H     
41   H         0.5181    9.3280   20.7421  H     
42   H         2.8656    9.5570   20.3050  H     
43   H         7.6387    3.6081   14.6469  H     
44   H         9.2894    7.7717   16.4861  H     
45   H        10.6801    6.4401   15.0267  H     
46   H         9.8387    4.3556   14.1261  H     
47   H         1.3499    4.5677   15.2856  H     
48   H         1.9177    6.2110   15.3526  H     
49   H         1.9117    4.4212   17.4263  H     
50   H         3.8490    2.8228   14.6436  H     
51   H         2.6396    4.3365   13.5286  H     
52   H         4.1826    5.6741   12.6359  H     
53   H         2.8768    6.5046   13.1678  H     
54   H         4.2478    7.3207   15.0672  H     
55   H         4.5102    7.9416   13.4451  H     
56   H         5.6427    6.7590   14.0978  H     
57   H         4.7862    2.2174   12.4820  H     
58   H         6.0562    3.2562   11.8126  H     
59   H         4.3899    3.8400   11.8747  H     
60   H         6.3929    2.3107   15.8988  H     
61   H         4.8868    1.8013   16.6136  H     
62   H         6.0338    2.7388   17.5747  H     
@<TRIPOS>BOND
     1    1    3 1
     2    1    6 1
     3    2    3 1
     4    2    4 2
     5    2    5 1
     6    5    6 2
     7    5    7 1
     8    6   17 1
     9    7    8 2
    10    7   10 1
    11    8   15 1
    12    8   16 1
    13    9   10 2
    14    9   11 1
    15    9   15 1
    16   10   14 1
    17   11   12 2
    18   12   13 1
    19   13   14 2
    20   26   15 1
    21   16   17 2
    22   16   24 1
    23   17   19 1
    24   18   19 2
    25   18   20 1
    26   18   24 1
    27   19   21 1
    28   20   23 2
    29   21   22 2
    30   22   23 1
    31   27   24 1
    32   25   26 1
    33   25   30 1
    34   26   29 1
    35   27   28 1
    36   27   29 1
    37   27   35 1
    38   28   30 1
    39   28   33 1
    40   30   31 1
    41   31   32 1
    42   33   34 1
    43    1   36 1
    44    1   37 1
    45    3   38 1
    46   11   39 1
    47   12   40 1
    48   13   41 1
    49   14   42 1
    50   20   43 1
    51   21   44 1
    52   22   45 1
    53   23   46 1
    54   25   47 1
    55   25   48 1
    56   26   49 1
    57   28   50 1
    58   30   51 1
    59   31   52 1
    60   31   53 1
    61   32   54 1
    62   32   55 1
    63   32   56 1
    64   34   57 1
    65   34   58 1
    66   34   59 1
    67   35   60 1
    68   35   61 1
    69   35   62 1
@<TRIPOS>PROPERTY_DATA
  Total_Score	| 9.4222
  Crash		| -1.1108
  Polar		| 3.3605
  FragIndex	| 1
  FragRMSD	| 1.341

