@<TRIPOS>MOLECULE
BindingDB_50332132
 48 51 0 0 0
SMALL
NO_CHARGES


@<TRIPOS>ATOM
1    N        15.0880   -2.7620   12.0343  N     
2    C        14.4829   -1.7728   11.3274  C     
3    C        15.1843   -1.0578   10.3279  C     
4    C        16.3824   -3.1507   11.8588  C     
5    C        17.1437   -2.4832   10.8804  C     
6    C        16.5360   -1.4527   10.1386  C     
7    S        17.7433   -0.8571    9.0702  S     
8    C        19.0369   -1.8971    9.5376  C     
9    C        18.4961   -2.7191   10.5430  C     
10   C        20.3539   -1.8885    8.9864  C     
11   C        21.3619   -2.7787    9.4404  C     
12   C        22.6611   -2.7674    8.8966  C     
13   C        22.9754   -1.8743    7.8529  C     
14   C        21.9971   -0.9844    7.3810  C     
15   C        20.7141   -0.9796    7.9529  C     
16   C        14.6045   -0.0061    9.6146  C     
17   N        13.3732    0.4091    9.8089  N     
18   O        15.2444    0.6352    8.7935  O     
19   N        16.9236   -4.1364   12.6113  N     
20   C        16.2512   -4.9025   13.6194  C     
21   C        16.4858   -4.2739   15.0224  C     
22   N        15.8645   -5.1017   16.0787  N     
23   C        16.3266   -6.5061   16.1129  C     
24   C        16.1274   -7.2041   14.7435  C     
25   C        16.7506   -6.3737   13.5925  C     
26   N        23.6059   -3.6014    9.3684  N     
27   H        13.5145   -1.5522   11.5695  H     
28   H        19.0416   -3.4432   11.0105  H     
29   H        21.1668   -3.4411   10.1942  H     
30   H        23.9103   -1.8650    7.4411  H     
31   H        22.2244   -0.3328    6.6219  H     
32   H        20.0395   -0.3040    7.5906  H     
33   H        13.0700    1.2089    9.3548  H     
34   H        12.7818   -0.0341   10.4390  H     
35   H        17.8674   -4.3226   12.4811  H     
36   H        15.1712   -4.9218   13.4252  H     
37   H        17.5538   -4.1646   15.2209  H     
38   H        16.0292   -3.2781   15.0587  H     
39   H        16.0257   -4.6649   16.9924  H     
40   H        14.8574   -5.1052   15.9194  H     
41   H        17.3797   -6.5328   16.3980  H     
42   H        15.7506   -7.0390   16.8780  H     
43   H        16.5963   -8.1894   14.7751  H     
44   H        15.0586   -7.3409   14.5582  H     
45   H        16.4856   -6.8347   12.6334  H     
46   H        17.8436   -6.3960   13.6861  H     
47   H        24.4995   -3.5888    8.9932  H     
48   H        23.3976   -4.2101   10.0943  H     
@<TRIPOS>BOND
     1    1    2 1
     2    1    4 2
     3    2    3 2
     4    3    6 1
     5    3   16 1
     6    4    5 1
     7    4   19 1
     8    5    6 2
     9    5    9 1
    10    6    7 1
    11    7    8 1
    12    8    9 2
    13    8   10 1
    14   10   11 2
    15   10   15 1
    16   11   12 1
    17   12   13 2
    18   12   26 1
    19   13   14 1
    20   14   15 2
    21   16   17 am
    22   16   18 2
    23   20   19 1
    24   20   21 1
    25   20   25 1
    26   21   22 1
    27   22   23 1
    28   23   24 1
    29   24   25 1
    30    2   27 1
    31    9   28 1
    32   11   29 1
    33   13   30 1
    34   14   31 1
    35   15   32 1
    36   17   33 1
    37   17   34 1
    38   19   35 1
    39   20   36 1
    40   21   37 1
    41   21   38 1
    42   22   39 1
    43   22   40 1
    44   23   41 1
    45   23   42 1
    46   24   43 1
    47   24   44 1
    48   25   45 1
    49   25   46 1
    50   26   47 1
    51   26   48 1
@<TRIPOS>PROPERTY_DATA
  Total_Score	| 6.6497
  Crash		| -0.5558
  Polar		| 4.0404
  FragIndex	| 1
  FragRMSD	| 0.405

