@<TRIPOS>MOLECULE
BindingDB_50332171
 45 48 0 0 0
SMALL
NO_CHARGES


@<TRIPOS>ATOM
1    C        18.2955   -2.9145   10.1844  C     
2    C        18.8799   -2.0013    9.3904  C     
3    S        17.7817   -0.7383    9.0142  S     
4    C        16.5699   -1.5050    9.9398  C     
5    C        17.0059   -2.6683   10.4920  C     
6    C        15.2993   -1.0717   10.1578  C     
7    N        14.5362   -1.8578   10.9030  N     
8    N        14.9245   -2.9222   11.4170  N     
9    C        16.1514   -3.3893   11.2669  C     
10   N        16.5059   -4.4994   11.8485  N     
11   C        20.1918   -2.0403    8.8655  C     
12   C        14.7682    0.0989    9.7034  C     
13   C        16.0609   -4.9372   13.1047  C     
14   C        16.5509   -3.9943   14.2484  C     
15   N        16.1596   -4.4930   15.5853  N     
16   C        16.6153   -5.8723   15.8788  C     
17   C        16.1198   -6.8663   14.7993  C     
18   C        16.5350   -6.3954   13.3797  C     
19   C        20.8452   -0.8673    8.3999  C     
20   C        22.1364   -0.9006    7.8413  C     
21   C        22.8217   -2.1203    7.7282  C     
22   C        22.2133   -3.3013    8.1893  C     
23   C        20.9210   -3.2534    8.7497  C     
24   Cl       24.3759   -2.1620    7.0496  Cl    
25   N        13.6557    0.6062   10.1914  N     
26   O        15.3219    0.7500    8.8254  O     
27   H        18.7716   -3.7086   10.5410  H     
28   H        17.1557   -5.0190   11.4195  H     
29   H        14.9643   -4.9520   13.1188  H     
30   H        17.6392   -3.8866   14.2111  H     
31   H        16.1097   -3.0035   14.1236  H     
32   H        16.5521   -3.8688   16.2953  H     
33   H        15.1375   -4.4696   15.6567  H     
34   H        17.7059   -5.8932   15.9307  H     
35   H        16.2223   -6.1711   16.8519  H     
36   H        16.5338   -7.8596   14.9957  H     
37   H        15.0290   -6.9400   14.8489  H     
38   H        16.0969   -7.0678   12.6334  H     
39   H        17.6236   -6.4554   13.2844  H     
40   H        20.3925    0.0435    8.4698  H     
41   H        22.5812   -0.0363    7.5168  H     
42   H        22.7053   -4.1937    8.1089  H     
43   H        20.5159   -4.1364    9.0468  H     
44   H        13.3140    1.4423    9.8426  H     
45   H        13.1867    0.1702   10.9171  H     
@<TRIPOS>BOND
     1    1    2 2
     2    1    5 1
     3    2    3 1
     4    2   11 1
     5    3    4 1
     6    4    5 1
     7    4    6 2
     8    5    9 2
     9    6    7 1
    10    6   12 1
    11    7    8 2
    12    8    9 1
    13    9   10 1
    14   13   10 1
    15   11   19 1
    16   11   23 2
    17   12   25 am
    18   12   26 2
    19   13   14 1
    20   13   18 1
    21   14   15 1
    22   15   16 1
    23   16   17 1
    24   17   18 1
    25   19   20 2
    26   20   21 1
    27   21   22 2
    28   21   24 1
    29   22   23 1
    30    1   27 1
    31   10   28 1
    32   13   29 1
    33   14   30 1
    34   14   31 1
    35   15   32 1
    36   15   33 1
    37   16   34 1
    38   16   35 1
    39   17   36 1
    40   17   37 1
    41   18   38 1
    42   18   39 1
    43   19   40 1
    44   20   41 1
    45   22   42 1
    46   23   43 1
    47   25   44 1
    48   25   45 1
@<TRIPOS>PROPERTY_DATA
  Total_Score	| 7.5238
  Crash		| -1.2412
  Polar		| 5.2345
  FragIndex	| 1
  FragRMSD	| 0.131

