@<TRIPOS>MOLECULE
BindingDB_50332127
 49 52 0 0 0
SMALL
NO_CHARGES


@<TRIPOS>ATOM
1    N        14.3271   -2.4221   12.1701  N     
2    C        13.9024   -1.5285   11.2480  C     
3    C        14.7959   -1.0113   10.2810  C     
4    C        15.5973   -2.8872   12.2810  C     
5    C        16.5531   -2.4266   11.3395  C     
6    C        16.1058   -1.5527   10.3264  C     
7    S        17.4526   -1.2523    9.3020  S     
8    C        18.6270   -2.1631   10.1700  C     
9    C        17.9449   -2.6683   11.2954  C     
10   C        20.0077   -2.2329    9.8151  C     
11   C        21.0057   -2.6112   10.7451  C     
12   C        22.3619   -2.6809   10.3715  C     
13   C        22.7521   -2.3845    9.0528  C     
14   C        21.7779   -2.0171    8.1111  C     
15   C        20.4263   -1.9366    8.4916  C     
16   Cl       24.3798   -2.4692    8.5980  Cl    
17   C        14.4218    0.0268    9.4203  C     
18   N        13.2270    0.5814    9.4432  N     
19   O        15.2242    0.5659    8.6721  O     
20   N        15.6994   -3.7670   13.3036  N     
21   C        16.7909   -4.5384   13.8181  C     
22   C        16.3168   -5.1592   15.1742  C     
23   C        17.3826   -6.0990   15.7978  C     
24   C        17.8198   -7.2023   14.8025  C     
25   C        18.2977   -6.6038   13.4566  C     
26   C        17.2454   -5.6529   12.8273  C     
27   N        15.9840   -4.0936   16.1353  N     
28   H        12.9280   -1.2303   11.2969  H     
29   H        18.4478   -2.8704   12.1497  H     
30   H        20.7637   -2.8265   11.7136  H     
31   H        23.0623   -2.9521   11.0661  H     
32   H        22.0457   -1.8041    7.1471  H     
33   H        19.7473   -1.6682    7.7772  H     
34   H        13.0422    1.3508    8.8849  H     
35   H        12.5360    0.2509   10.0369  H     
36   H        14.8701   -3.8739   13.7988  H     
37   H        17.6315   -3.8729   14.0331  H     
38   H        15.4052   -5.7431   15.0073  H     
39   H        18.2545   -5.5146   16.1023  H     
40   H        16.9708   -6.5728   16.6931  H     
41   H        18.6319   -7.7865   15.2444  H     
42   H        16.9801   -7.8793   14.6182  H     
43   H        19.2274   -6.0529   13.6146  H     
44   H        18.5156   -7.4148   12.7575  H     
45   H        16.3773   -6.2401   12.5118  H     
46   H        17.6895   -5.2054   11.9337  H     
47   H        16.8018   -3.5010   16.2762  H     
48   H        15.6976   -4.4782   17.0386  H     
49   H        15.2191   -3.5268   15.7672  H     
@<TRIPOS>BOND
     1    1    2 1
     2    1    4 2
     3    2    3 2
     4    3    6 1
     5    3   17 1
     6    4    5 1
     7    4   20 1
     8    5    6 2
     9    5    9 1
    10    6    7 1
    11    7    8 1
    12    8    9 2
    13    8   10 1
    14   10   11 2
    15   10   15 1
    16   11   12 1
    17   12   13 2
    18   13   14 1
    19   13   16 1
    20   14   15 2
    21   17   18 am
    22   17   19 2
    23   21   20 1
    24   21   22 1
    25   21   26 1
    26   22   23 1
    27   22   27 1
    28   23   24 1
    29   24   25 1
    30   25   26 1
    31    2   28 1
    32    9   29 1
    33   11   30 1
    34   12   31 1
    35   14   32 1
    36   15   33 1
    37   18   34 1
    38   18   35 1
    39   20   36 1
    40   21   37 1
    41   22   38 1
    42   23   39 1
    43   23   40 1
    44   24   41 1
    45   24   42 1
    46   25   43 1
    47   25   44 1
    48   26   45 1
    49   26   46 1
    50   27   47 1
    51   27   48 1
    52   27   49 1
@<TRIPOS>PROPERTY_DATA
  Total_Score	| 6.4225
  Crash		| -1.8336
  Polar		| 4.2082
  FragIndex	| 1
  FragRMSD	| 1.221

