@<TRIPOS>MOLECULE
BindingDB_50332133
 45 48 0 0 0
SMALL
NO_CHARGES


@<TRIPOS>ATOM
1    N        15.0108   -3.2346   11.6001  N     
2    C        14.4667   -2.0817   11.1260  C     
3    C        15.2051   -1.2061   10.2914  C     
4    C        16.2881   -3.6365   11.3532  C     
5    C        17.0870   -2.8076   10.5304  C     
6    C        16.5346   -1.6178   10.0197  C     
7    S        17.7703   -0.8702    9.0836  S     
8    C        19.0030   -2.0521    9.3170  C     
9    C        18.4272   -3.0320   10.1417  C     
10   C        20.3095   -2.0104    8.7543  C     
11   C        20.8082   -0.8264    8.1417  C     
12   C        22.0985   -0.8130    7.5749  C     
13   N        22.8645   -1.9320    7.6039  N     
14   C        22.4309   -3.0928    8.1722  C     
15   C        21.1485   -3.1499    8.7463  C     
16   C        14.6635   -0.0194    9.7786  C     
17   N        13.4646    0.4360   10.0736  N     
18   O        15.2952    0.6874    9.0100  O     
19   N        16.8014   -4.7865   11.8597  N     
20   C        16.1979   -5.8244   12.6574  C     
21   C        14.9726   -5.4333   13.5339  C     
22   N        15.3759   -4.4711   14.5805  N     
23   C        16.3664   -5.0233   15.5334  C     
24   C        17.6288   -5.5064   14.7830  C     
25   C        17.2810   -6.4492   13.5966  C     
26   H        13.5012   -1.8792   11.3830  H     
27   H        18.9469   -3.8573   10.4436  H     
28   H        20.2529    0.0327    8.0961  H     
29   H        22.4664    0.0356    7.1301  H     
30   H        23.0353   -3.9163    8.1652  H     
31   H        20.8410   -4.0394    9.1469  H     
32   H        13.1539    1.2623    9.6802  H     
33   H        12.8830   -0.0449   10.6757  H     
34   H        17.7198   -4.9636   11.6035  H     
35   H        15.8847   -6.6107   11.9617  H     
36   H        14.1802   -4.9908   12.9394  H     
37   H        14.5467   -6.3262   14.0009  H     
38   H        15.7799   -3.6460   14.1341  H     
39   H        14.5469   -4.1868   15.0985  H     
40   H        16.6349   -4.2408   16.2523  H     
41   H        15.9220   -5.8543   16.0875  H     
42   H        18.1632   -4.6335   14.4000  H     
43   H        18.2851   -6.0377   15.4830  H     
44   H        16.9061   -7.3985   13.9944  H     
45   H        18.1895   -6.6741   13.0306  H     
@<TRIPOS>BOND
     1    1    2 1
     2    1    4 2
     3    2    3 2
     4    3    6 1
     5    3   16 1
     6    4    5 1
     7    4   19 1
     8    5    6 2
     9    5    9 1
    10    6    7 1
    11    7    8 1
    12    8    9 2
    13    8   10 1
    14   10   11 2
    15   10   15 1
    16   11   12 1
    17   12   13 2
    18   13   14 1
    19   14   15 2
    20   16   17 am
    21   16   18 2
    22   20   19 1
    23   20   21 1
    24   20   25 1
    25   21   22 1
    26   22   23 1
    27   23   24 1
    28   24   25 1
    29    2   26 1
    30    9   27 1
    31   11   28 1
    32   12   29 1
    33   14   30 1
    34   15   31 1
    35   17   32 1
    36   17   33 1
    37   19   34 1
    38   20   35 1
    39   21   36 1
    40   21   37 1
    41   22   38 1
    42   22   39 1
    43   23   40 1
    44   23   41 1
    45   24   42 1
    46   24   43 1
    47   25   44 1
    48   25   45 1
@<TRIPOS>PROPERTY_DATA
  Total_Score	| 6.8574
  Crash		| -1.5716
  Polar		| 4.8437
  FragIndex	| 1
  FragRMSD	| 0.809

