@<TRIPOS>MOLECULE
BindingDB_50332173
 46 49 0 0 0
SMALL
NO_CHARGES


@<TRIPOS>ATOM
1    C        18.0927   -3.0179   10.0507  C     
2    C        18.6666   -2.0661    9.3002  C     
3    S        17.5634   -0.7989    8.9120  S     
4    C        16.3468   -1.5356    9.9075  C     
5    C        16.8180   -2.7369   10.4528  C     
6    C        15.0500   -1.0347   10.2188  C     
7    C        14.2874   -1.8181   11.1192  C     
8    N        14.7727   -2.9650   11.6365  N     
9    C        16.0005   -3.4729   11.3469  C     
10   N        16.4331   -4.6047   11.9661  N     
11   C        20.0061   -2.0334    8.8574  C     
12   C        14.5655    0.1993    9.7732  C     
13   C        15.9475   -5.0869   13.2326  C     
14   C        16.4500   -4.1456   14.3766  C     
15   N        16.1803   -4.6914   15.7307  N     
16   C        16.7568   -6.0414   15.9366  C     
17   C        16.1751   -7.0522   14.9090  C     
18   C        16.4181   -6.5589   13.4566  C     
19   C        20.5688   -0.8618    8.2720  C     
20   C        21.9254   -0.7857    7.9086  C     
21   C        22.7680   -1.8895    8.1013  C     
22   C        22.2443   -3.0793    8.6445  C     
23   C        20.8847   -3.1431    9.0144  C     
24   Cl       24.4085   -1.7986    7.6791  Cl    
25   N        13.3355    0.6250    9.9782  N     
26   O        15.2792    0.9745    9.1600  O     
27   H        18.5811   -3.8105   10.3784  H     
28   H        13.3483   -1.5508   11.4051  H     
29   H        17.2340   -5.0269   11.6240  H     
30   H        14.8464   -5.0986   13.2537  H     
31   H        17.5318   -3.9735   14.2891  H     
32   H        15.9514   -3.1730   14.3036  H     
33   H        16.5967   -4.0523   16.4103  H     
34   H        15.1587   -4.7260   15.8871  H     
35   H        17.8476   -5.9997   15.8353  H     
36   H        16.5233   -6.3752   16.9528  H     
37   H        16.6567   -8.0220   15.0497  H     
38   H        15.0998   -7.1680   15.0799  H     
39   H        15.8818   -7.2109   12.7581  H     
40   H        17.4938   -6.6462   13.2354  H     
41   H        20.0069   -0.0216    8.1289  H     
42   H        22.2894    0.0798    7.4947  H     
43   H        22.8435   -3.8990    8.7799  H     
44   H        20.5532   -4.0256    9.4092  H     
45   H        13.0676    1.4980    9.6693  H     
46   H        12.6932    0.0765   10.4481  H     
@<TRIPOS>BOND
     1    1    2 2
     2    1    5 1
     3    2    3 1
     4    2   11 1
     5    3    4 1
     6    4    5 1
     7    4    6 2
     8    5    9 2
     9    6    7 1
    10    6   12 1
    11    7    8 2
    12    8    9 1
    13    9   10 1
    14   13   10 1
    15   11   19 2
    16   11   23 1
    17   12   25 am
    18   12   26 2
    19   13   14 1
    20   13   18 1
    21   14   15 1
    22   15   16 1
    23   16   17 1
    24   17   18 1
    25   19   20 1
    26   20   21 2
    27   21   22 1
    28   21   24 1
    29   22   23 2
    30    1   27 1
    31    7   28 1
    32   10   29 1
    33   13   30 1
    34   14   31 1
    35   14   32 1
    36   15   33 1
    37   15   34 1
    38   16   35 1
    39   16   36 1
    40   17   37 1
    41   17   38 1
    42   18   39 1
    43   18   40 1
    44   19   41 1
    45   20   42 1
    46   22   43 1
    47   23   44 1
    48   25   45 1
    49   25   46 1
@<TRIPOS>PROPERTY_DATA
  Total_Score	| 7.7103
  Crash		| -0.5877
  Polar		| 5.0716
  FragIndex	| 1
  FragRMSD	| 0.254

