@<TRIPOS>MOLECULE
BindingDB_50332123
 46 49 0 0 0
SMALL
NO_CHARGES


@<TRIPOS>ATOM
1    N        14.8300   -2.9986   11.7587  N     
2    C        14.3186   -1.8782   11.1836  C     
3    C        15.1041   -1.0827   10.3119  C     
4    C        16.0997   -3.4391   11.5670  C     
5    C        16.9451   -2.6907   10.7203  C     
6    C        16.4312   -1.5333   10.1055  C     
7    S        17.7109   -0.9035    9.1463  S     
8    C        18.9159   -2.0812    9.5172  C     
9    C        18.2905   -2.9738   10.4067  C     
10   C        20.2497   -2.1167    8.9971  C     
11   C        21.1549   -3.1544    9.3338  C     
12   C        22.4592   -3.1925    8.8112  C     
13   C        22.8983   -2.1930    7.9296  C     
14   C        22.0219   -1.1558    7.5780  C     
15   C        20.7170   -1.1189    8.1093  C     
16   Cl       24.4645   -2.2415    7.2915  Cl    
17   C        14.5967    0.0733    9.7107  C     
18   N        13.3635    0.5087    9.9015  N     
19   O        15.2857    0.7619    8.9726  O     
20   N        16.5539   -4.5736   12.1492  N     
21   C        15.8261   -5.4698   12.9891  C     
22   C        16.5598   -5.7102   14.3440  C     
23   N        15.9939   -4.9869   15.5058  N     
24   C        16.3813   -5.7232   16.7218  C     
25   C        16.8239   -7.1337   16.2864  C     
26   C        16.5029   -7.1882   14.7890  C     
27   H        13.3521   -1.6349   11.4109  H     
28   H        18.7796   -3.7795   10.8062  H     
29   H        20.8815   -3.9082    9.9677  H     
30   H        23.0861   -3.9563    9.0776  H     
31   H        22.3259   -0.4194    6.9374  H     
32   H        20.1154   -0.3405    7.8254  H     
33   H        13.0861    1.3326    9.4793  H     
34   H        12.7386    0.0304   10.4681  H     
35   H        17.4588   -4.8490   11.9257  H     
36   H        14.7988   -5.1410   13.1718  H     
37   H        15.7704   -6.4069   12.4285  H     
38   H        17.6181   -5.4222   14.2540  H     
39   H        16.3552   -4.0291   15.5622  H     
40   H        14.9700   -4.9721   15.4606  H     
41   H        17.1982   -5.1970   17.2218  H     
42   H        15.5261   -5.7662   17.4005  H     
43   H        17.8985   -7.2634   16.4478  H     
44   H        16.2859   -7.9185   16.8277  H     
45   H        15.5000   -7.5982   14.6398  H     
46   H        17.2273   -7.7934   14.2401  H     
@<TRIPOS>BOND
     1    1    2 1
     2    1    4 2
     3    2    3 2
     4    3    6 1
     5    3   17 1
     6    4    5 1
     7    4   20 1
     8    5    6 2
     9    5    9 1
    10    6    7 1
    11    7    8 1
    12    8    9 2
    13    8   10 1
    14   10   11 2
    15   10   15 1
    16   11   12 1
    17   12   13 2
    18   13   14 1
    19   13   16 1
    20   14   15 2
    21   17   18 am
    22   17   19 2
    23   20   21 1
    24   22   21 1
    25   22   23 1
    26   22   26 1
    27   23   24 1
    28   24   25 1
    29   25   26 1
    30    2   27 1
    31    9   28 1
    32   11   29 1
    33   12   30 1
    34   14   31 1
    35   15   32 1
    36   18   33 1
    37   18   34 1
    38   20   35 1
    39   21   36 1
    40   21   37 1
    41   22   38 1
    42   23   39 1
    43   23   40 1
    44   24   41 1
    45   24   42 1
    46   25   43 1
    47   25   44 1
    48   26   45 1
    49   26   46 1
@<TRIPOS>PROPERTY_DATA
  Total_Score	| 5.9768
  Crash		| -0.2323
  Polar		| 3.8571
  FragIndex	| 1
  FragRMSD	| 0.603

