@<TRIPOS>MOLECULE
BindingDB_50332177
 49 52 0 0 0
SMALL
NO_CHARGES


@<TRIPOS>ATOM
1    N        14.8235   -3.0392   11.6535  N     
2    C        14.3203   -1.9987   10.9503  C     
3    C        15.1746   -1.1574   10.2028  C     
4    C        16.1382   -3.3704   11.7407  C     
5    C        17.0610   -2.5973   10.9780  C     
6    C        16.5415   -1.5331   10.2030  C     
7    S        17.8403   -0.8876    9.2779  S     
8    C        19.0783   -1.9289    9.8572  C     
9    C        18.4588   -2.7703   10.7964  C     
10   C        20.4195   -1.9850    9.3871  C     
11   C        21.4674   -2.4928   10.1918  C     
12   C        22.7788   -2.5949    9.6883  C     
13   C        23.0582   -2.2244    8.3635  C     
14   C        22.0300   -1.7135    7.5533  C     
15   C        20.7265   -1.5884    8.0670  C     
16   Cl       24.6265   -2.3817    7.7459  Cl    
17   C        14.6798   -0.0421    9.5238  C     
18   N        13.4660    0.4386    9.7103  N     
19   O        15.3785    0.6017    8.7548  O     
20   N        16.2865   -4.4028   12.6095  N     
21   C        17.3829   -4.7671   13.4563  C     
22   C        17.5524   -6.3224   13.4841  C     
23   N        17.8150   -6.9137   14.8159  N     
24   C        17.1694   -4.0702   14.8385  C     
25   C        15.9685   -4.5790   15.6795  C     
26   C        16.2841   -5.8406   16.5196  C     
27   C        16.6394   -7.1001   15.6935  C     
28   H        13.3098   -1.8463   10.9802  H     
29   H        18.9966   -3.5006   11.2448  H     
30   H        21.2939   -2.7762   11.1580  H     
31   H        23.5208   -2.9620   10.2881  H     
32   H        22.2214   -1.4361    6.5896  H     
33   H        19.9982   -1.2201    7.4527  H     
34   H        13.2014    1.2544    9.2606  H     
35   H        12.8459    0.0100   10.3209  H     
36   H        15.4404   -4.7890   12.8913  H     
37   H        18.3116   -4.3703   13.0738  H     
38   H        16.7077   -6.8253   13.0143  H     
39   H        18.4201   -6.5688   12.8757  H     
40   H        18.2244   -7.8372   14.6675  H     
41   H        18.5153   -6.3389   15.2922  H     
42   H        18.0847   -4.1467   15.4300  H     
43   H        17.0151   -3.0032   14.6598  H     
44   H        15.6814   -3.7844   16.3736  H     
45   H        15.1030   -4.7673   15.0391  H     
46   H        17.1060   -5.6109   17.2029  H     
47   H        15.4093   -6.0685   17.1319  H     
48   H        15.7685   -7.4346   15.1228  H     
49   H        16.8855   -7.9017   16.3966  H     
@<TRIPOS>BOND
     1    1    2 1
     2    1    4 2
     3    2    3 2
     4    3    6 1
     5    3   17 1
     6    4    5 1
     7    4   20 1
     8    5    6 2
     9    5    9 1
    10    6    7 1
    11    7    8 1
    12    8    9 2
    13    8   10 1
    14   10   11 2
    15   10   15 1
    16   11   12 1
    17   12   13 2
    18   13   14 1
    19   13   16 1
    20   14   15 2
    21   17   18 am
    22   17   19 2
    23   21   20 1
    24   21   22 1
    25   21   24 1
    26   22   23 1
    27   23   27 1
    28   24   25 1
    29   25   26 1
    30   26   27 1
    31    2   28 1
    32    9   29 1
    33   11   30 1
    34   12   31 1
    35   14   32 1
    36   15   33 1
    37   18   34 1
    38   18   35 1
    39   20   36 1
    40   21   37 1
    41   22   38 1
    42   22   39 1
    43   23   40 1
    44   23   41 1
    45   24   42 1
    46   24   43 1
    47   25   44 1
    48   25   45 1
    49   26   46 1
    50   26   47 1
    51   27   48 1
    52   27   49 1
@<TRIPOS>PROPERTY_DATA
  Total_Score	| 6.7884
  Crash		| -0.8950
  Polar		| 3.6286
  FragIndex	| 1
  FragRMSD	| 1.188

