@<TRIPOS>MOLECULE
BindingDB_50332130
 46 49 0 0 0
SMALL
NO_CHARGES


@<TRIPOS>ATOM
1    N        14.9148   -2.8849   11.7967  N     
2    C        14.3685   -1.7931   11.2053  C     
3    C        15.0898   -1.0372   10.2483  C     
4    C        16.1481   -3.3719   11.5103  C     
5    C        16.9293   -2.6725   10.5629  C     
6    C        16.3928   -1.5139    9.9726  C     
7    S        17.6396   -0.8865    8.9692  S     
8    C        18.8551   -2.0672    9.2807  C     
9    C        18.2565   -2.9717   10.1739  C     
10   C        20.1794   -2.0602    8.7425  C     
11   C        21.0818   -3.1442    8.9601  C     
12   C        22.3874   -3.1136    8.4339  C     
13   C        22.8220   -2.0061    7.6857  C     
14   C        21.9445   -0.9312    7.4472  C     
15   C        20.6464   -0.9578    7.9794  C     
16   C        14.5749    0.1273    9.6667  C     
17   N        13.4062    0.6513    9.9812  N     
18   O        15.2136    0.7676    8.8436  O     
19   N        16.6448   -4.4741   12.1134  N     
20   C        16.1678   -5.1120   13.3031  C     
21   C        16.6134   -4.2498   14.5306  C     
22   N        16.1419   -4.8243   15.8140  N     
23   C        16.5875   -6.2202   16.0489  C     
24   C        16.1725   -7.1408   14.8657  C     
25   C        16.6634   -6.5778   13.5079  C     
26   Cl       23.4519   -4.4026    8.7253  Cl    
27   H        13.4363   -1.5134   11.5047  H     
28   H        18.7651   -3.7687   10.5558  H     
29   H        20.7886   -3.9703    9.4912  H     
30   H        23.7720   -1.9709    7.3084  H     
31   H        22.2556   -0.1191    6.9065  H     
32   H        20.0501   -0.1418    7.7958  H     
33   H        13.1250    1.4803    9.5627  H     
34   H        12.8357    0.2416   10.6463  H     
35   H        17.4924   -4.7932   11.7855  H     
36   H        15.0668   -5.1047   13.2869  H     
37   H        17.7098   -4.1778   14.5537  H     
38   H        16.2042   -3.2381   14.4439  H     
39   H        16.5102   -4.2513   16.5853  H     
40   H        15.1157   -4.7950   15.8308  H     
41   H        17.6820   -6.2512   16.1470  H     
42   H        16.1324   -6.5830   16.9745  H     
43   H        16.5835   -8.1486   15.0231  H     
44   H        15.0754   -7.2143   14.8581  H     
45   H        16.2640   -7.2165   12.7114  H     
46   H        17.7634   -6.6108   13.4706  H     
@<TRIPOS>BOND
     1    1    2 1
     2    1    4 2
     3    2    3 2
     4    3    6 1
     5    3   16 1
     6    4    5 1
     7    4   19 1
     8    5    6 2
     9    5    9 1
    10    6    7 1
    11    7    8 1
    12    8    9 2
    13    8   10 1
    14   10   11 2
    15   10   15 1
    16   11   12 1
    17   12   13 2
    18   12   26 1
    19   13   14 1
    20   14   15 2
    21   16   17 am
    22   16   18 2
    23   20   19 1
    24   20   21 1
    25   20   25 1
    26   21   22 1
    27   22   23 1
    28   23   24 1
    29   24   25 1
    30    2   27 1
    31    9   28 1
    32   11   29 1
    33   13   30 1
    34   14   31 1
    35   15   32 1
    36   17   33 1
    37   17   34 1
    38   19   35 1
    39   20   36 1
    40   21   37 1
    41   21   38 1
    42   22   39 1
    43   22   40 1
    44   23   41 1
    45   23   42 1
    46   24   43 1
    47   24   44 1
    48   25   45 1
    49   25   46 1
@<TRIPOS>PROPERTY_DATA
  Total_Score	| 7.2016
  Crash		| -0.4604
  Polar		| 4.6329
  FragIndex	| 1
  FragRMSD	| 0.255

