@<TRIPOS>MOLECULE
BindingDB_50332125
 46 49 0 0 0
SMALL
NO_CHARGES


@<TRIPOS>ATOM
1    N        14.4454   -2.8031   11.8772  N     
2    C        14.0121   -1.6883   11.2454  C     
3    C        14.8568   -1.0089   10.3400  C     
4    C        15.6767   -3.3796   11.7708  C     
5    C        16.6094   -2.6935   10.9290  C     
6    C        16.1569   -1.5515   10.2260  C     
7    S        17.4693   -0.9851    9.2741  S     
8    C        18.6501   -2.1245    9.7767  C     
9    C        17.9894   -2.9526   10.7163  C     
10   C        19.9905   -2.1717    9.2695  C     
11   C        20.8572   -3.2475    9.5872  C     
12   C        22.1312   -3.3513    9.0026  C     
13   C        22.5827   -2.3770    8.0948  C     
14   C        21.7614   -1.2808    7.7981  C     
15   C        20.4829   -1.1786    8.3827  C     
16   Cl       24.0942   -2.5340    7.3429  Cl    
17   C        14.4240    0.1327    9.6537  C     
18   N        13.2179    0.6431    9.7926  N     
19   O        15.1529    0.7440    8.8809  O     
20   N        15.8429   -4.5659   12.4506  N     
21   C        14.9670   -4.9786   13.5475  C     
22   C        15.8053   -5.1658   14.8498  C     
23   C        17.0161   -6.1159   14.6063  C     
24   C        17.8137   -5.7337   13.3297  C     
25   C        16.8572   -5.5499   12.1199  C     
26   N        16.2244   -3.8274   15.3029  N     
27   H        13.0568   -1.3759   11.4332  H     
28   H        18.4624   -3.7123   11.2163  H     
29   H        20.5568   -3.9883   10.2224  H     
30   H        22.7280   -4.1492    9.2344  H     
31   H        22.0780   -0.5538    7.1486  H     
32   H        19.9158   -0.3700    8.1283  H     
33   H        12.9792    1.4485    9.3096  H     
34   H        12.5564    0.2321   10.3768  H     
35   H        14.1676   -4.2690   13.7784  H     
36   H        14.4824   -5.9294   13.2997  H     
37   H        15.1701   -5.5932   15.6354  H     
38   H        17.6791   -6.0977   15.4808  H     
39   H        16.6350   -7.1384   14.4972  H     
40   H        18.3544   -4.7967   13.5132  H     
41   H        18.5441   -6.5103   13.1132  H     
42   H        16.3749   -6.5132   11.9029  H     
43   H        17.4238   -5.2739   11.2159  H     
44   H        16.7782   -3.3719   14.5735  H     
45   H        16.7817   -3.8659   16.1632  H     
46   H        15.3820   -3.2667   15.4772  H     
@<TRIPOS>BOND
     1    1    2 1
     2    1    4 2
     3    2    3 2
     4    3    6 1
     5    3   17 1
     6    4    5 1
     7    4   20 1
     8    5    6 2
     9    5    9 1
    10    6    7 1
    11    7    8 1
    12    8    9 2
    13    8   10 1
    14   10   11 2
    15   10   15 1
    16   11   12 1
    17   12   13 2
    18   13   14 1
    19   13   16 1
    20   14   15 2
    21   17   18 am
    22   17   19 2
    23   20   21 1
    24   20   25 1
    25   21   22 1
    26   22   23 1
    27   22   26 1
    28   23   24 1
    29   24   25 1
    30    2   27 1
    31    9   28 1
    32   11   29 1
    33   12   30 1
    34   14   31 1
    35   15   32 1
    36   18   33 1
    37   18   34 1
    38   21   35 1
    39   21   36 1
    40   22   37 1
    41   23   38 1
    42   23   39 1
    43   24   40 1
    44   24   41 1
    45   25   42 1
    46   25   43 1
    47   26   44 1
    48   26   45 1
    49   26   46 1
@<TRIPOS>PROPERTY_DATA
  Total_Score	| 6.4116
  Crash		| -1.2762
  Polar		| 4.2319
  FragIndex	| 1
  FragRMSD	| 0.734

