@<TRIPOS>MOLECULE
BindingDB_50332174
 43 46 0 0 0
SMALL
NO_CHARGES


@<TRIPOS>ATOM
1    N        14.8167   -2.9643   11.8323  N     
2    C        14.3152   -1.8724   11.2075  C     
3    C        15.1210   -1.0962   10.3403  C     
4    C        16.0936   -3.4152   11.6880  C     
5    C        16.9487   -2.7116   10.8140  C     
6    C        16.4504   -1.5652   10.1675  C     
7    S        17.7492   -0.9635    9.2148  S     
8    C        18.9345   -2.1525    9.6088  C     
9    C        18.2888   -3.0303   10.4975  C     
10   C        20.2649   -2.2067    9.0935  C     
11   C        20.7368   -1.1984    8.2131  C     
12   C        22.0338   -1.2462    7.6728  C     
13   C        22.8983   -2.3023    8.0050  C     
14   C        22.4590   -3.3079    8.8840  C     
15   C        21.1573   -3.2589    9.4212  C     
16   Cl       24.4604   -2.3627    7.3530  Cl    
17   C        14.6282    0.0443    9.7030  C     
18   N        13.4137    0.5148    9.8997  N     
19   O        15.3146    0.6930    8.9279  O     
20   N        16.5362   -4.4867   12.3896  N     
21   C        15.7605   -5.2729   13.3080  C     
22   C        16.2068   -4.9940   14.7549  C     
23   N        17.2971   -5.9406   15.0288  N     
24   C        17.1619   -7.1003   14.1293  C     
25   C        16.0403   -6.7765   13.1200  C     
26   H        13.3400   -1.6336   11.3914  H     
27   H        18.7479   -3.8537   10.8877  H     
28   H        20.1422   -0.4140    7.9429  H     
29   H        22.3403   -0.5074    7.0333  H     
30   H        23.0826   -4.0770    9.1385  H     
31   H        20.8826   -4.0087   10.0554  H     
32   H        13.1359    1.3215    9.4418  H     
33   H        12.7948    0.0774   10.5054  H     
34   H        17.4797   -4.7034   12.3130  H     
35   H        14.6848   -5.0926   13.2101  H     
36   H        16.5430   -3.9645   14.8987  H     
37   H        15.3778   -5.1888   15.4411  H     
38   H        18.1979   -5.4938   14.8457  H     
39   H        17.2684   -6.2360   16.0058  H     
40   H        18.1132   -7.2513   13.6141  H     
41   H        16.9236   -7.9963   14.7057  H     
42   H        15.1461   -7.3559   13.3677  H     
43   H        16.3322   -7.0180   12.0940  H     
@<TRIPOS>BOND
     1    1    2 1
     2    1    4 2
     3    2    3 2
     4    3    6 1
     5    3   17 1
     6    4    5 1
     7    4   20 1
     8    5    6 2
     9    5    9 1
    10    6    7 1
    11    7    8 1
    12    8    9 2
    13    8   10 1
    14   10   11 2
    15   10   15 1
    16   11   12 1
    17   12   13 2
    18   13   14 1
    19   13   16 1
    20   14   15 2
    21   17   18 am
    22   17   19 2
    23   21   20 1
    24   21   22 1
    25   21   25 1
    26   22   23 1
    27   23   24 1
    28   24   25 1
    29    2   26 1
    30    9   27 1
    31   11   28 1
    32   12   29 1
    33   14   30 1
    34   15   31 1
    35   18   32 1
    36   18   33 1
    37   20   34 1
    38   21   35 1
    39   22   36 1
    40   22   37 1
    41   23   38 1
    42   23   39 1
    43   24   40 1
    44   24   41 1
    45   25   42 1
    46   25   43 1
@<TRIPOS>PROPERTY_DATA
  Total_Score	| 6.4969
  Crash		| -0.2634
  Polar		| 3.7589
  FragIndex	| 1
  FragRMSD	| 0.590

