@<TRIPOS>MOLECULE
BindingDB_50332126
 46 49 0 0 0
SMALL
NO_CHARGES


@<TRIPOS>ATOM
1    N        15.5713   -2.8526   11.9383  N     
2    C        14.8612   -1.9474   11.2137  C     
3    C        15.4922   -1.1571   10.2222  C     
4    C        16.8957   -3.1115   11.7753  C     
5    C        17.5622   -2.4359   10.7304  C     
6    C        16.8571   -1.4659    9.9892  C     
7    S        17.9987   -0.7966    8.8844  S     
8    C        19.3729   -1.7301    9.3415  C     
9    C        18.9194   -2.5724   10.3716  C     
10   C        20.6832   -1.6215    8.7940  C     
11   C        21.7456   -2.4574    9.2164  C     
12   C        23.0425   -2.3315    8.6828  C     
13   C        23.3125   -1.3644    7.6991  C     
14   C        22.2775   -0.5155    7.2689  C     
15   C        20.9822   -0.6477    7.8087  C     
16   Cl       24.8665   -1.2190    7.0459  Cl    
17   C        14.8273   -0.1212    9.5547  C     
18   N        13.5988    0.2600    9.8296  N     
19   O        15.3960    0.5623    8.7128  O     
20   N        17.6013   -3.9411   12.5879  N     
21   C        17.2753   -4.5740   13.8362  C     
22   C        16.0182   -4.0947   14.6203  C     
23   N        14.7470   -4.6018   14.0570  N     
24   C        14.6864   -6.0608   13.7989  C     
25   C        15.9158   -6.5730   12.9962  C     
26   C        17.2401   -6.1183   13.6626  C     
27   H        13.8745   -1.8249   11.4477  H     
28   H        19.5342   -3.2361   10.8449  H     
29   H        21.5956   -3.1829    9.9171  H     
30   H        23.7889   -2.9544    9.0094  H     
31   H        22.4649    0.2009    6.5621  H     
32   H        20.2623   -0.0079    7.4721  H     
33   H        13.2366    1.0432    9.3851  H     
34   H        13.0681   -0.2058   10.4927  H     
35   H        18.5228   -4.0823   12.3175  H     
36   H        18.1274   -4.3384   14.4851  H     
37   H        16.0835   -4.4282   15.6598  H     
38   H        15.9890   -3.0032   14.6408  H     
39   H        14.0236   -4.3645   14.7292  H     
40   H        14.5444   -4.0975   13.1963  H     
41   H        14.6208   -6.5929   14.7537  H     
42   H        13.7779   -6.2637   13.2244  H     
43   H        15.8820   -7.6643   12.9453  H     
44   H        15.8780   -6.1812   11.9762  H     
45   H        18.0858   -6.4516   13.0520  H     
46   H        17.3321   -6.5988   14.6406  H     
@<TRIPOS>BOND
     1    1    2 1
     2    1    4 2
     3    2    3 2
     4    3    6 1
     5    3   17 1
     6    4    5 1
     7    4   20 1
     8    5    6 2
     9    5    9 1
    10    6    7 1
    11    7    8 1
    12    8    9 2
    13    8   10 1
    14   10   11 2
    15   10   15 1
    16   11   12 1
    17   12   13 2
    18   13   14 1
    19   13   16 1
    20   14   15 2
    21   17   18 am
    22   17   19 2
    23   21   20 1
    24   21   22 1
    25   21   26 1
    26   22   23 1
    27   23   24 1
    28   24   25 1
    29   25   26 1
    30    2   27 1
    31    9   28 1
    32   11   29 1
    33   12   30 1
    34   14   31 1
    35   15   32 1
    36   18   33 1
    37   18   34 1
    38   20   35 1
    39   21   36 1
    40   22   37 1
    41   22   38 1
    42   23   39 1
    43   23   40 1
    44   24   41 1
    45   24   42 1
    46   25   43 1
    47   25   44 1
    48   26   45 1
    49   26   46 1
@<TRIPOS>PROPERTY_DATA
  Total_Score	| 7.1917
  Crash		| -0.9117
  Polar		| 4.3344
  FragIndex	| 1
  FragRMSD	| 0.673

