@<TRIPOS>MOLECULE
BindingDB_50332136
 46 49 0 0 0
SMALL
NO_CHARGES


@<TRIPOS>ATOM
1    N        15.0240   -3.2807   11.5591  N     
2    C        14.4762   -2.1352   11.0828  C     
3    C        15.2498   -1.2333   10.3090  C     
4    C        16.3054   -3.6791   11.3602  C     
5    C        17.1210   -2.8491   10.5562  C     
6    C        16.5773   -1.6527   10.0468  C     
7    S        17.8210   -0.9172    9.1146  S     
8    C        19.0456   -2.1059    9.3431  C     
9    C        18.4593   -3.0835   10.1681  C     
10   C        20.3463   -2.0822    8.7553  C     
11   C        20.8511   -0.9039    8.1443  C     
12   C        22.1190   -0.8831    7.5338  C     
13   C        22.9120   -2.0407    7.5274  C     
14   C        22.4389   -3.2164    8.1287  C     
15   C        21.1688   -3.2370    8.7328  C     
16   C        14.7256   -0.0209    9.8486  C     
17   N        13.5258    0.4245   10.1682  N     
18   O        15.3726    0.7286    9.1325  O     
19   N        16.8156   -4.8032   11.9287  N     
20   C        16.1542   -5.8547   12.6646  C     
21   C        14.9239   -5.4522   13.5250  C     
22   N        15.3277   -4.5342   14.6115  N     
23   C        16.2766   -5.1497   15.5717  C     
24   C        17.5422   -5.6514   14.8343  C     
25   C        17.1892   -6.5432   13.6110  C     
26   H        13.5003   -1.9472   11.3153  H     
27   H        18.9670   -3.9161   10.4648  H     
28   H        20.3044   -0.0394    8.1367  H     
29   H        22.4617   -0.0236    7.0949  H     
30   H        23.8318   -2.0284    7.0810  H     
31   H        23.0166   -4.0596    8.1260  H     
32   H        20.8532   -4.1127    9.1443  H     
33   H        13.2291    1.2885    9.8385  H     
34   H        12.9399   -0.0915   10.7423  H     
35   H        17.7618   -4.9503   11.7686  H     
36   H        15.8373   -6.6080   11.9393  H     
37   H        14.1490   -4.9753   12.9293  H     
38   H        14.4643   -6.3483   13.9581  H     
39   H        15.7686   -3.7073   14.2008  H     
40   H        14.4828   -4.2447   15.0959  H     
41   H        16.5512   -4.4042   16.3235  H     
42   H        15.7909   -5.9830   16.0868  H     
43   H        18.1055   -4.7822   14.4856  H     
44   H        18.1722   -6.2147   15.5311  H     
45   H        16.7711   -7.4881   13.9778  H     
46   H        18.1059   -6.7869   13.0709  H     
@<TRIPOS>BOND
     1    1    2 1
     2    1    4 2
     3    2    3 2
     4    3    6 1
     5    3   16 1
     6    4    5 1
     7    4   19 1
     8    5    6 2
     9    5    9 1
    10    6    7 1
    11    7    8 1
    12    8    9 2
    13    8   10 1
    14   10   11 2
    15   10   15 1
    16   11   12 1
    17   12   13 2
    18   13   14 1
    19   14   15 2
    20   16   17 am
    21   16   18 2
    22   20   19 1
    23   20   21 1
    24   20   25 1
    25   21   22 1
    26   22   23 1
    27   23   24 1
    28   24   25 1
    29    2   26 1
    30    9   27 1
    31   11   28 1
    32   12   29 1
    33   13   30 1
    34   14   31 1
    35   15   32 1
    36   17   33 1
    37   17   34 1
    38   19   35 1
    39   20   36 1
    40   21   37 1
    41   21   38 1
    42   22   39 1
    43   22   40 1
    44   23   41 1
    45   23   42 1
    46   24   43 1
    47   24   44 1
    48   25   45 1
    49   25   46 1
@<TRIPOS>PROPERTY_DATA
  Total_Score	| 6.9062
  Crash		| -1.4217
  Polar		| 4.7624
  FragIndex	| 1
  FragRMSD	| 0.790

