@<TRIPOS>MOLECULE
BindingDB_50332137
 46 49 0 0 0
SMALL
NO_CHARGES


@<TRIPOS>ATOM
1    N        14.9833   -2.9290   11.7592  N     
2    C        14.4185   -1.8619   11.1312  C     
3    C        15.1593   -1.0896   10.2001  C     
4    C        16.2621   -3.3467   11.5533  C     
5    C        17.0611   -2.6263   10.6302  C     
6    C        16.4947   -1.5137    9.9841  C     
7    S        17.7531   -0.8637    9.0113  S     
8    C        19.0272   -1.9612    9.4142  C     
9    C        18.4194   -2.8602   10.3185  C     
10   C        20.3671   -1.9036    8.8882  C     
11   C        20.7141   -0.8194    8.0245  C     
12   C        21.9821   -0.6823    7.4446  C     
13   C        22.9687   -1.6417    7.6994  C     
14   C        22.6790   -2.7114    8.5589  C     
15   C        21.4089   -2.8542    9.1603  C     
16   C        14.6041    0.0414    9.5989  C     
17   N        13.4030    0.5125    9.8782  N     
18   O        15.2271    0.6876    8.7667  O     
19   N        16.7635   -4.4023   12.2484  N     
20   C        16.1563   -4.9986   13.3981  C     
21   C        16.5230   -4.1671   14.6604  C     
22   N        16.0865   -4.8321   15.9111  N     
23   C        16.6041   -6.2102   16.0747  C     
24   C        16.1897   -7.1032   14.8753  C     
25   C        16.6466   -6.4663   13.5363  C     
26   Cl       21.3171   -4.1571   10.2449  Cl    
27   H        13.4444   -1.6500   11.3510  H     
28   H        18.9038   -3.6394   10.7560  H     
29   H        20.0517   -0.0759    7.7915  H     
30   H        22.1917    0.1101    6.8299  H     
31   H        23.8960   -1.5526    7.2746  H     
32   H        23.4280   -3.3749    8.7482  H     
33   H        13.1051    1.3342    9.4528  H     
34   H        12.8301    0.0755   10.5327  H     
35   H        17.6738   -4.6780   12.0466  H     
36   H        15.0677   -5.0245   13.2871  H     
37   H        17.6066   -3.9938   14.7065  H     
38   H        16.0289   -3.1916   14.6199  H     
39   H        16.4057   -4.2668   16.7029  H     
40   H        15.0710   -4.8610   15.9195  H     
41   H        17.6961   -6.1830   16.1633  H     
42   H        16.1953   -6.6230   16.9967  H     
43   H        16.6382   -8.0927   14.9860  H     
44   H        15.1035   -7.2177   14.8772  H     
45   H        16.2394   -7.0608   12.7097  H     
46   H        17.7382   -6.5042   13.4780  H     
@<TRIPOS>BOND
     1    1    2 1
     2    1    4 2
     3    2    3 2
     4    3    6 1
     5    3   16 1
     6    4    5 1
     7    4   19 1
     8    5    6 2
     9    5    9 1
    10    6    7 1
    11    7    8 1
    12    8    9 2
    13    8   10 1
    14   10   11 2
    15   10   15 1
    16   11   12 1
    17   12   13 2
    18   13   14 1
    19   14   15 2
    20   15   26 1
    21   16   17 am
    22   16   18 2
    23   20   19 1
    24   20   21 1
    25   20   25 1
    26   21   22 1
    27   22   23 1
    28   23   24 1
    29   24   25 1
    30    2   27 1
    31    9   28 1
    32   11   29 1
    33   12   30 1
    34   13   31 1
    35   14   32 1
    36   17   33 1
    37   17   34 1
    38   19   35 1
    39   20   36 1
    40   21   37 1
    41   21   38 1
    42   22   39 1
    43   22   40 1
    44   23   41 1
    45   23   42 1
    46   24   43 1
    47   24   44 1
    48   25   45 1
    49   25   46 1
@<TRIPOS>PROPERTY_DATA
  Total_Score	| 6.4650
  Crash		| -1.0670
  Polar		| 4.2523
  FragIndex	| 1
  FragRMSD	| 0.375

