@<TRIPOS>MOLECULE
BindingDB_50332148
 46 49 0 0 0
SMALL
NO_CHARGES


@<TRIPOS>ATOM
1    N        15.0222   -3.1839   11.6458  N     
2    C        14.4792   -2.0283   11.1752  C     
3    C        15.2176   -1.1555   10.3304  C     
4    C        16.2872   -3.6064   11.3699  C     
5    C        17.0856   -2.7725   10.5516  C     
6    C        16.5432   -1.5766   10.0413  C     
7    S        17.7798   -0.8651    9.0727  S     
8    C        19.0001   -2.0621    9.3037  C     
9    C        18.4124   -3.0235   10.1426  C     
10   C        20.3143   -2.0708    8.7415  C     
11   C        21.1948   -3.1718    8.9138  C     
12   C        22.4838   -3.1768    8.3485  C     
13   C        22.9271   -2.0769    7.5928  C     
14   C        22.0735   -0.9709    7.4110  C     
15   C        20.7876   -0.9703    7.9829  C     
16   C        14.6673    0.0284    9.8227  C     
17   N        13.4199    0.4066   10.0293  N     
18   O        15.3336    0.8066    9.1552  O     
19   N        16.7929   -4.7837   11.8287  N     
20   C        16.2035   -5.8518   12.6004  C     
21   C        14.9114   -5.5159   13.4053  C     
22   N        15.2305   -4.5356   14.4704  N     
23   C        16.2122   -5.0222   15.4674  C     
24   C        17.5323   -5.4619   14.7798  C     
25   C        17.2688   -6.4215   13.5892  C     
26   F        22.4586    0.0595    6.7042  F     
27   Cl       24.4809   -2.1127    6.9166  Cl    
28   H        13.5160   -1.8153   11.4520  H     
29   H        18.9090   -3.8591   10.4416  H     
30   H        20.9180   -3.9932    9.4535  H     
31   H        23.0926   -3.9899    8.4925  H     
32   H        20.1990   -0.1516    7.8314  H     
33   H        13.1079    1.2452    9.6505  H     
34   H        12.8059   -0.1497   10.5361  H     
35   H        17.7032   -4.9605   11.5468  H     
36   H        15.9738   -6.6503   11.8929  H     
37   H        14.1527   -5.0983   12.7400  H     
38   H        14.4914   -6.4264   13.8449  H     
39   H        15.6180   -3.6939   14.0354  H     
40   H        14.3852   -4.2717   14.9678  H     
41   H        16.4247   -4.2127   16.1669  H     
42   H        15.7869   -5.8522   16.0302  H     
43   H        18.0620   -4.5759   14.4172  H     
44   H        18.1656   -5.9635   15.5135  H     
45   H        16.9155   -7.3820   13.9842  H     
46   H        18.2082   -6.6178   13.0682  H     
@<TRIPOS>BOND
     1    1    2 1
     2    1    4 2
     3    2    3 2
     4    3    6 1
     5    3   16 1
     6    4    5 1
     7    4   19 1
     8    5    6 2
     9    5    9 1
    10    6    7 1
    11    7    8 1
    12    8    9 2
    13    8   10 1
    14   10   11 2
    15   10   15 1
    16   11   12 1
    17   12   13 2
    18   13   14 1
    19   13   27 1
    20   14   15 2
    21   14   26 1
    22   16   17 am
    23   16   18 2
    24   20   19 1
    25   20   21 1
    26   20   25 1
    27   21   22 1
    28   22   23 1
    29   23   24 1
    30   24   25 1
    31    2   28 1
    32    9   29 1
    33   11   30 1
    34   12   31 1
    35   15   32 1
    36   17   33 1
    37   17   34 1
    38   19   35 1
    39   20   36 1
    40   21   37 1
    41   21   38 1
    42   22   39 1
    43   22   40 1
    44   23   41 1
    45   23   42 1
    46   24   43 1
    47   24   44 1
    48   25   45 1
    49   25   46 1
@<TRIPOS>PROPERTY_DATA
  Total_Score	| 6.8654
  Crash		| -1.3206
  Polar		| 4.7231
  FragIndex	| 1
  FragRMSD	| 0.257

