@<TRIPOS>MOLECULE
BindingDB_50332122
 49 52 0 0 0
SMALL
NO_CHARGES


@<TRIPOS>ATOM
1    N        15.2825   -3.2537   11.5034  N     
2    C        14.6927   -2.1280   11.0214  C     
3    C        15.4073   -1.2138   10.2109  C     
4    C        16.5804   -3.5892   11.2826  C     
5    C        17.3516   -2.7346   10.4680  C     
6    C        16.7551   -1.5692    9.9503  C     
7    S        17.9669   -0.7990    9.0029  S     
8    C        19.2510   -1.9195    9.2667  C     
9    C        18.7059   -2.9067   10.1068  C     
10   C        20.5653   -1.8354    8.7183  C     
11   C        21.5571   -2.8116    8.9945  C     
12   C        22.8501   -2.7134    8.4491  C     
13   C        23.1841   -1.6351    7.6119  C     
14   C        22.2183   -0.6543    7.3281  C     
15   C        20.9272   -0.7568    7.8730  C     
16   Cl       24.7375   -1.5172    6.9528  Cl    
17   C        14.8140   -0.0510    9.7057  C     
18   N        13.5662    0.3046    9.9527  N     
19   O        15.4182    0.7176    8.9750  O     
20   N        17.1405   -4.6807   11.8614  N     
21   C        16.4929   -5.6208   12.7196  C     
22   C        15.7971   -5.0064   13.9801  C     
23   N        14.8058   -5.9423   14.5607  N     
24   C        15.3327   -7.0604   15.3670  C     
25   C        16.2693   -6.5428   16.4873  C     
26   C        17.3851   -5.6286   15.9182  C     
27   C        16.7876   -4.4835   15.0617  C     
28   H        13.7227   -1.9600   11.2775  H     
29   H        19.2429   -3.7122   10.4217  H     
30   H        21.3583   -3.6131    9.5963  H     
31   H        23.5446   -3.4312    8.6664  H     
32   H        22.4499    0.1425    6.7307  H     
33   H        20.2564   -0.0216    7.6409  H     
34   H        13.2123    1.1292    9.5762  H     
35   H        12.9938   -0.2411   10.5136  H     
36   H        18.0789   -4.8473   11.6651  H     
37   H        15.7639   -6.1698   12.1252  H     
38   H        17.2512   -6.3401   13.0317  H     
39   H        15.1875   -4.1569   13.6694  H     
40   H        14.1965   -5.3967   15.1668  H     
41   H        14.2354   -6.3287   13.8059  H     
42   H        14.4845   -7.5824   15.8198  H     
43   H        15.8608   -7.7676   14.7218  H     
44   H        15.6778   -5.9757   17.2129  H     
45   H        16.7210   -7.3937   17.0060  H     
46   H        17.9654   -5.2048   16.7436  H     
47   H        18.0656   -6.2290   15.3083  H     
48   H        17.5960   -3.9198   14.5921  H     
49   H        16.2582   -3.7973   15.7278  H     
@<TRIPOS>BOND
     1    1    2 1
     2    1    4 2
     3    2    3 2
     4    3    6 1
     5    3   17 1
     6    4    5 1
     7    4   20 1
     8    5    6 2
     9    5    9 1
    10    6    7 1
    11    7    8 1
    12    8    9 2
    13    8   10 1
    14   10   11 2
    15   10   15 1
    16   11   12 1
    17   12   13 2
    18   13   14 1
    19   13   16 1
    20   14   15 2
    21   17   18 am
    22   17   19 2
    23   20   21 1
    24   21   22 1
    25   22   23 1
    26   22   27 1
    27   23   24 1
    28   24   25 1
    29   25   26 1
    30   26   27 1
    31    2   28 1
    32    9   29 1
    33   11   30 1
    34   12   31 1
    35   14   32 1
    36   15   33 1
    37   18   34 1
    38   18   35 1
    39   20   36 1
    40   21   37 1
    41   21   38 1
    42   22   39 1
    43   23   40 1
    44   23   41 1
    45   24   42 1
    46   24   43 1
    47   25   44 1
    48   25   45 1
    49   26   46 1
    50   26   47 1
    51   27   48 1
    52   27   49 1
@<TRIPOS>PROPERTY_DATA
  Total_Score	| 6.4700
  Crash		| -0.5831
  Polar		| 3.9675
  FragIndex	| 1
  FragRMSD	| 0.917

