@<TRIPOS>MOLECULE
BindingDB_33985
 69 73 0 0 0
SMALL
NO_CHARGES


@<TRIPOS>ATOM
1    C         1.0898  -31.9487    5.8800  C     
2    C         1.2743  -32.8545    7.1235  C     
3    C         0.2647  -31.1860    8.5422  C     
4    C         0.0090  -30.2654    7.3262  C     
5    N         1.0397  -30.5131    6.2648  N     
6    O         0.2840  -32.5674    8.1381  O     
7    C         1.0626  -29.5031    5.1509  C     
8    C         0.3607  -29.7873    3.7777  C     
9    C        -1.0427  -29.1676    3.5237  C     
10   C        -1.0366  -26.1349    5.3746  C     
11   C        -2.5709  -27.5370    4.6173  C     
12   C        -3.8956  -28.1549    4.4234  C     
13   C        -5.0613  -27.2123    4.8487  C     
14   C        -3.4933  -25.7117    6.1040  C     
15   C        -2.4014  -26.3939    5.3822  C     
16   N        -1.3432  -27.9503    4.2233  N     
17   N        -0.4515  -27.0925    4.6311  N     
18   N        -4.7535  -26.4185    6.0221  N     
19   C        -5.8687  -24.2020    7.6203  C     
20   S        -6.0178  -25.9019    7.0321  S     
21   O        -7.4177  -25.9413    6.2763  O     
22   O        -6.1263  -26.8565    8.3016  O     
23   C        -0.3094  -25.1875    6.1080  C     
24   C         0.5053  -22.9171    6.4520  C     
25   C        -0.2758  -23.8325    5.7295  C     
26   C         0.4304  -25.6089    7.2383  C     
27   C         1.1928  -24.6862    7.9811  C     
28   C         1.2525  -23.3329    7.5740  C     
29   Cl        2.1497  -22.1648    8.4194  Cl    
30   C         1.7763  -25.1411    9.0521  C     
31   C         2.2714  -25.6201   10.0298  C     
32   C         2.7687  -26.1964   11.0840  C     
33   C         2.3765  -27.5187   11.4079  C     
34   C         3.6838  -25.5147   11.9127  C     
35   C         4.2216  -26.1574   13.0449  C     
36   C         3.8359  -27.4720   13.3669  C     
37   C         2.9109  -28.1553   12.5480  C     
38   Cl        2.4498  -29.7420   12.9203  Cl    
39   H         1.9287  -32.1221    5.1971  H     
40   H         0.1605  -32.2473    5.3829  H     
41   H         1.1485  -33.8964    6.8199  H     
42   H         2.2854  -32.7244    7.5265  H     
43   H         1.2168  -30.9099    9.0229  H     
44   H        -0.5402  -31.0460    9.2714  H     
45   H        -1.0054  -30.4512    6.9512  H     
46   H         0.0791  -29.2330    7.6745  H     
47   H         1.9255  -30.3364    6.7558  H     
48   H         0.7305  -28.5352    5.5290  H     
49   H         2.1218  -29.3532    4.9171  H     
50   H         1.0231  -29.4010    2.9922  H     
51   H         0.3048  -30.8649    3.6195  H     
52   H        -1.1031  -28.9481    2.4518  H     
53   H        -1.8098  -29.9163    3.7547  H     
54   H        -4.0226  -28.4261    3.3738  H     
55   H        -3.9291  -29.0661    5.0243  H     
56   H        -5.2887  -26.5147    4.0332  H     
57   H        -5.9532  -27.8280    5.0130  H     
58   H        -3.1846  -25.6221    7.1504  H     
59   H        -3.5983  -24.7149    5.6747  H     
60   H        -4.9844  -24.1080    8.2473  H     
61   H        -6.7519  -23.9389    8.2054  H     
62   H        -5.7863  -23.5244    6.7695  H     
63   H         0.5270  -21.9435    6.1508  H     
64   H        -0.8079  -23.5128    4.9188  H     
65   H         0.3734  -26.5936    7.5310  H     
66   H         1.7026  -28.0262   10.8222  H     
67   H         3.9646  -24.5550   11.7073  H     
68   H         4.8889  -25.6694   13.6415  H     
69   H         4.2293  -27.9312   14.1843  H     
@<TRIPOS>BOND
     1    1    2 1
     2    1    5 1
     3    2    6 1
     4    3    4 1
     5    3    6 1
     6    4    5 1
     7    5    7 1
     8    7    8 1
     9    8    9 1
    10    9   16 1
    11   10   15 1
    12   10   17 2
    13   10   23 1
    14   11   12 1
    15   11   15 2
    16   11   16 1
    17   12   13 1
    18   13   18 1
    19   14   15 1
    20   14   18 1
    21   16   17 1
    22   18   20 1
    23   19   20 1
    24   20   21 2
    25   20   22 2
    26   23   25 2
    27   23   26 1
    28   24   25 1
    29   24   28 2
    30   26   27 2
    31   27   28 1
    32   27   30 1
    33   28   29 1
    34   30   31 3
    35   31   32 1
    36   32   33 2
    37   32   34 1
    38   33   37 1
    39   34   35 2
    40   35   36 1
    41   36   37 2
    42   37   38 1
    43    1   39 1
    44    1   40 1
    45    2   41 1
    46    2   42 1
    47    3   43 1
    48    3   44 1
    49    4   45 1
    50    4   46 1
    51    5   47 1
    52    7   48 1
    53    7   49 1
    54    8   50 1
    55    8   51 1
    56    9   52 1
    57    9   53 1
    58   12   54 1
    59   12   55 1
    60   13   56 1
    61   13   57 1
    62   14   58 1
    63   14   59 1
    64   19   60 1
    65   19   61 1
    66   19   62 1
    67   24   63 1
    68   25   64 1
    69   26   65 1
    70   33   66 1
    71   34   67 1
    72   35   68 1
    73   36   69 1
@<TRIPOS>PROPERTY_DATA
  Total_Score	| 3.5042
  Crash		| -1.1512
  Polar		| 0.7534
  FragIndex	| 1
  FragRMSD	| 1.202

