@<TRIPOS>MOLECULE
BindingDB_34000
 75 79 0 0 0
SMALL
NO_CHARGES


@<TRIPOS>ATOM
1    C        -5.0740  -22.1134    9.2904  C     
2    C        -5.6956  -21.1299   10.3228  C     
3    C        -7.4359  -20.5274    8.6966  C     
4    C        -6.8149  -21.4762    7.6425  C     
5    N        -5.3495  -21.6531    7.8952  N     
6    C        -4.6229  -22.4039    6.8183  C     
7    C        -5.1085  -23.8473    6.4660  C     
8    C        -4.4099  -24.4692    5.2154  C     
9    C        -1.0742  -25.1029    6.2218  C     
10   C        -2.6417  -26.2516    5.1310  C     
11   C        -3.2400  -27.3497    4.3258  C     
12   C        -2.3100  -28.6035    4.2560  C     
13   C        -0.4483  -27.4718    5.3313  C     
14   C        -1.3343  -26.3154    5.5963  C     
15   N        -3.1156  -25.0318    5.4776  N     
16   N        -2.1921  -24.3659    6.1013  N     
17   N        -0.9096  -28.1854    4.1453  N     
18   C         0.0780  -24.6795    6.9102  C     
19   C         1.8000  -23.0091    7.3575  C     
20   C         0.6635  -23.4253    6.6442  C     
21   C         0.6318  -25.4898    7.9280  C     
22   C         1.7570  -25.0738    8.6727  C     
23   C         2.3556  -23.8244    8.3642  C     
24   Cl        3.7333  -23.2378    9.1582  Cl    
25   C         2.2323  -25.9972    9.7345  C     
26   C        -0.2218  -28.2825    2.9869  C     
27   O        -0.7324  -28.9084    2.0533  O     
28   C         1.0175  -27.7475    2.6431  C     
29   O         2.0359  -27.5945    3.5316  O     
30   O         1.2619  -27.4482    1.3402  O     
31   C         2.4635  -26.9385    0.7580  C     
32   O        -4.9422  -24.7120    7.5897  O     
33   N        -7.1097  -20.9610   10.0413  N     
34   C        -8.0811  -21.2614   10.9637  C     
35   C        -8.5527  -20.3339   11.9430  C     
36   C        -9.5582  -20.7113   12.8639  C     
37   C       -10.0984  -22.0082   12.8395  C     
38   C        -9.6465  -22.9324   11.8855  C     
39   C        -8.6614  -22.5597   10.9577  C     
40   C        -8.1805  -19.0828   11.9474  C     
41   N        -7.8722  -17.9755   11.9470  N     
42   H        -3.9966  -22.1605    9.4625  H     
43   H        -5.4872  -23.1134    9.4535  H     
44   H        -5.5057  -21.5257   11.3251  H     
45   H        -5.1926  -20.1617   10.2482  H     
46   H        -7.0262  -19.5233    8.5534  H     
47   H        -8.5134  -20.4501    8.5211  H     
48   H        -7.3401  -22.4328    7.6736  H     
49   H        -6.9750  -21.0332    6.6563  H     
50   H        -4.9625  -20.7076    7.8567  H     
51   H        -4.6575  -21.7928    5.9136  H     
52   H        -3.5702  -22.4518    7.1045  H     
53   H        -6.1773  -23.8129    6.2502  H     
54   H        -5.0711  -25.2338    4.7985  H     
55   H        -4.2958  -23.7042    4.4428  H     
56   H        -4.2047  -27.6353    4.7518  H     
57   H        -3.4113  -26.9755    3.3164  H     
58   H        -2.4389  -29.1851    5.1728  H     
59   H        -2.6569  -29.2480    3.4460  H     
60   H         0.5618  -27.0923    5.2762  H     
61   H        -0.4709  -28.1488    6.1924  H     
62   H         2.2127  -22.0988    7.1403  H     
63   H         0.2813  -22.8142    5.9134  H     
64   H         0.1916  -26.3887    8.1443  H     
65   H         1.4337  -26.1566   10.4609  H     
66   H         3.1022  -25.6272   10.2710  H     
67   H         2.4955  -26.9569    9.2874  H     
68   H         2.7376  -25.9846    1.2099  H     
69   H         2.2803  -26.7967   -0.3037  H     
70   H         3.2812  -27.6459    0.8799  H     
71   H        -3.9771  -24.7197    7.7667  H     
72   H        -9.9246  -20.0465   13.5539  H     
73   H       -10.8228  -22.2757   13.5085  H     
74   H       -10.0331  -23.8798   11.8717  H     
75   H        -8.3300  -23.2683   10.2971  H     
@<TRIPOS>BOND
     1    1    2 1
     2    1    5 1
     3    2   33 1
     4    3    4 1
     5    3   33 1
     6    4    5 1
     7    5    6 1
     8    6    7 1
     9    7    8 1
    10    7   32 1
    11    8   15 1
    12    9   14 1
    13    9   16 2
    14    9   18 1
    15   10   11 1
    16   10   14 2
    17   10   15 1
    18   11   12 1
    19   12   17 1
    20   13   14 1
    21   13   17 1
    22   15   16 1
    23   17   26 1
    24   18   20 2
    25   18   21 1
    26   19   20 1
    27   19   23 2
    28   21   22 2
    29   22   23 1
    30   22   25 1
    31   23   24 1
    32   26   27 2
    33   26   28 1
    34   28   29 2
    35   28   30 1
    36   30   31 1
    37   33   34 1
    38   34   35 1
    39   34   39 2
    40   35   36 2
    41   35   40 1
    42   36   37 1
    43   37   38 2
    44   38   39 1
    45   40   41 3
    46    1   42 1
    47    1   43 1
    48    2   44 1
    49    2   45 1
    50    3   46 1
    51    3   47 1
    52    4   48 1
    53    4   49 1
    54    5   50 1
    55    6   51 1
    56    6   52 1
    57    7   53 1
    58    8   54 1
    59    8   55 1
    60   11   56 1
    61   11   57 1
    62   12   58 1
    63   12   59 1
    64   13   60 1
    65   13   61 1
    66   19   62 1
    67   20   63 1
    68   21   64 1
    69   25   65 1
    70   25   66 1
    71   25   67 1
    72   31   68 1
    73   31   69 1
    74   31   70 1
    75   32   71 1
    76   36   72 1
    77   37   73 1
    78   38   74 1
    79   39   75 1
@<TRIPOS>PROPERTY_DATA
  Total_Score	| 4.5911
  Crash		| -1.6892
  Polar		| 1.1341
  FragIndex	| 1
  FragRMSD	| 0.955

