@<TRIPOS>MOLECULE
BindingDB_33991
 71 75 0 0 0
SMALL
NO_CHARGES


@<TRIPOS>ATOM
1    C         0.4196  -28.5582    2.5951  C     
2    C         1.3149  -27.2968    2.5049  C     
3    C         1.0170  -26.8808    4.8611  C     
4    C         0.0761  -28.1064    4.9852  C     
5    N        -0.6045  -28.4504    3.6858  N     
6    O         1.9527  -27.0490    3.7769  O     
7    C        -1.7815  -27.5953    3.3213  C     
8    C        -3.0500  -27.8809    4.1852  C     
9    C        -3.9041  -26.6312    4.5360  C     
10   C        -1.6395  -24.5571    6.3368  C     
11   C        -3.7684  -24.4389    5.7137  C     
12   C        -5.1587  -23.9440    5.6194  C     
13   C        -5.3166  -22.4802    6.1173  C     
14   C        -3.0109  -22.4802    7.1106  C     
15   C        -2.7712  -23.7488    6.3921  C     
16   N        -3.2340  -25.6075    5.2921  N     
17   N        -2.0001  -25.6738    5.6859  N     
18   N        -4.4132  -22.1371    7.1923  N     
19   C        -3.6269  -19.8797    8.9327  C     
20   S        -4.9028  -21.0294    8.3791  S     
21   O        -6.0772  -20.1094    7.8263  O     
22   O        -5.4503  -21.8142    9.6536  O     
23   C        -0.3550  -24.3611    6.8892  C     
24   C         1.6817  -23.0268    7.1448  C     
25   C         0.4276  -23.2368    6.5448  C     
26   C         0.1619  -25.2838    7.8300  C     
27   C         1.3918  -25.0467    8.4837  C     
28   C         2.1671  -23.9187    8.1198  C     
29   Cl        3.6645  -23.5544    8.8389  Cl    
30   C         1.7222  -25.8080    9.4918  C     
31   C         1.9698  -26.4650   10.4601  C     
32   C         2.1987  -27.1334   11.5507  C     
33   C         1.1698  -27.8849   12.1631  C     
34   C         3.4639  -27.0525   12.1826  C     
35   C         3.6834  -27.7034   13.4159  C     
36   C         2.6523  -28.4396   14.0224  C     
37   C         1.3887  -28.5293   13.3954  C     
38   N         2.8651  -29.0597   15.1978  N     
39   H        -0.0498  -28.7494    1.6239  H     
40   H         1.0547  -29.4259    2.8039  H     
41   H         2.0947  -27.4498    1.7591  H     
42   H         0.7283  -26.4254    2.1937  H     
43   H         0.4433  -25.9575    4.7100  H     
44   H         1.5788  -26.7723    5.7944  H     
45   H         0.6767  -28.9636    5.2945  H     
46   H        -0.6374  -27.9270    5.7876  H     
47   H        -0.9851  -29.3948    3.8045  H     
48   H        -1.5116  -26.5394    3.3593  H     
49   H        -2.0726  -27.7827    2.2869  H     
50   H        -3.6824  -28.5870    3.6350  H     
51   H        -2.7875  -28.3734    5.1233  H     
52   H        -4.2850  -26.1872    3.6130  H     
53   H        -4.7654  -26.9683    5.1178  H     
54   H        -5.4881  -24.0128    4.5814  H     
55   H        -5.7872  -24.6059    6.2180  H     
56   H        -5.1287  -21.7951    5.2859  H     
57   H        -6.3601  -22.3505    6.4197  H     
58   H        -2.6079  -22.6006    8.1191  H     
59   H        -2.4677  -21.6748    6.6085  H     
60   H        -2.8373  -20.4238    9.4596  H     
61   H        -4.0696  -19.1485    9.6107  H     
62   H        -3.1967  -19.3593    8.0716  H     
63   H         2.2213  -22.2001    6.8809  H     
64   H         0.0885  -22.5646    5.8440  H     
65   H        -0.4020  -26.1043    8.0860  H     
66   H         0.2423  -27.9603   11.7257  H     
67   H         4.2308  -26.5079   11.7709  H     
68   H         4.5980  -27.6176   13.8742  H     
69   H         0.6333  -29.0663   13.8298  H     
70   H         2.1497  -29.5521   15.6304  H     
71   H         3.7461  -29.0307   15.6076  H     
@<TRIPOS>BOND
     1    1    2 1
     2    1    5 1
     3    2    6 1
     4    3    4 1
     5    3    6 1
     6    4    5 1
     7    5    7 1
     8    7    8 1
     9    8    9 1
    10    9   16 1
    11   10   15 1
    12   10   17 2
    13   10   23 1
    14   11   12 1
    15   11   15 2
    16   11   16 1
    17   12   13 1
    18   13   18 1
    19   14   15 1
    20   14   18 1
    21   16   17 1
    22   18   20 1
    23   19   20 1
    24   20   21 2
    25   20   22 2
    26   23   25 2
    27   23   26 1
    28   24   25 1
    29   24   28 2
    30   26   27 2
    31   27   28 1
    32   27   30 1
    33   28   29 1
    34   30   31 3
    35   31   32 1
    36   32   33 2
    37   32   34 1
    38   33   37 1
    39   34   35 2
    40   35   36 1
    41   36   37 2
    42   36   38 1
    43    1   39 1
    44    1   40 1
    45    2   41 1
    46    2   42 1
    47    3   43 1
    48    3   44 1
    49    4   45 1
    50    4   46 1
    51    5   47 1
    52    7   48 1
    53    7   49 1
    54    8   50 1
    55    8   51 1
    56    9   52 1
    57    9   53 1
    58   12   54 1
    59   12   55 1
    60   13   56 1
    61   13   57 1
    62   14   58 1
    63   14   59 1
    64   19   60 1
    65   19   61 1
    66   19   62 1
    67   24   63 1
    68   25   64 1
    69   26   65 1
    70   33   66 1
    71   34   67 1
    72   35   68 1
    73   37   69 1
    74   38   70 1
    75   38   71 1
@<TRIPOS>PROPERTY_DATA
  Total_Score	| 3.4008
  Crash		| -2.1636
  Polar		| 1.0565
  FragIndex	| 1
  FragRMSD	| 1.180

