@<TRIPOS>MOLECULE
BindingDB_33995
 72 77 0 0 0
SMALL
NO_CHARGES


@<TRIPOS>ATOM
1    C        -6.5516  -22.1604    7.4133  C     
2    C        -6.8578  -20.6593    7.6372  C     
3    C        -5.0171  -20.4530    9.1642  C     
4    C        -4.6796  -21.9562    9.0179  C     
5    N        -5.1070  -22.4712    7.6729  N     
6    O        -6.4203  -20.2379    8.9413  O     
7    C        -4.7663  -23.9316    7.5042  C     
8    C        -5.0656  -24.5509    6.1045  C     
9    C        -4.0558  -24.2029    4.9715  C     
10   C        -0.7904  -24.6992    6.2340  C     
11   C        -2.0885  -25.7440    4.7777  C     
12   C        -2.4650  -26.6912    3.6978  C     
13   C        -1.4522  -27.8748    3.5817  C     
14   C         0.1484  -26.8650    5.1158  C     
15   C        -0.8533  -25.8151    5.4077  C     
16   N        -2.7262  -24.6494    5.2594  N     
17   N        -1.9567  -24.0320    6.1141  N     
18   N        -0.0798  -27.4174    3.7826  N     
19   C         0.2938  -24.3268    7.0495  C     
20   C         2.0083  -22.7211    7.6964  C     
21   C         0.9062  -23.0733    6.8945  C     
22   C         0.7634  -25.2189    8.0437  C     
23   C         1.8353  -24.8522    8.8849  C     
24   C         2.4817  -23.6071    8.6871  C     
25   Cl        3.8097  -23.0966    9.6258  Cl    
26   C         2.1415  -25.6259    9.8914  C     
27   C         2.3857  -26.2889   10.8558  C     
28   C         2.6459  -26.9532   11.9411  C     
29   C         1.6456  -27.7439   12.5468  C     
30   C         3.9163  -26.8448   12.5534  C     
31   C         4.1728  -27.5140   13.7640  C     
32   C         1.9138  -28.4253   13.7482  C     
33   C         3.1777  -28.3096   14.3633  C     
34   Cl        3.4912  -29.1142   15.8224  Cl    
35   C         0.9136  -27.4029    2.8651  C     
36   O         2.0664  -27.2372    3.2577  O     
37   C         0.8005  -27.5839    1.4904  C     
38   C         1.7277  -27.1876    0.5090  C     
39   C         1.2326  -27.5481   -0.7411  C     
40   C         0.0065  -28.1818   -0.4989  C     
41   O        -0.2434  -28.1828    0.8348  O     
42   H        -7.1896  -22.7628    8.0714  H     
43   H        -6.8048  -22.3987    6.3797  H     
44   H        -6.3800  -20.0590    6.8590  H     
45   H        -7.9346  -20.5076    7.5700  H     
46   H        -4.7778  -20.1246   10.1765  H     
47   H        -4.4228  -19.8576    8.4666  H     
48   H        -3.6009  -22.0737    9.1418  H     
49   H        -5.1745  -22.5153    9.8205  H     
50   H        -4.5538  -21.9502    6.9813  H     
51   H        -3.6948  -24.0852    7.6902  H     
52   H        -5.2931  -24.5333    8.2541  H     
53   H        -5.0835  -25.6418    6.2100  H     
54   H        -6.0668  -24.2547    5.7778  H     
55   H        -4.4125  -24.6705    4.0501  H     
56   H        -4.0568  -23.1193    4.7926  H     
57   H        -3.4599  -27.0932    3.8980  H     
58   H        -2.4995  -26.1395    2.7541  H     
59   H        -1.6817  -28.6099    4.3569  H     
60   H        -1.6134  -28.3968    2.6410  H     
61   H         1.1405  -26.4148    5.2603  H     
62   H         0.0397  -27.6489    5.8737  H     
63   H         2.4548  -21.8084    7.5606  H     
64   H         0.5838  -22.4132    6.1805  H     
65   H         0.2980  -26.1241    8.1672  H     
66   H         0.7114  -27.8276   12.1318  H     
67   H         4.6543  -26.2676   12.1405  H     
68   H         5.0865  -27.4036   14.2111  H     
69   H         1.1874  -29.0045   14.1748  H     
70   H         2.6214  -26.7006    0.6785  H     
71   H         1.6901  -27.3980   -1.6482  H     
72   H        -0.6029  -28.5821   -1.2275  H     
@<TRIPOS>BOND
     1    1    2 1
     2    1    5 1
     3    2    6 1
     4    3    4 1
     5    3    6 1
     6    4    5 1
     7    5    7 1
     8    7    8 1
     9    8    9 1
    10    9   16 1
    11   10   15 1
    12   10   17 2
    13   10   19 1
    14   11   12 1
    15   11   15 2
    16   11   16 1
    17   12   13 1
    18   13   18 1
    19   14   15 1
    20   14   18 1
    21   16   17 1
    22   18   35 1
    23   19   21 2
    24   19   22 1
    25   20   21 1
    26   20   24 2
    27   22   23 2
    28   23   24 1
    29   23   26 1
    30   24   25 1
    31   26   27 3
    32   27   28 1
    33   28   29 2
    34   28   30 1
    35   29   32 1
    36   30   31 2
    37   31   33 1
    38   32   33 2
    39   33   34 1
    40   35   36 2
    41   35   37 1
    42   37   38 2
    43   37   41 1
    44   38   39 1
    45   39   40 2
    46   40   41 1
    47    1   42 1
    48    1   43 1
    49    2   44 1
    50    2   45 1
    51    3   46 1
    52    3   47 1
    53    4   48 1
    54    4   49 1
    55    5   50 1
    56    7   51 1
    57    7   52 1
    58    8   53 1
    59    8   54 1
    60    9   55 1
    61    9   56 1
    62   12   57 1
    63   12   58 1
    64   13   59 1
    65   13   60 1
    66   14   61 1
    67   14   62 1
    68   20   63 1
    69   21   64 1
    70   22   65 1
    71   29   66 1
    72   30   67 1
    73   31   68 1
    74   32   69 1
    75   38   70 1
    76   39   71 1
    77   40   72 1
@<TRIPOS>PROPERTY_DATA
  Total_Score	| 5.0631
  Crash		| -1.2262
  Polar		| 1.5660
  FragIndex	| 1
  FragRMSD	| 0.966

