@<TRIPOS>MOLECULE
BindingDB_33996
 76 81 0 0 0
SMALL
NO_CHARGES


@<TRIPOS>ATOM
1    C        -4.3922  -21.4554    9.0420  C     
2    C        -5.0943  -20.9606   10.3241  C     
3    C        -7.1609  -20.6528    9.1272  C     
4    C        -6.5243  -21.1921    7.8239  C     
5    N        -5.3701  -22.1135    8.1083  N     
6    O        -6.1685  -20.0610    9.9875  O     
7    C        -4.7142  -22.6707    6.8823  C     
8    C        -4.9882  -24.1865    6.6743  C     
9    C        -4.4079  -24.7646    5.3555  C     
10   C        -0.9579  -25.2309    6.0779  C     
11   C        -2.4769  -26.3173    4.8849  C     
12   C        -3.0618  -27.3631    4.0171  C     
13   C        -2.0688  -28.5391    3.7855  C     
14   C        -0.1617  -27.2950    4.6766  C     
15   C        -1.1339  -26.3243    5.2393  C     
16   N        -3.0480  -25.2291    5.4611  N     
17   N        -2.1421  -24.5932    6.1374  N     
18   N        -0.7270  -28.0149    3.5324  N     
19   C         0.1839  -24.8399    6.7917  C     
20   C         1.8467  -23.1280    7.3324  C     
21   C         0.7669  -23.5739    6.5492  C     
22   C         0.7037  -25.6428    7.8295  C     
23   C         1.7710  -25.1918    8.6362  C     
24   C         2.3615  -23.9303    8.3691  C     
25   Cl        3.6659  -23.3073    9.2620  Cl    
26   C         2.1531  -25.9134    9.6481  C     
27   C         2.4929  -26.5278   10.6127  C     
28   C         2.8502  -27.1404   11.7014  C     
29   C         3.9728  -26.6920   12.4306  C     
30   C         2.0779  -28.2156   12.1985  C     
31   C         2.4149  -28.8159   13.4254  C     
32   C         4.3004  -27.2921   13.6605  C     
33   C         3.5164  -28.3500   14.1670  C     
34   Cl        3.9117  -29.0613   15.6541  Cl    
35   C        -0.0769  -28.1087    2.3455  C     
36   O         1.0571  -27.6602    2.2415  O     
37   C        -0.6008  -28.7051    1.1036  C     
38   C        -0.7694  -30.2390    1.2178  C     
39   C        -0.6974  -30.7188   -0.2420  C     
40   C        -0.3006  -29.4553   -1.0335  C     
41   O         0.2267  -28.5273   -0.0598  O     
42   H        -3.9157  -20.6092    8.5452  H     
43   H        -3.6156  -22.1683    9.3309  H     
44   H        -5.4754  -21.8021   10.9057  H     
45   H        -4.3709  -20.4233   10.9420  H     
46   H        -7.8985  -19.8846    8.8834  H     
47   H        -7.6799  -21.4575    9.6577  H     
48   H        -7.2981  -21.7181    7.2605  H     
49   H        -6.1848  -20.3444    7.2262  H     
50   H        -5.7536  -22.9091    8.6310  H     
51   H        -5.0205  -22.1185    5.9891  H     
52   H        -3.6317  -22.5527    6.9608  H     
53   H        -4.5763  -24.7374    7.5309  H     
54   H        -6.0722  -24.3496    6.6706  H     
55   H        -5.0689  -25.5756    5.0369  H     
56   H        -4.4587  -24.0050    4.5675  H     
57   H        -3.9764  -27.7501    4.4912  H     
58   H        -3.3291  -26.9006    3.0555  H     
59   H        -2.0463  -29.1704    4.6811  H     
60   H        -2.4946  -29.1631    3.0003  H     
61   H         0.7391  -26.7201    4.4173  H     
62   H         0.1268  -28.0087    5.4628  H     
63   H         2.2497  -22.2063    7.1447  H     
64   H         0.4154  -22.9745    5.7938  H     
65   H         0.2518  -26.5416    8.0334  H     
66   H         4.5509  -25.9141   12.0928  H     
67   H         1.2577  -28.5559   11.6909  H     
68   H         1.8484  -29.5913   13.7791  H     
69   H         5.1106  -26.9513   14.1856  H     
70   H        -1.5583  -28.2298    0.8480  H     
71   H         0.0601  -30.6825    1.7948  H     
72   H        -1.7219  -30.5089    1.6801  H     
73   H         0.0585  -31.4994   -0.3601  H     
74   H        -1.6656  -31.0907   -0.5870  H     
75   H         0.4491  -29.6772   -1.7914  H     
76   H        -1.1741  -29.0163   -1.5251  H     
@<TRIPOS>BOND
     1    1    2 1
     2    1    5 1
     3    2    6 1
     4    3    4 1
     5    3    6 1
     6    4    5 1
     7    5    7 1
     8    7    8 1
     9    8    9 1
    10    9   16 1
    11   10   15 1
    12   10   17 2
    13   10   19 1
    14   11   12 1
    15   11   15 2
    16   11   16 1
    17   12   13 1
    18   13   18 1
    19   14   15 1
    20   14   18 1
    21   16   17 1
    22   18   35 am
    23   19   21 2
    24   19   22 1
    25   20   21 1
    26   20   24 2
    27   22   23 2
    28   23   24 1
    29   23   26 1
    30   24   25 1
    31   26   27 3
    32   27   28 1
    33   28   29 2
    34   28   30 1
    35   29   32 1
    36   30   31 2
    37   31   33 1
    38   32   33 2
    39   33   34 1
    40   35   36 2
    41   35   37 1
    42   37   38 1
    43   37   41 1
    44   38   39 1
    45   39   40 1
    46   40   41 1
    47    1   42 1
    48    1   43 1
    49    2   44 1
    50    2   45 1
    51    3   46 1
    52    3   47 1
    53    4   48 1
    54    4   49 1
    55    5   50 1
    56    7   51 1
    57    7   52 1
    58    8   53 1
    59    8   54 1
    60    9   55 1
    61    9   56 1
    62   12   57 1
    63   12   58 1
    64   13   59 1
    65   13   60 1
    66   14   61 1
    67   14   62 1
    68   20   63 1
    69   21   64 1
    70   22   65 1
    71   29   66 1
    72   30   67 1
    73   31   68 1
    74   32   69 1
    75   37   70 1
    76   38   71 1
    77   38   72 1
    78   39   73 1
    79   39   74 1
    80   40   75 1
    81   40   76 1
@<TRIPOS>PROPERTY_DATA
  Total_Score	| 4.2788
  Crash		| -1.2657
  Polar		| 1.1407
  FragIndex	| 1
  FragRMSD	| 1.023

