@<TRIPOS>MOLECULE
BindingDB_33993
 69 73 0 0 0
SMALL
NO_CHARGES


@<TRIPOS>ATOM
1    C        -6.4814  -22.8383    9.2075  C     
2    C        -6.9157  -21.9396   10.3946  C     
3    C        -4.9141  -20.6119   10.1777  C     
4    C        -4.4353  -21.4718    8.9776  C     
5    N        -5.6054  -22.0728    8.2593  N     
6    O        -5.7704  -21.3673   11.0540  O     
7    C        -5.2357  -22.7863    6.9834  C     
8    C        -5.2932  -24.3447    6.9869  C     
9    C        -4.7196  -25.0229    5.6991  C     
10   C        -1.1973  -25.1576    6.2289  C     
11   C        -2.6409  -26.1068    4.8515  C     
12   C        -3.1281  -26.9411    3.7264  C     
13   C        -2.0821  -28.0112    3.2922  C     
14   C        -0.2431  -26.8507    4.5127  C     
15   C        -1.2947  -26.0732    5.1937  C     
16   N        -3.2984  -25.2583    5.6786  N     
17   N        -2.4355  -24.7025    6.4834  N     
18   N        -0.7317  -27.4920    3.3150  N     
19   C         1.7337  -27.0037    1.7657  C     
20   S         0.4268  -28.1462    2.2665  S     
21   O         1.0694  -29.4556    2.9018  O     
22   O        -0.2588  -28.5622    0.8930  O     
23   C        -0.0326  -24.7549    6.9066  C     
24   C         1.8084  -23.1863    7.1979  C     
25   C         0.6576  -23.5943    6.5022  C     
26   C         0.4655  -25.5288    7.9765  C     
27   C         1.6205  -25.1188    8.6805  C     
28   C         2.2958  -23.9352    8.2862  C     
29   Cl        3.6795  -23.3492    9.0815  Cl    
30   C         2.0261  -25.8278    9.6978  C     
31   C         2.4018  -26.4525   10.6444  C     
32   C         2.8105  -27.1130   11.6924  C     
33   C         2.1274  -28.2749   12.1175  C     
34   C         3.9162  -26.6499   12.4352  C     
35   C         4.3281  -27.3366   13.5910  C     
36   C         2.5404  -28.9667   13.2750  C     
37   C         3.6453  -28.4920   14.0218  C     
38   Cl        1.6673  -30.3470   13.7343  Cl    
39   Cl        4.1832  -29.2626   15.4352  Cl    
40   H        -5.9393  -23.7053    9.6105  H     
41   H        -7.3818  -23.1954    8.6960  H     
42   H        -7.5862  -21.1447   10.0519  H     
43   H        -7.4555  -22.5395   11.1323  H     
44   H        -4.0490  -20.2764   10.7560  H     
45   H        -5.4432  -19.7245    9.8154  H     
46   H        -3.8700  -20.8166    8.3036  H     
47   H        -3.7626  -22.2612    9.3311  H     
48   H        -6.1683  -21.2724    7.9646  H     
49   H        -5.9309  -22.4412    6.2109  H     
50   H        -4.2373  -22.4763    6.6566  H     
51   H        -4.7591  -24.7306    7.8646  H     
52   H        -6.3443  -24.6462    7.0782  H     
53   H        -5.2073  -25.9983    5.6045  H     
54   H        -4.9857  -24.4361    4.8120  H     
55   H        -4.0515  -27.4511    4.0085  H     
56   H        -3.3417  -26.2804    2.8842  H     
57   H        -2.1310  -28.8613    3.9812  H     
58   H        -2.3638  -28.3746    2.3001  H     
59   H         0.5659  -26.1596    4.2690  H     
60   H         0.1350  -27.6036    5.2077  H     
61   H         1.2898  -26.0477    1.4811  H     
62   H         2.2758  -27.4115    0.9116  H     
63   H         2.4356  -26.8542    2.5882  H     
64   H         2.2931  -22.3401    6.8986  H     
65   H         0.3241  -23.0341    5.7112  H     
66   H        -0.0335  -26.3837    8.2514  H     
67   H         1.3215  -28.6198   11.5864  H     
68   H         4.4313  -25.8090   12.1535  H     
69   H         5.1269  -26.9853   14.1212  H     
@<TRIPOS>BOND
     1    1    2 1
     2    1    5 1
     3    2    6 1
     4    3    4 1
     5    3    6 1
     6    4    5 1
     7    5    7 1
     8    7    8 1
     9    8    9 1
    10    9   16 1
    11   10   15 1
    12   10   17 2
    13   10   23 1
    14   11   12 1
    15   11   15 2
    16   11   16 1
    17   12   13 1
    18   13   18 1
    19   14   15 1
    20   14   18 1
    21   16   17 1
    22   18   20 1
    23   19   20 1
    24   20   21 2
    25   20   22 2
    26   23   25 2
    27   23   26 1
    28   24   25 1
    29   24   28 2
    30   26   27 2
    31   27   28 1
    32   27   30 1
    33   28   29 1
    34   30   31 3
    35   31   32 1
    36   32   33 2
    37   32   34 1
    38   33   36 1
    39   34   35 2
    40   35   37 1
    41   36   37 2
    42   36   38 1
    43   37   39 1
    44    1   40 1
    45    1   41 1
    46    2   42 1
    47    2   43 1
    48    3   44 1
    49    3   45 1
    50    4   46 1
    51    4   47 1
    52    5   48 1
    53    7   49 1
    54    7   50 1
    55    8   51 1
    56    8   52 1
    57    9   53 1
    58    9   54 1
    59   12   55 1
    60   12   56 1
    61   13   57 1
    62   13   58 1
    63   14   59 1
    64   14   60 1
    65   19   61 1
    66   19   62 1
    67   19   63 1
    68   24   64 1
    69   25   65 1
    70   26   66 1
    71   33   67 1
    72   34   68 1
    73   35   69 1
@<TRIPOS>PROPERTY_DATA
  Total_Score	| 4.6170
  Crash		| -1.9197
  Polar		| 0.8203
  FragIndex	| 1
  FragRMSD	| 0.730

