@<TRIPOS>MOLECULE
BindingDB_33987
 69 73 0 0 0
SMALL
NO_CHARGES


@<TRIPOS>ATOM
1    C         1.0343  -27.9783   -2.1751  C     
2    C        -0.2813  -28.1048   -2.9771  C     
3    C        -0.9196  -25.8600   -2.3533  C     
4    C         0.3411  -25.7193   -1.4595  C     
5    N         0.8931  -27.0427   -1.0113  N     
6    O        -0.7102  -26.8045   -3.4223  O     
7    C         0.1984  -27.6376    0.1807  C     
8    C         0.7723  -27.1312    1.5362  C     
9    C         0.2650  -27.9590    2.7587  C     
10   C         0.0377  -25.8922    5.6149  C     
11   C        -1.4032  -26.8351    4.2387  C     
12   C        -2.7088  -27.1890    3.6338  C     
13   C        -3.9081  -26.6922    4.5010  C     
14   C        -2.4846  -25.3818    6.0071  C     
15   C        -1.3132  -25.9996    5.3449  C     
16   N        -0.1410  -27.1482    3.8655  N     
17   N         0.7030  -26.5951    4.6818  N     
18   N        -3.6063  -25.4089    5.0974  N     
19   C        -2.6567  -23.1019    3.4890  C     
20   S        -4.0215  -23.9803    4.2820  S     
21   O        -5.0899  -24.2714    3.1391  O     
22   O        -4.7802  -23.0053    5.2806  O     
23   C         0.6324  -25.1455    6.6347  C     
24   C         1.5767  -23.0471    7.4188  C     
25   C         0.8718  -23.7715    6.4449  C     
26   C         1.0382  -25.7791    7.8260  C     
27   C         1.7261  -25.0461    8.8202  C     
28   C         2.0187  -23.6748    8.6012  C     
29   Cl        2.9288  -22.7415    9.6938  Cl    
30   C         2.0853  -25.6692    9.9105  C     
31   C         2.4037  -26.2363   10.9112  C     
32   C         2.7372  -26.8524   12.0089  C     
33   C         1.8009  -27.6742   12.6778  C     
34   C         4.0257  -26.6736   12.5589  C     
35   C         4.3647  -27.2977   13.7720  C     
36   C         3.4332  -28.1196   14.4374  C     
37   C         2.1519  -28.3064   13.8840  C     
38   Cl        3.8415  -28.8604   15.9042  Cl    
39   H         1.3738  -28.9632   -1.8511  H     
40   H         1.8090  -27.5824   -2.8355  H     
41   H        -0.1101  -28.7322   -3.8527  H     
42   H        -1.0558  -28.5734   -2.3669  H     
43   H        -1.7832  -26.1612   -1.7579  H     
44   H        -1.1490  -24.8921   -2.8037  H     
45   H         1.1133  -25.2107   -2.0407  H     
46   H         0.1081  -25.0808   -0.6013  H     
47   H         1.8582  -26.8588   -0.7172  H     
48   H        -0.8737  -27.4288    0.1565  H     
49   H         0.3034  -28.7260    0.1802  H     
50   H         1.8653  -27.1868    1.5015  H     
51   H         0.5037  -26.0760    1.6466  H     
52   H        -0.5718  -28.6042    2.4622  H     
53   H         1.0597  -28.6321    3.0869  H     
54   H        -2.7645  -26.7402    2.6382  H     
55   H        -2.7750  -28.2752    3.5298  H     
56   H        -4.8207  -26.6772    3.9025  H     
57   H        -4.0787  -27.4135    5.3062  H     
58   H        -2.7222  -25.9595    6.9060  H     
59   H        -2.2391  -24.3656    6.3320  H     
60   H        -1.9364  -22.7808    4.2383  H     
61   H        -3.0431  -22.2252    2.9684  H     
62   H        -2.1621  -23.7563    2.7700  H     
63   H         1.7705  -22.0581    7.2549  H     
64   H         0.5653  -23.3005    5.5929  H     
65   H         0.8304  -26.7792    7.9647  H     
66   H         0.8605  -27.8174   12.2971  H     
67   H         4.7251  -26.0861   12.0927  H     
68   H         5.2894  -27.1426   14.1765  H     
69   H         1.4676  -28.9000   14.3583  H     
@<TRIPOS>BOND
     1    1    2 1
     2    1    5 1
     3    2    6 1
     4    3    4 1
     5    3    6 1
     6    4    5 1
     7    5    7 1
     8    7    8 1
     9    8    9 1
    10    9   16 1
    11   10   15 1
    12   10   17 2
    13   10   23 1
    14   11   12 1
    15   11   15 2
    16   11   16 1
    17   12   13 1
    18   13   18 1
    19   14   15 1
    20   14   18 1
    21   16   17 1
    22   18   20 1
    23   19   20 1
    24   20   21 2
    25   20   22 2
    26   23   25 2
    27   23   26 1
    28   24   25 1
    29   24   28 2
    30   26   27 2
    31   27   28 1
    32   27   30 1
    33   28   29 1
    34   30   31 3
    35   31   32 1
    36   32   33 2
    37   32   34 1
    38   33   37 1
    39   34   35 2
    40   35   36 1
    41   36   37 2
    42   36   38 1
    43    1   39 1
    44    1   40 1
    45    2   41 1
    46    2   42 1
    47    3   43 1
    48    3   44 1
    49    4   45 1
    50    4   46 1
    51    5   47 1
    52    7   48 1
    53    7   49 1
    54    8   50 1
    55    8   51 1
    56    9   52 1
    57    9   53 1
    58   12   54 1
    59   12   55 1
    60   13   56 1
    61   13   57 1
    62   14   58 1
    63   14   59 1
    64   19   60 1
    65   19   61 1
    66   19   62 1
    67   24   63 1
    68   25   64 1
    69   26   65 1
    70   33   66 1
    71   34   67 1
    72   35   68 1
    73   37   69 1
@<TRIPOS>PROPERTY_DATA
  Total_Score	| 4.7635
  Crash		| -1.1508
  Polar		| 1.2252
  FragIndex	| 1
  FragRMSD	| 1.090

