@<TRIPOS>MOLECULE
BindingDB_33999
 71 75 0 0 0
SMALL
NO_CHARGES


@<TRIPOS>ATOM
1    C        -7.0109  -22.2879    8.1894  C     
2    C        -7.1537  -20.7509    8.0192  C     
3    C        -5.0699  -20.3834    9.1720  C     
4    C        -4.8771  -21.9039    9.3798  C     
5    N        -5.5829  -22.7233    8.3378  N     
6    O        -6.4712  -20.0582    9.0835  O     
7    C        -4.8323  -22.8867    7.0443  C     
8    C        -5.2648  -24.1711    6.2756  C     
9    C        -4.3681  -24.5559    5.0647  C     
10   C        -1.0952  -25.2522    6.2435  C     
11   C        -2.6659  -26.3893    5.1543  C     
12   C        -3.2728  -27.4611    4.3314  C     
13   C        -2.3543  -28.7199    4.2247  C     
14   C        -0.4983  -27.6455    5.3822  C     
15   C        -1.3760  -26.4843    5.6630  C     
16   N        -3.1119  -25.1438    5.4281  N     
17   N        -2.1824  -24.4860    6.0527  N     
18   N        -0.9512  -28.2952    4.1531  N     
19   C         0.0711  -24.8253    6.9197  C     
20   C         1.8071  -23.1449    7.3010  C     
21   C         0.6729  -23.5849    6.6010  C     
22   C         0.6208  -25.6004    7.9650  C     
23   C         1.7561  -25.1591    8.6825  C     
24   C         2.3624  -23.9245    8.3360  C     
25   Cl        3.7410  -23.3172    9.1222  Cl    
26   C         2.1822  -25.8714    9.6886  C     
27   C         2.5584  -26.4956   10.6373  C     
28   C         2.9406  -27.1275   11.7106  C     
29   C         4.0324  -26.6340   12.4642  C     
30   C         2.2361  -28.2613   12.1710  C     
31   C         2.5999  -28.8794   13.3815  C     
32   C         4.3852  -27.2489   13.6762  C     
33   C         3.6720  -28.3699   14.1433  C     
34   Cl        4.0908  -29.0824   15.6204  Cl    
35   C        -0.2754  -28.2960    2.9846  C     
36   O        -0.7934  -28.8451    2.0076  O     
37   C         0.9566  -27.7218    2.6791  C     
38   O         1.9353  -27.5454    3.5991  O     
39   O         1.2369  -27.4133    1.3851  O     
40   C         2.4607  -26.8793    0.8764  C     
41   H        -7.5514  -22.5823    9.0932  H     
42   H        -7.4973  -22.7912    7.3520  H     
43   H        -6.7602  -20.4351    7.0499  H     
44   H        -8.2105  -20.4792    8.0548  H     
45   H        -4.6450  -19.8468   10.0251  H     
46   H        -4.5443  -20.0539    8.2699  H     
47   H        -3.8087  -22.1253    9.4090  H     
48   H        -5.2793  -22.1735   10.3606  H     
49   H        -5.6273  -23.6595    8.7377  H     
50   H        -4.9618  -22.0171    6.3971  H     
51   H        -3.7652  -22.9687    7.2568  H     
52   H        -5.2967  -25.0121    6.9675  H     
53   H        -6.2791  -24.0153    5.9003  H     
54   H        -4.9364  -25.2542    4.4450  H     
55   H        -4.1757  -23.6752    4.4490  H     
56   H        -4.2367  -27.7471    4.7556  H     
57   H        -3.4446  -27.0622    3.3289  H     
58   H        -2.4987  -29.3447    5.1147  H     
59   H        -2.6881  -29.3286    3.3797  H     
60   H         0.5286  -27.2941    5.3688  H     
61   H        -0.5772  -28.3493    6.2176  H     
62   H         2.2221  -22.2426    7.0564  H     
63   H         0.2899  -22.9974    5.8553  H     
64   H         0.1617  -26.4785    8.2316  H     
65   H         4.5572  -25.8102   12.1536  H     
66   H         1.4398  -28.6373   11.6462  H     
67   H         2.0790  -29.6939   13.7143  H     
68   H         5.1605  -26.8667   14.2223  H     
69   H         2.6904  -25.9228    1.3489  H     
70   H         2.3481  -26.7377   -0.1965  H     
71   H         3.2753  -27.5795    1.0550  H     
@<TRIPOS>BOND
     1    1    2 1
     2    1    5 1
     3    2    6 1
     4    3    4 1
     5    3    6 1
     6    4    5 1
     7    5    7 1
     8    7    8 1
     9    8    9 1
    10    9   16 1
    11   10   15 1
    12   10   17 2
    13   10   19 1
    14   11   12 1
    15   11   15 2
    16   11   16 1
    17   12   13 1
    18   13   18 1
    19   14   15 1
    20   14   18 1
    21   16   17 1
    22   18   35 1
    23   19   21 2
    24   19   22 1
    25   20   21 1
    26   20   24 2
    27   22   23 2
    28   23   24 1
    29   23   26 1
    30   24   25 1
    31   26   27 3
    32   27   28 1
    33   28   29 2
    34   28   30 1
    35   29   32 1
    36   30   31 2
    37   31   33 1
    38   32   33 2
    39   33   34 1
    40   35   36 2
    41   35   37 1
    42   37   38 2
    43   37   39 1
    44   39   40 1
    45    1   41 1
    46    1   42 1
    47    2   43 1
    48    2   44 1
    49    3   45 1
    50    3   46 1
    51    4   47 1
    52    4   48 1
    53    5   49 1
    54    7   50 1
    55    7   51 1
    56    8   52 1
    57    8   53 1
    58    9   54 1
    59    9   55 1
    60   12   56 1
    61   12   57 1
    62   13   58 1
    63   13   59 1
    64   14   60 1
    65   14   61 1
    66   20   62 1
    67   21   63 1
    68   22   64 1
    69   29   65 1
    70   30   66 1
    71   31   67 1
    72   32   68 1
    73   40   69 1
    74   40   70 1
    75   40   71 1
@<TRIPOS>PROPERTY_DATA
  Total_Score	| 4.1438
  Crash		| -1.8713
  Polar		| 1.8665
  FragIndex	| 1
  FragRMSD	| 1.016

