@<TRIPOS>MOLECULE
BindingDB_33997
 74 78 0 0 0
SMALL
NO_CHARGES


@<TRIPOS>ATOM
1    C        -6.5997  -21.3708    7.4989  C     
2    C        -7.0787  -20.3174    8.5320  C     
3    C        -5.3985  -21.0353   10.1162  C     
4    C        -4.8729  -22.0999    9.1181  C     
5    N        -5.1472  -21.6590    7.7159  N     
6    O        -6.7906  -20.7485    9.8767  O     
7    C        -4.5052  -22.5074    6.6546  C     
8    C        -5.0109  -23.9761    6.5188  C     
9    C        -4.3875  -24.8021    5.3519  C     
10   C        -0.9396  -25.1709    6.1517  C     
11   C        -2.3931  -26.2110    4.8579  C     
12   C        -2.9268  -27.2148    3.9034  C     
13   C        -1.9441  -28.4140    3.7610  C     
14   C        -0.0494  -27.1758    4.7229  C     
15   C        -1.0593  -26.2205    5.2505  C     
16   N        -3.0079  -25.1862    5.4943  N     
17   N        -2.1373  -24.5854    6.2531  N     
18   N        -0.5769  -27.9255    3.5791  N     
19   C         0.2041  -24.7707    6.8620  C     
20   C         1.9236  -23.1078    7.3242  C     
21   C         0.8114  -23.5335    6.5743  C     
22   C         0.7047  -25.5740    7.9087  C     
23   C         1.8035  -25.1386    8.6831  C     
24   C         2.4248  -23.8977    8.3780  C     
25   Cl        3.7676  -23.3015    9.2354  Cl    
26   C         2.1982  -25.8697    9.6889  C     
27   C         2.5468  -26.5124   10.6314  C     
28   C         2.9209  -27.1791   11.6876  C     
29   C         3.9808  -26.6980   12.4872  C     
30   C         2.2459  -28.3612   12.0672  C     
31   C         2.6237  -29.0478   13.2375  C     
32   C         4.3555  -27.3864   13.6539  C     
33   C         3.6761  -28.5631   14.0362  C     
34   Cl        4.1355  -29.3902   15.4388  Cl    
35   C         0.1654  -28.1221    2.4692  C     
36   O         1.3750  -27.9065    2.4923  O     
37   C        -0.3200  -28.5611    1.1613  C     
38   O         0.0825  -27.6613    0.1137  O     
39   C         0.6300  -27.9496   -1.0958  C     
40   C         0.7948  -26.8520   -2.0518  C     
41   O         0.8783  -29.2228   -1.4893  O     
42   H        -7.2026  -22.2739    7.6167  H     
43   H        -6.7665  -20.9765    6.4933  H     
44   H        -6.6015  -19.3533    8.3369  H     
45   H        -8.1574  -20.1840    8.4388  H     
46   H        -5.2983  -21.4143   11.1352  H     
47   H        -4.8076  -20.1179   10.0397  H     
48   H        -3.8007  -22.2321    9.2772  H     
49   H        -5.3710  -23.0513    9.3314  H     
50   H        -4.6860  -20.7512    7.6276  H     
51   H        -4.6307  -22.0014    5.6926  H     
52   H        -3.4309  -22.5185    6.8532  H     
53   H        -4.8393  -24.5120    7.4545  H     
54   H        -6.0910  -23.9374    6.3494  H     
55   H        -4.9897  -25.7155    5.2800  H     
56   H        -4.5105  -24.2594    4.4123  H     
57   H        -3.8864  -27.5977    4.2567  H     
58   H        -3.0761  -26.7340    2.9325  H     
59   H        -1.9766  -29.0142    4.6798  H     
60   H        -2.3074  -29.0891    2.9908  H     
61   H         0.8357  -26.5847    4.4614  H     
62   H         0.2297  -27.8751    5.5171  H     
63   H         2.3526  -22.2074    7.1044  H     
64   H         0.4584  -22.9375    5.8211  H     
65   H         0.2425  -26.4651    8.1233  H     
66   H         4.4838  -25.8381   12.2389  H     
67   H         1.4732  -28.7307   11.5051  H     
68   H         2.1296  -29.9037   13.5018  H     
69   H         5.1254  -27.0295   14.2193  H     
70   H         0.0105  -29.5901    0.9854  H     
71   H        -1.3999  -28.5356    1.0754  H     
72   H        -0.1752  -26.3922   -2.2343  H     
73   H         1.1991  -27.2173   -2.9945  H     
74   H         1.4719  -26.1040   -1.6450  H     
@<TRIPOS>BOND
     1    1    2 1
     2    1    5 1
     3    2    6 1
     4    3    4 1
     5    3    6 1
     6    4    5 1
     7    5    7 1
     8    7    8 1
     9    8    9 1
    10    9   16 1
    11   10   15 1
    12   10   17 2
    13   10   19 1
    14   11   12 1
    15   11   15 2
    16   11   16 1
    17   12   13 1
    18   13   18 1
    19   14   15 1
    20   14   18 1
    21   16   17 1
    22   18   35 am
    23   19   21 2
    24   19   22 1
    25   20   21 1
    26   20   24 2
    27   22   23 2
    28   23   24 1
    29   23   26 1
    30   24   25 1
    31   26   27 3
    32   27   28 1
    33   28   29 2
    34   28   30 1
    35   29   32 1
    36   30   31 2
    37   31   33 1
    38   32   33 2
    39   33   34 1
    40   35   36 2
    41   35   37 1
    42   37   38 1
    43   38   39 1
    44   39   40 1
    45   39   41 2
    46    1   42 1
    47    1   43 1
    48    2   44 1
    49    2   45 1
    50    3   46 1
    51    3   47 1
    52    4   48 1
    53    4   49 1
    54    5   50 1
    55    7   51 1
    56    7   52 1
    57    8   53 1
    58    8   54 1
    59    9   55 1
    60    9   56 1
    61   12   57 1
    62   12   58 1
    63   13   59 1
    64   13   60 1
    65   14   61 1
    66   14   62 1
    67   20   63 1
    68   21   64 1
    69   22   65 1
    70   29   66 1
    71   30   67 1
    72   31   68 1
    73   32   69 1
    74   37   70 1
    75   37   71 1
    76   40   72 1
    77   40   73 1
    78   40   74 1
@<TRIPOS>PROPERTY_DATA
  Total_Score	| 5.1518
  Crash		| -0.9322
  Polar		| 2.2521
  FragIndex	| 1
  FragRMSD	| 0.875

