@<TRIPOS>MOLECULE
BindingDB_33981
 69 73 0 0 0
SMALL
NO_CHARGES


@<TRIPOS>ATOM
1    C         0.4686  -28.5327    2.6481  C     
2    C         1.3787  -27.2742    2.6030  C     
3    C         0.9442  -26.8330    4.9050  C     
4    C         0.0674  -28.1063    5.0501  C     
5    N        -0.5535  -28.5097    3.7499  N     
6    O         1.9629  -27.0457    3.9063  O     
7    C        -1.9179  -27.9525    3.4190  C     
8    C        -2.3034  -26.4748    3.7684  C     
9    C        -2.7006  -26.2040    5.2577  C     
10   C        -0.1640  -24.4902    7.0344  C     
11   C        -1.7820  -23.8992    5.6413  C     
12   C        -2.6107  -23.0583    4.7538  C     
13   C        -2.6610  -21.5963    5.2655  C     
14   C        -0.4516  -21.9315    6.4392  C     
15   C        -0.7238  -23.3897    6.3760  C     
16   N        -1.8424  -25.2327    5.8601  N     
17   N        -0.8805  -25.5677    6.6607  N     
18   N        -1.3646  -21.1064    5.6739  N     
19   C        -2.3359  -18.6038    6.7967  C     
20   S        -1.1612  -19.4263    5.7018  S     
21   O         0.2940  -19.0287    6.2215  O     
22   O        -1.2718  -18.8542    4.2175  O     
23   C         0.9690  -24.6017    7.8930  C     
24   C         3.2211  -23.9136    8.6054  C     
25   C         2.0941  -23.7473    7.7804  C     
26   C         1.0296  -25.6421    8.8506  C     
27   C         2.1610  -25.8313    9.6741  C     
28   C         3.2698  -24.9604    9.5475  C     
29   Cl        4.6807  -25.1067   10.4836  Cl    
30   C         2.1590  -26.8215   10.5290  C     
31   C         2.1242  -27.7244   11.3093  C     
32   C         2.0847  -28.6992   12.1755  C     
33   C         2.0722  -28.4552   13.5747  C     
34   C         2.0181  -30.0296   11.6986  C     
35   C         1.9385  -31.1044   12.6043  C     
36   C         1.9257  -30.8597   13.9879  C     
37   C         1.9927  -29.5412   14.4701  C     
38   Cl        2.1582  -26.8912   14.2326  Cl    
39   H         0.0075  -28.6969    1.6644  H     
40   H         1.1062  -29.4023    2.8414  H     
41   H         2.1884  -27.4340    1.8896  H     
42   H         0.8020  -26.4015    2.2664  H     
43   H         0.3341  -25.9828    4.6107  H     
44   H         1.4201  -26.6212    5.8666  H     
45   H         0.7175  -28.9279    5.3802  H     
46   H        -0.6873  -27.9693    5.8277  H     
47   H        -0.7621  -29.5039    3.8797  H     
48   H        -2.0991  -28.0902    2.3449  H     
49   H        -2.6490  -28.6107    3.9029  H     
50   H        -1.4915  -25.8071    3.4898  H     
51   H        -3.1652  -26.2012    3.1430  H     
52   H        -3.7380  -25.8477    5.3085  H     
53   H        -2.6786  -27.1355    5.8359  H     
54   H        -2.1591  -23.0727    3.7581  H     
55   H        -3.6293  -23.4488    4.6857  H     
56   H        -3.0718  -20.9786    4.4615  H     
57   H        -3.3388  -21.5346    6.1207  H     
58   H        -0.4881  -21.6274    7.4866  H     
59   H         0.5479  -21.7506    6.0546  H     
60   H        -3.3538  -18.7782    6.4454  H     
61   H        -2.1418  -17.5313    6.8120  H     
62   H        -2.2310  -19.0053    7.8056  H     
63   H         4.0194  -23.2858    8.4866  H     
64   H         2.1309  -23.0169    7.0736  H     
65   H         0.2241  -26.2748    8.9486  H     
66   H         2.0191  -30.2351   10.6948  H     
67   H         1.8850  -32.0635   12.2541  H     
68   H         1.8687  -31.6436   14.6434  H     
69   H         1.9816  -29.3788   15.4814  H     
@<TRIPOS>BOND
     1    1    2 1
     2    1    5 1
     3    2    6 1
     4    3    4 1
     5    3    6 1
     6    4    5 1
     7    5    7 1
     8    7    8 1
     9    8    9 1
    10    9   16 1
    11   10   15 1
    12   10   17 2
    13   10   23 1
    14   11   12 1
    15   11   15 2
    16   11   16 1
    17   12   13 1
    18   13   18 1
    19   14   15 1
    20   14   18 1
    21   16   17 1
    22   18   20 1
    23   19   20 1
    24   20   21 2
    25   20   22 2
    26   23   25 2
    27   23   26 1
    28   24   25 1
    29   24   28 2
    30   26   27 2
    31   27   28 1
    32   27   30 1
    33   28   29 1
    34   30   31 3
    35   31   32 1
    36   32   33 2
    37   32   34 1
    38   33   37 1
    39   33   38 1
    40   34   35 2
    41   35   36 1
    42   36   37 2
    43    1   39 1
    44    1   40 1
    45    2   41 1
    46    2   42 1
    47    3   43 1
    48    3   44 1
    49    4   45 1
    50    4   46 1
    51    5   47 1
    52    7   48 1
    53    7   49 1
    54    8   50 1
    55    8   51 1
    56    9   52 1
    57    9   53 1
    58   12   54 1
    59   12   55 1
    60   13   56 1
    61   13   57 1
    62   14   58 1
    63   14   59 1
    64   19   60 1
    65   19   61 1
    66   19   62 1
    67   24   63 1
    68   25   64 1
    69   26   65 1
    70   34   66 1
    71   35   67 1
    72   36   68 1
    73   37   69 1
@<TRIPOS>PROPERTY_DATA
  Total_Score	| 5.6509
  Crash		| -1.8092
  Polar		| 1.1412
  FragIndex	| 1
  FragRMSD	| 1.299

