@<TRIPOS>MOLECULE
BindingDB_33994
 74 79 0 0 0
SMALL
NO_CHARGES


@<TRIPOS>ATOM
1    C        -6.2215  -23.3101    8.9608  C     
2    C        -6.8087  -22.5940   10.2012  C     
3    C        -5.0699  -20.9395   10.1674  C     
4    C        -4.4479  -21.5827    8.9036  C     
5    N        -5.4537  -22.3614    8.0907  N     
6    O        -5.7737  -21.9205   10.9424  O     
7    C        -4.8092  -22.9474    6.8687  C     
8    C        -5.1728  -24.4135    6.4472  C     
9    C        -4.4056  -24.9489    5.1973  C     
10   C        -1.0514  -25.4751    6.2007  C     
11   C        -2.5703  -26.6691    5.1149  C     
12   C        -3.1206  -27.7867    4.3118  C     
13   C        -2.1455  -29.0103    4.2171  C     
14   C        -0.2957  -27.7740    5.2568  C     
15   C        -1.2537  -26.6877    5.5583  C     
16   N        -3.0993  -25.4764    5.4699  N     
17   N        -2.1912  -24.7809    6.0798  N     
18   N        -0.7506  -28.5772    4.1298  N     
19   C         0.0948  -25.0205    6.8881  C     
20   C         1.8237  -23.3391    7.2626  C     
21   C         0.7128  -23.8042    6.5372  C     
22   C         0.5930  -25.7609    7.9800  C     
23   C         1.6910  -25.2882    8.7291  C     
24   C         2.3174  -24.0675    8.3639  C     
25   Cl        3.6515  -23.4235    9.1977  Cl    
26   C         2.0521  -25.9472    9.7979  C     
27   C         2.3757  -26.5153   10.7984  C     
28   C         2.7230  -27.0782   11.9219  C     
29   C         3.9764  -26.7742   12.4969  C     
30   C         1.8227  -27.9234   12.6121  C     
31   C         2.1784  -28.4584   13.8654  C     
32   C         4.3220  -27.3049   13.7514  C     
33   C         3.4238  -28.1435   14.4406  C     
34   Cl        3.8426  -28.7601   15.9628  Cl    
35   C         0.0652  -28.8751    3.0987  C     
36   O         1.2121  -28.4401    3.0391  O     
37   C        -0.2893  -29.6469    2.0112  C     
38   C        -0.6958  -29.0574    0.7920  C     
39   C        -0.9766  -29.8822   -0.3114  C     
40   C        -0.8389  -31.2815   -0.1964  C     
41   C        -0.3987  -31.8245    1.0266  C     
42   N        -0.1419  -30.9976    2.0772  N     
43   H        -5.5719  -24.1191    9.2789  H     
44   H        -7.0420  -23.7460    8.4074  H     
45   H        -7.5801  -21.8826    9.8946  H     
46   H        -7.2691  -23.3307   10.8590  H     
47   H        -4.2746  -20.5303   10.7895  H     
48   H        -5.7339  -20.1276    9.8722  H     
49   H        -4.0016  -20.7886    8.2977  H     
50   H        -3.6343  -22.2470    9.2245  H     
51   H        -6.1326  -21.6737    7.7560  H     
52   H        -5.0703  -22.2949    6.0160  H     
53   H        -3.7139  -22.8932    6.9710  H     
54   H        -4.9745  -25.0842    7.2907  H     
55   H        -6.2543  -24.4441    6.2394  H     
56   H        -5.0285  -25.7106    4.7363  H     
57   H        -4.3194  -24.1359    4.4704  H     
58   H        -4.0669  -28.1166    4.7452  H     
59   H        -3.3191  -27.4119    3.3045  H     
60   H        -2.2653  -29.6248    5.1253  H     
61   H        -2.4666  -29.6322    3.3752  H     
62   H         0.6861  -27.3168    5.0988  H     
63   H        -0.2103  -28.4077    6.1463  H     
64   H         2.2597  -22.4582    6.9931  H     
65   H         0.3665  -23.2515    5.7500  H     
66   H         0.1279  -26.6342    8.2542  H     
67   H         4.6401  -26.1575   12.0161  H     
68   H         0.9024  -28.1513   12.2189  H     
69   H         1.5221  -29.0645   14.3611  H     
70   H         5.2242  -27.0604   14.1657  H     
71   H        -0.7901  -28.0458    0.6993  H     
72   H        -1.2795  -29.4748   -1.2019  H     
73   H        -1.0170  -31.8933   -1.0034  H     
74   H        -0.2809  -32.8399    1.1304  H     
@<TRIPOS>BOND
     1    1    2 1
     2    1    5 1
     3    2    6 1
     4    3    4 1
     5    3    6 1
     6    4    5 1
     7    5    7 1
     8    7    8 1
     9    8    9 1
    10    9   16 1
    11   10   15 1
    12   10   17 2
    13   10   19 1
    14   11   12 1
    15   11   15 2
    16   11   16 1
    17   12   13 1
    18   13   18 1
    19   14   15 1
    20   14   18 1
    21   16   17 1
    22   18   35 1
    23   19   21 2
    24   19   22 1
    25   20   21 1
    26   20   24 2
    27   22   23 2
    28   23   24 1
    29   23   26 1
    30   24   25 1
    31   26   27 3
    32   27   28 1
    33   28   29 2
    34   28   30 1
    35   29   32 1
    36   30   31 2
    37   31   33 1
    38   32   33 2
    39   33   34 1
    40   35   36 2
    41   35   37 1
    42   37   38 1
    43   37   42 2
    44   38   39 2
    45   39   40 1
    46   40   41 2
    47   41   42 1
    48    1   43 1
    49    1   44 1
    50    2   45 1
    51    2   46 1
    52    3   47 1
    53    3   48 1
    54    4   49 1
    55    4   50 1
    56    5   51 1
    57    7   52 1
    58    7   53 1
    59    8   54 1
    60    8   55 1
    61    9   56 1
    62    9   57 1
    63   12   58 1
    64   12   59 1
    65   13   60 1
    66   13   61 1
    67   14   62 1
    68   14   63 1
    69   20   64 1
    70   21   65 1
    71   22   66 1
    72   29   67 1
    73   30   68 1
    74   31   69 1
    75   32   70 1
    76   38   71 1
    77   39   72 1
    78   40   73 1
    79   41   74 1
@<TRIPOS>PROPERTY_DATA
  Total_Score	| 5.4555
  Crash		| -0.9617
  Polar		| 1.3772
  FragIndex	| 1
  FragRMSD	| 0.417

