@<TRIPOS>MOLECULE
BindingDB_33977
 69 73 0 0 0
SMALL
NO_CHARGES


@<TRIPOS>ATOM
1    C        -6.6921  -21.7472    7.7645  C     
2    C        -7.2176  -20.7860    8.8632  C     
3    C        -5.0574  -20.7606    9.9369  C     
4    C        -4.4680  -21.6708    8.8400  C     
5    N        -5.5483  -22.5519    8.2968  N     
6    O        -6.1543  -19.9833    9.4195  O     
7    C        -5.0852  -23.6580    7.4138  C     
8    C        -4.9096  -23.3491    5.8980  C     
9    C        -4.4483  -24.5919    5.0689  C     
10   C        -1.1394  -25.2775    6.2264  C     
11   C        -2.6700  -26.3428    5.0229  C     
12   C        -3.2772  -27.3667    4.1412  C     
13   C        -2.4160  -28.6652    4.0951  C     
14   C        -0.4764  -27.5896    5.1892  C     
15   C        -1.3737  -26.4536    5.5227  C     
16   N        -3.1644  -25.1503    5.4182  N     
17   N        -2.2479  -24.5289    6.1095  N     
18   N        -1.0091  -28.3364    4.0721  N     
19   C         0.9640  -27.1463    2.2118  C     
20   S        -0.0958  -28.5390    2.6560  S     
21   O         0.7461  -29.8856    2.7377  O     
22   O        -1.0637  -28.6799    1.3999  O     
23   C         0.0274  -24.8478    6.8902  C     
24   C         1.7478  -23.1540    7.2337  C     
25   C         0.6164  -23.6197    6.5453  C     
26   C         0.5749  -25.6028    7.9522  C     
27   C         1.6933  -25.1227    8.6719  C     
28   C         2.2966  -23.8976    8.2966  C     
29   Cl        3.6616  -23.2499    9.0819  Cl    
30   C         2.0978  -25.7765    9.7300  C     
31   C         2.4702  -26.3136   10.7295  C     
32   C         2.8691  -26.8391   11.8530  C     
33   C         3.5411  -26.0321   12.8007  C     
34   C         2.5956  -28.1911   12.1674  C     
35   C         2.9903  -28.7197   13.4146  C     
36   C         3.6571  -27.9113   14.3501  C     
37   C         3.9256  -26.5649   14.0464  C     
38   H        -7.5198  -22.4057    7.4737  H     
39   H        -6.3898  -21.1619    6.8915  H     
40   H        -7.9689  -20.1107    8.4405  H     
41   H        -7.6967  -21.3631    9.6666  H     
42   H        -5.3848  -21.3555   10.7941  H     
43   H        -4.2886  -20.0648   10.2873  H     
44   H        -4.0541  -21.0393    8.0519  H     
45   H        -3.6615  -22.2732    9.2529  H     
46   H        -5.9359  -23.0311    9.1144  H     
47   H        -4.1329  -24.0302    7.8142  H     
48   H        -5.7935  -24.4931    7.4942  H     
49   H        -5.8693  -23.0001    5.5019  H     
50   H        -4.2025  -22.5246    5.7786  H     
51   H        -5.2135  -25.3780    5.1725  H     
52   H        -4.4091  -24.3088    4.0007  H     
53   H        -4.2748  -27.6206    4.5020  H     
54   H        -3.3614  -26.9530    3.1310  H     
55   H        -2.6095  -29.2581    4.9936  H     
56   H        -2.7231  -29.2838    3.2404  H     
57   H         0.5215  -27.1985    4.9972  H     
58   H        -0.4146  -28.2507    6.0594  H     
59   H         0.3758  -26.2276    2.2396  H     
60   H         1.3596  -27.2946    1.2067  H     
61   H         1.7944  -27.0725    2.9210  H     
62   H         2.1622  -22.2649    6.9621  H     
63   H         0.2346  -23.0514    5.7887  H     
64   H         0.1234  -26.4801    8.2308  H     
65   H         3.7439  -25.0425   12.6038  H     
66   H         2.1042  -28.7970   11.5040  H     
67   H         2.7857  -29.7000   13.6378  H     
68   H         3.9309  -28.2929   15.2533  H     
69   H         4.3940  -25.9675   14.7312  H     
@<TRIPOS>BOND
     1    1    2 1
     2    1    5 1
     3    2    6 1
     4    3    4 1
     5    3    6 1
     6    4    5 1
     7    5    7 1
     8    7    8 1
     9    8    9 1
    10    9   16 1
    11   10   15 1
    12   10   17 2
    13   10   23 1
    14   11   12 1
    15   11   15 2
    16   11   16 1
    17   12   13 1
    18   13   18 1
    19   14   15 1
    20   14   18 1
    21   16   17 1
    22   18   20 1
    23   19   20 1
    24   20   21 2
    25   20   22 2
    26   23   25 2
    27   23   26 1
    28   24   25 1
    29   24   28 2
    30   26   27 2
    31   27   28 1
    32   27   30 1
    33   28   29 1
    34   30   31 3
    35   31   32 1
    36   32   33 2
    37   32   34 1
    38   33   37 1
    39   34   35 2
    40   35   36 1
    41   36   37 2
    42    1   38 1
    43    1   39 1
    44    2   40 1
    45    2   41 1
    46    3   42 1
    47    3   43 1
    48    4   44 1
    49    4   45 1
    50    5   46 1
    51    7   47 1
    52    7   48 1
    53    8   49 1
    54    8   50 1
    55    9   51 1
    56    9   52 1
    57   12   53 1
    58   12   54 1
    59   13   55 1
    60   13   56 1
    61   14   57 1
    62   14   58 1
    63   19   59 1
    64   19   60 1
    65   19   61 1
    66   24   62 1
    67   25   63 1
    68   26   64 1
    69   33   65 1
    70   34   66 1
    71   35   67 1
    72   36   68 1
    73   37   69 1
@<TRIPOS>PROPERTY_DATA
  Total_Score	| 3.8657
  Crash		| -1.0334
  Polar		| 0.0027
  FragIndex	| 1
  FragRMSD	| 0.696

