@<TRIPOS>MOLECULE
BindingDB_33988
 72 76 0 0 0
SMALL
NO_CHARGES


@<TRIPOS>ATOM
1    C         0.1118  -26.6166    3.0721  C     
2    C         1.3924  -27.4303    3.3711  C     
3    C         0.2374  -29.5055    2.9863  C     
4    C        -1.0839  -28.7612    2.6605  C     
5    N        -1.1270  -27.4167    3.3222  N     
6    O         1.3737  -28.6805    2.6586  O     
7    C        -2.3716  -26.6378    2.9938  C     
8    C        -3.6932  -27.2320    3.5569  C     
9    C        -3.8546  -27.1249    5.0997  C     
10   C        -1.6014  -24.7321    6.4370  C     
11   C        -3.7488  -24.7417    5.9049  C     
12   C        -5.1477  -24.2776    5.7930  C     
13   C        -5.2917  -22.7448    6.0314  C     
14   C        -2.9663  -22.5553    6.9100  C     
15   C        -2.7357  -23.9283    6.4027  C     
16   N        -3.2206  -25.9642    5.6679  N     
17   N        -1.9636  -25.9461    5.9984  N     
18   N        -4.3702  -22.2344    7.0261  N     
19   C        -4.0907  -20.6980    9.5216  C     
20   S        -4.7825  -20.8247    7.8631  S     
21   O        -4.3505  -19.5402    7.0234  O     
22   O        -6.3573  -20.7840    8.0782  O     
23   C        -0.3161  -24.4299    6.9255  C     
24   C         1.5960  -22.9230    7.1094  C     
25   C         0.3506  -23.2426    6.5520  C     
26   C         0.3005  -25.2939    7.8603  C     
27   C         1.5324  -24.9558    8.4577  C     
28   C         2.1984  -23.7649    8.0666  C     
29   Cl        3.6924  -23.2784    8.7193  Cl    
30   C         1.9713  -25.6775    9.4534  C     
31   C         2.3529  -26.2905   10.4075  C     
32   C         2.7682  -26.8905   11.4870  C     
33   C         2.2646  -28.1589   11.8498  C     
34   C         3.7029  -26.2458   12.3232  C     
35   C         4.1384  -26.8684   13.5076  C     
36   C         3.6477  -28.1433   13.8748  C     
37   C         2.7002  -28.7757   13.0388  C     
38   C         4.1557  -28.7983   15.1028  C     
39   H         0.1052  -25.7393    3.7255  H     
40   H         0.1390  -26.2801    2.0298  H     
41   H         2.2663  -26.8676    3.0354  H     
42   H         1.4892  -27.6010    4.4468  H     
43   H         0.2641  -29.7939    4.0453  H     
44   H         0.2979  -30.4181    2.3874  H     
45   H        -1.1582  -28.6497    1.5748  H     
46   H        -1.9238  -29.3776    3.0082  H     
47   H        -1.1450  -27.5967    4.3267  H     
48   H        -2.2884  -25.6249    3.3906  H     
49   H        -2.4684  -26.5482    1.9061  H     
50   H        -4.5284  -26.7074    3.0826  H     
51   H        -3.7507  -28.2872    3.2715  H     
52   H        -4.9184  -27.1186    5.3553  H     
53   H        -3.4150  -28.0236    5.5432  H     
54   H        -5.5243  -24.5158    4.7940  H     
55   H        -5.7495  -24.8230    6.5241  H     
56   H        -5.0940  -22.2250    5.0876  H     
57   H        -6.3331  -22.5574    6.3023  H     
58   H        -2.4907  -22.4773    7.8922  H     
59   H        -2.4869  -21.8361    6.2376  H     
60   H        -4.2765  -21.6248   10.0683  H     
61   H        -4.5694  -19.8677   10.0449  H     
62   H        -3.0160  -20.5177    9.4617  H     
63   H         2.0543  -22.0495    6.8379  H     
64   H        -0.0655  -22.6035    5.8709  H     
65   H        -0.1897  -26.1493    8.1440  H     
66   H         1.5765  -28.6419   11.2638  H     
67   H         4.0705  -25.3194   12.0916  H     
68   H         4.8057  -26.3817   14.1066  H     
69   H         2.3225  -29.6924   13.2873  H     
70   H         5.2186  -29.0199   14.9833  H     
71   H         3.6329  -29.7338   15.3173  H     
72   H         4.0272  -28.1347   15.9590  H     
@<TRIPOS>BOND
     1    1    2 1
     2    1    5 1
     3    2    6 1
     4    3    4 1
     5    3    6 1
     6    4    5 1
     7    5    7 1
     8    7    8 1
     9    8    9 1
    10    9   16 1
    11   10   15 1
    12   10   17 2
    13   10   23 1
    14   11   12 1
    15   11   15 2
    16   11   16 1
    17   12   13 1
    18   13   18 1
    19   14   15 1
    20   14   18 1
    21   16   17 1
    22   18   20 1
    23   19   20 1
    24   20   21 2
    25   20   22 2
    26   23   25 2
    27   23   26 1
    28   24   25 1
    29   24   28 2
    30   26   27 2
    31   27   28 1
    32   27   30 1
    33   28   29 1
    34   30   31 3
    35   31   32 1
    36   32   33 2
    37   32   34 1
    38   33   37 1
    39   34   35 2
    40   35   36 1
    41   36   37 2
    42   36   38 1
    43    1   39 1
    44    1   40 1
    45    2   41 1
    46    2   42 1
    47    3   43 1
    48    3   44 1
    49    4   45 1
    50    4   46 1
    51    5   47 1
    52    7   48 1
    53    7   49 1
    54    8   50 1
    55    8   51 1
    56    9   52 1
    57    9   53 1
    58   12   54 1
    59   12   55 1
    60   13   56 1
    61   13   57 1
    62   14   58 1
    63   14   59 1
    64   19   60 1
    65   19   61 1
    66   19   62 1
    67   24   63 1
    68   25   64 1
    69   26   65 1
    70   33   66 1
    71   34   67 1
    72   35   68 1
    73   37   69 1
    74   38   70 1
    75   38   71 1
    76   38   72 1
@<TRIPOS>PROPERTY_DATA
  Total_Score	| 4.2237
  Crash		| -1.9316
  Polar		| 0.8115
  FragIndex	| 1
  FragRMSD	| 1.376

