@<TRIPOS>MOLECULE
BindingDB_50302905
 45 49 0 0 0
SMALL
NO_CHARGES


@<TRIPOS>ATOM
1    C        22.4495   10.7865   56.4380  C     
2    C        23.6422   11.5485   56.4917  C     
3    C        24.7015   11.1641   57.3515  C     
4    N        24.5742   10.0518   58.1155  N     
5    C        22.3711    9.6062   57.2205  C     
6    C        23.4559    9.2825   58.0867  C     
7    C        23.3557    8.1521   58.9183  C     
8    C        22.1929    7.3374   58.8988  C     
9    C        21.1699    7.6854   57.9837  C     
10   N        21.2814    8.7895   57.2001  N     
11   O        21.9734    6.1979   59.6565  O     
12   C        22.4048    6.1540   61.0278  C     
13   C        18.3848   13.6526   57.9630  C     
14   C        18.6064   14.9589   58.3846  C     
15   C        19.5785   15.7083   57.8226  C     
16   N        19.1521   13.1680   57.0308  N     
17   N        20.1012   13.8542   56.4760  N     
18   C        20.3530   15.1218   56.8331  C     
19   N        21.3866   15.5870   56.1194  N     
20   N        21.7800   14.6270   55.3408  N     
21   C        21.0024   13.5416   55.5320  C     
22   C        21.1757   12.2557   54.8300  C     
23   N        21.3562   11.1463   55.7134  N     
24   C        17.4432   12.8535   58.5353  C     
25   S        17.6639   11.1837   58.7848  S     
26   N        16.1775   11.1174   59.4916  N     
27   C        15.5454   12.2265   59.5199  C     
28   C        16.2452   13.2342   58.9859  C     
29   C        14.2154   12.3278   60.0836  C     
30   H        23.7392   12.4018   55.9450  H     
31   H        25.5597   11.7139   57.3995  H     
32   H        24.1416    7.9324   59.5369  H     
33   H        20.3187    7.1193   57.9125  H     
34   H        23.5008    6.2313   61.0906  H     
35   H        22.1057    5.1958   61.4393  H     
36   H        21.9300    6.9519   61.6184  H     
37   H        18.0731   15.3534   59.1282  H     
38   H        19.7569   16.6365   58.1259  H     
39   H        20.2723   12.0729   54.2430  H     
40   H        22.0126   12.3049   54.1311  H     
41   H        20.5698   10.5991   55.8346  H     
42   H        15.9113   14.1687   58.9522  H     
43   H        13.5466   11.6541   59.5466  H     
44   H        13.8182   13.3418   60.0068  H     
45   H        14.2327   12.0460   61.1398  H     
@<TRIPOS>BOND
     1    1    2 2
     2    1    5 1
     3    1   23 1
     4    2    3 1
     5    3    4 2
     6    4    6 1
     7    5    6 2
     8    5   10 1
     9    6    7 1
    10    7    8 2
    11    8    9 1
    12    8   11 1
    13    9   10 2
    14   11   12 1
    15   13   14 1
    16   13   16 2
    17   13   24 1
    18   14   15 2
    19   15   18 1
    20   16   17 1
    21   17   18 1
    22   17   21 1
    23   18   19 2
    24   19   20 1
    25   20   21 2
    26   21   22 1
    27   22   23 1
    28   24   25 1
    29   24   28 2
    30   25   26 1
    31   26   27 2
    32   27   28 1
    33   27   29 1
    34    2   30 1
    35    3   31 1
    36    7   32 1
    37    9   33 1
    38   12   34 1
    39   12   35 1
    40   12   36 1
    41   14   37 1
    42   15   38 1
    43   22   39 1
    44   22   40 1
    45   23   41 1
    46   28   42 1
    47   29   43 1
    48   29   44 1
    49   29   45 1
@<TRIPOS>PROPERTY_DATA
  Total_Score	| 11.5786
  Crash		| -0.6566
  Polar		| 2.1830
  FragIndex	| 1
  FragRMSD	| 0.119

