@<TRIPOS>MOLECULE
BindingDB_50302899
 47 51 0 0 0
SMALL
NO_CHARGES


@<TRIPOS>ATOM
1    C        22.3212   10.7036   56.4382  C     
2    C        23.4793   11.5196   56.4967  C     
3    C        24.5452   11.1688   57.3445  C     
4    N        24.4700   10.0421   58.0953  N     
5    C        22.2963    9.4938   57.1880  C     
6    C        23.4010    9.2038   58.0491  C     
7    C        23.3715    8.0777   58.8895  C     
8    C        22.2645    7.1913   58.8933  C     
9    C        21.2059    7.4460   58.0007  C     
10   C        21.2151    8.5717   57.1628  C     
11   O        22.0477    6.1492   59.7555  O     
12   C        22.5174    6.2059   61.1178  C     
13   C        18.3786   13.8340   58.0195  C     
14   C        18.7004   15.1328   58.3981  C     
15   C        19.7176   15.7993   57.8161  C     
16   N        19.1043   13.2796   57.0856  N     
17   N        20.0930   13.8844   56.5126  N     
18   C        20.4417   15.1448   56.8385  C     
19   N        21.5055   15.5067   56.1078  N     
20   N        21.8145   14.5062   55.3368  N     
21   C        20.9585   13.4872   55.5638  C     
22   C        20.9949   12.1874   54.8637  C     
23   N        21.2148   11.0695   55.7283  N     
24   C        17.3684   13.0957   58.6476  C     
25   C        16.1199   13.6807   58.9907  C     
26   C        15.1513   12.9660   59.7201  C     
27   C        15.4019   11.6421   60.1135  C     
28   C        16.6099   11.0261   59.7502  C     
29   C        17.5750   11.7393   59.0119  C     
30   H        23.5514   12.3758   55.9462  H     
31   H        25.3689   11.7646   57.3993  H     
32   H        24.1490    7.9361   59.5360  H     
33   H        20.3927    6.8289   57.9765  H     
34   H        20.4095    8.7163   56.5489  H     
35   H        23.6107    6.3033   61.1365  H     
36   H        22.2356    5.2706   61.6054  H     
37   H        22.0569    7.0260   61.6722  H     
38   H        18.2236   15.5724   59.1518  H     
39   H        19.9560   16.7242   58.0927  H     
40   H        20.0200   12.0492   54.3898  H     
41   H        21.7574   12.1861   54.0763  H     
42   H        20.4362   10.5090   55.8458  H     
43   H        15.9001   14.6397   58.7093  H     
44   H        14.2636   13.4126   59.9668  H     
45   H        14.7084   11.1297   60.6664  H     
46   H        16.7960   10.0611   60.0382  H     
47   H        18.4553   11.2667   58.7846  H     
@<TRIPOS>BOND
     1    1    2 2
     2    1    5 1
     3    1   23 1
     4    2    3 1
     5    3    4 2
     6    4    6 1
     7    5    6 2
     8    5   10 1
     9    6    7 1
    10    7    8 2
    11    8    9 1
    12    8   11 1
    13    9   10 2
    14   11   12 1
    15   13   14 1
    16   13   16 2
    17   13   24 1
    18   14   15 2
    19   15   18 1
    20   16   17 1
    21   17   18 1
    22   17   21 1
    23   18   19 2
    24   19   20 1
    25   20   21 2
    26   21   22 1
    27   22   23 1
    28   24   25 2
    29   24   29 1
    30   25   26 1
    31   26   27 2
    32   27   28 1
    33   28   29 2
    34    2   30 1
    35    3   31 1
    36    7   32 1
    37    9   33 1
    38   10   34 1
    39   12   35 1
    40   12   36 1
    41   12   37 1
    42   14   38 1
    43   15   39 1
    44   22   40 1
    45   22   41 1
    46   23   42 1
    47   25   43 1
    48   26   44 1
    49   27   45 1
    50   28   46 1
    51   29   47 1
@<TRIPOS>PROPERTY_DATA
  Total_Score	| 11.9442
  Crash		| -1.2620
  Polar		| 2.0152
  FragIndex	| 1
  FragRMSD	| 0.379

