@<TRIPOS>MOLECULE
BindingDB_50351749
 34 37 0 0 0
SMALL
NO_CHARGES


@<TRIPOS>ATOM
1    C        18.4079   13.5757   57.8083  C     
2    C        18.5270   14.9063   58.1931  C     
3    C        19.5278   15.6802   57.7154  C     
4    N        20.2574   13.8108   56.5039  N     
5    C        20.4206   15.1044   56.8306  C     
6    N        21.4907   15.5867   56.1838  N     
7    N        21.9858   14.6127   55.4711  N     
8    C        21.2392   13.5046   55.6468  C     
9    C        21.4924   12.1914   55.0264  C     
10   C        22.2061   11.2723   55.9544  C     
11   C        21.5927   10.0837   56.4202  C     
12   C        22.2834    9.2014   57.2696  C     
13   C        23.5966    9.5010   57.6828  C     
14   C        24.2141   10.6829   57.2430  C     
15   C        23.5294   11.5547   56.3728  C     
16   O        24.2941    8.6558   58.4784  O     
17   C        17.4001   12.7226   58.2472  C     
18   S        17.2568   11.0566   57.8204  S     
19   C        15.8231   10.7227   58.7028  C     
20   C        15.4527   11.9036   59.3420  C     
21   C        16.3076   12.9912   59.0913  C     
22   N        19.2916   13.1011   56.9832  N     
23   H        17.8813   15.3124   58.8263  H     
24   H        19.6301   16.6285   57.9898  H     
25   H        20.5278   11.7811   54.7088  H     
26   H        22.0885   12.3208   54.1224  H     
27   H        20.6400    9.8408   56.1277  H     
28   H        21.8229    8.3414   57.5841  H     
29   H        25.1659   10.8960   57.5435  H     
30   H        24.0040   12.4009   56.0535  H     
31   H        24.0478    7.7532   58.1848  H     
32   H        15.3371    9.8270   58.7455  H     
33   H        14.6222   11.9757   59.9335  H     
34   H        16.1263   13.9075   59.4987  H     
@<TRIPOS>BOND
     1    1    2 1
     2    1   17 1
     3    1   22 2
     4    2    3 2
     5    3    5 1
     6    4    5 1
     7    4    8 1
     8    4   22 1
     9    5    6 2
    10    6    7 1
    11    7    8 2
    12    8    9 1
    13    9   10 1
    14   10   11 2
    15   10   15 1
    16   11   12 1
    17   12   13 2
    18   13   14 1
    19   13   16 1
    20   14   15 2
    21   17   18 1
    22   17   21 2
    23   18   19 1
    24   19   20 2
    25   20   21 1
    26    2   23 1
    27    3   24 1
    28    9   25 1
    29    9   26 1
    30   11   27 1
    31   12   28 1
    32   14   29 1
    33   15   30 1
    34   16   31 1
    35   19   32 1
    36   20   33 1
    37   21   34 1
@<TRIPOS>PROPERTY_DATA
  Total_Score	| 7.3165
  Crash		| -0.6433
  Polar		| 2.1896
  FragIndex	| 1
  FragRMSD	| 0.314

