@<TRIPOS>MOLECULE
BindingDB_50302900
 46 50 0 0 0
SMALL
NO_CHARGES


@<TRIPOS>ATOM
1    C        22.2587   10.2520   56.8092  C     
2    C        23.4202   11.0513   56.6827  C     
3    C        24.5808   10.7200   57.3951  C     
4    N        24.5888    9.6312   58.1975  N     
5    C        22.3094    9.0920   57.6436  C     
6    C        23.5165    8.8181   58.3490  C     
7    C        23.6240    7.7081   59.2126  C     
8    C        22.5339    6.8452   59.4066  C     
9    C        21.3472    7.0743   58.6858  C     
10   C        21.2349    8.1820   57.8246  C     
11   O        22.6831    5.7804   60.2589  O     
12   C        21.9661    5.9145   61.5024  C     
13   C        18.3718   13.7338   58.0825  C     
14   C        18.6372   15.0567   58.4182  C     
15   C        19.6346   15.7408   57.8185  C     
16   N        19.1100   13.1869   57.1634  N     
17   N        20.0721   13.8091   56.5638  N     
18   C        20.3825   15.0827   56.8605  C     
19   N        21.4385   15.4612   56.1293  N     
20   N        21.7804   14.4442   55.3900  N     
21   C        20.9528   13.4085   55.6344  C     
22   C        21.0044   12.1137   54.9306  C     
23   S        20.7569   10.6775   56.0047  S     
24   C        17.4142   12.9563   58.7457  C     
25   C        16.1253   13.4673   59.0477  C     
26   C        15.1829   12.6992   59.7571  C     
27   C        15.5076   11.4006   60.1772  C     
28   C        16.7736   10.8669   59.8795  C     
29   C        17.7145   11.6347   59.1672  C     
30   H        23.4514   11.8732   56.0845  H     
31   H        25.4191   11.2962   57.3128  H     
32   H        24.4964    7.5249   59.7106  H     
33   H        20.5586    6.4358   58.7929  H     
34   H        20.3532    8.3012   57.3258  H     
35   H        22.1572    6.8754   61.9974  H     
36   H        22.2932    5.1177   62.1688  H     
37   H        20.8900    5.7966   61.3367  H     
38   H        18.1278   15.5069   59.1411  H     
39   H        19.8409   16.6776   58.0696  H     
40   H        20.1881   12.1055   54.2097  H     
41   H        21.9335   12.0053   54.3696  H     
42   H        15.8520   14.4046   58.7412  H     
43   H        14.2604   13.0871   59.9665  H     
44   H        14.8250   10.8445   60.6990  H     
45   H        17.0138    9.9219   60.1863  H     
46   H        18.6368   11.2265   58.9885  H     
@<TRIPOS>BOND
     1    1    2 2
     2    1    5 1
     3    1   23 1
     4    2    3 1
     5    3    4 2
     6    4    6 1
     7    5    6 2
     8    5   10 1
     9    6    7 1
    10    7    8 2
    11    8    9 1
    12    8   11 1
    13    9   10 2
    14   11   12 1
    15   13   14 1
    16   13   16 2
    17   13   24 1
    18   14   15 2
    19   15   18 1
    20   16   17 1
    21   17   18 1
    22   17   21 1
    23   18   19 2
    24   19   20 1
    25   20   21 2
    26   21   22 1
    27   22   23 1
    28   24   25 2
    29   24   29 1
    30   25   26 1
    31   26   27 2
    32   27   28 1
    33   28   29 2
    34    2   30 1
    35    3   31 1
    36    7   32 1
    37    9   33 1
    38   10   34 1
    39   12   35 1
    40   12   36 1
    41   12   37 1
    42   14   38 1
    43   15   39 1
    44   22   40 1
    45   22   41 1
    46   25   42 1
    47   26   43 1
    48   27   44 1
    49   28   45 1
    50   29   46 1
@<TRIPOS>PROPERTY_DATA
  Total_Score	| 10.8804
  Crash		| -1.3813
  Polar		| 2.2999
  FragIndex	| 1
  FragRMSD	| 0.500

