@<TRIPOS>MOLECULE
BindingDB_24482
 46 50 0 0 0
SMALL
NO_CHARGES


@<TRIPOS>ATOM
1    C        18.3726   13.5704   57.7290  C     
2    C        18.6330   14.8545   58.2016  C     
3    C        21.1041   13.3872   55.4622  C     
4    C        20.4398   15.0028   56.7282  C     
5    N        20.1614   13.7420   56.3442  N     
6    N        21.9350   14.4388   55.3183  N     
7    N        21.5375   15.4214   56.0814  N     
8    C        21.2140   12.0982   54.7658  C     
9    C        19.6390   15.5933   57.6861  C     
10   N        19.1657   13.0826   56.8255  N     
11   O        21.2648   10.9353   55.6017  O     
12   C        22.3423   10.6732   56.4232  C     
13   C        23.5250   11.4561   56.4335  C     
14   C        24.5469   11.1635   57.3705  C     
15   C        23.3366    9.2825   58.1744  C     
16   C        22.2406    7.2337   58.9456  C     
17   C        21.1804    7.4861   58.0537  C     
18   C        21.1849    8.6267   57.2323  C     
19   C        22.2642    9.5434   57.2752  C     
20   C        23.3222    8.1396   59.0075  C     
21   N        24.4146   10.1022   58.2018  N     
22   O        22.2227    6.0454   59.6274  O     
23   C        22.4993    6.1417   61.0353  C     
24   C        17.3505   12.7606   58.1999  C     
25   C        15.7736   10.8004   58.7794  C     
26   C        15.4440   12.0015   59.4161  C     
27   C        16.3085   13.0668   59.0932  C     
28   S        17.1539   11.0925   57.8043  S     
29   C        14.2802   12.1301   60.3156  C     
30   H        18.1102   15.2302   58.9536  H     
31   H        20.3322   11.9971   54.1041  H     
32   H        22.1089   12.1359   54.1438  H     
33   H        19.8359   16.5109   58.0164  H     
34   H        23.6450   12.2020   55.7383  H     
35   H        25.3847   11.7453   57.4025  H     
36   H        20.4029    6.8248   57.9898  H     
37   H        20.4165    8.7572   56.5719  H     
38   H        24.1026    7.9550   59.6403  H     
39   H        23.5710    6.2828   61.2006  H     
40   H        22.2049    5.2023   61.5068  H     
41   H        21.9409    6.9551   61.5145  H     
42   H        15.2929    9.9030   58.8679  H     
43   H        16.1713   14.0000   59.4819  H     
44   H        13.3627   11.9557   59.7500  H     
45   H        14.2296   13.1268   60.7596  H     
46   H        14.3486   11.3962   61.1217  H     
@<TRIPOS>BOND
     1    1    2 1
     2    1   10 2
     3    1   24 1
     4    2    9 2
     5    3    5 1
     6    3    6 2
     7    3    8 1
     8    4    5 1
     9    4    7 2
    10    4    9 1
    11    5   10 1
    12    6    7 1
    13    8   11 1
    14   11   12 1
    15   12   13 2
    16   12   19 1
    17   13   14 1
    18   14   21 2
    19   15   19 2
    20   15   20 1
    21   15   21 1
    22   16   17 1
    23   16   20 2
    24   16   22 1
    25   17   18 2
    26   18   19 1
    27   22   23 1
    28   24   27 2
    29   24   28 1
    30   25   26 2
    31   25   28 1
    32   26   27 1
    33   26   29 1
    34    2   30 1
    35    8   31 1
    36    8   32 1
    37    9   33 1
    38   13   34 1
    39   14   35 1
    40   17   36 1
    41   18   37 1
    42   20   38 1
    43   23   39 1
    44   23   40 1
    45   23   41 1
    46   25   42 1
    47   27   43 1
    48   29   44 1
    49   29   45 1
    50   29   46 1
@<TRIPOS>PROPERTY_DATA
  Total_Score	| 11.7065
  Crash		| -0.7201
  Polar		| 1.9297
  FragIndex	| 1
  FragRMSD	| 0.302

