@<TRIPOS>MOLECULE
BindingDB_50302901
 46 50 0 0 0
SMALL
NO_CHARGES


@<TRIPOS>ATOM
1    C        22.3866   10.7458   56.4920  C     
2    C        23.5393   11.5673   56.5535  C     
3    C        24.6041   11.2312   57.4112  C     
4    N        24.5320   10.1130   58.1763  N     
5    C        22.3697    9.5692   57.2825  C     
6    C        23.4599    9.2847   58.1451  C     
7    C        23.4068    8.1459   58.9745  C     
8    C        22.2802    7.2868   58.9396  C     
9    C        21.2364    7.6063   58.0415  C     
10   N        21.3109    8.7082   57.2638  N     
11   O        22.0802    6.1437   59.6817  O     
12   C        22.4006    6.1084   61.0887  C     
13   C        18.3637   13.8099   58.0249  C     
14   C        18.6892   15.1098   58.3936  C     
15   C        19.7057   15.7701   57.8011  C     
16   N        19.0958   13.2404   57.1079  N     
17   N        20.0869   13.8374   56.5190  N     
18   C        20.4259   15.1011   56.8324  C     
19   N        21.4827   15.4693   56.1065  N     
20   N        21.8065   14.4615   55.3496  N     
21   C        20.9600   13.4384   55.5811  C     
22   C        21.0362   12.1379   54.8943  C     
23   N        21.2758   11.0300   55.7637  N     
24   C        17.3436   13.0926   58.6696  C     
25   C        17.5427   11.7452   59.0672  C     
26   C        16.5477   11.0301   59.7623  C     
27   C        15.3245   11.6523   60.0759  C     
28   C        15.1029   12.9842   59.6905  C     
29   C        16.0965   13.6951   58.9888  C     
30   H        23.6167   12.4127   55.9908  H     
31   H        25.4269   11.8332   57.4683  H     
32   H        24.1842    7.9526   59.6049  H     
33   H        20.4030    7.0091   57.9676  H     
34   H        23.4800    6.2223   61.2401  H     
35   H        22.0900    5.1429   61.4853  H     
36   H        21.8659    6.8864   61.6453  H     
37   H        18.2179   15.5596   59.1402  H     
38   H        19.9575   16.6904   58.0736  H     
39   H        20.0823   11.9731   54.3894  H     
40   H        21.8138   12.1688   54.1235  H     
41   H        20.5395   10.4071   55.8546  H     
42   H        18.4316   11.2750   58.8827  H     
43   H        16.7157   10.0680   60.0515  H     
44   H        14.6004   11.1352   60.5800  H     
45   H        14.2106   13.4376   59.9038  H     
46   H        15.8955   14.6569   58.7006  H     
@<TRIPOS>BOND
     1    1    2 2
     2    1    5 1
     3    1   23 1
     4    2    3 1
     5    3    4 2
     6    4    6 1
     7    5    6 2
     8    5   10 1
     9    6    7 1
    10    7    8 2
    11    8    9 1
    12    8   11 1
    13    9   10 2
    14   11   12 1
    15   13   14 1
    16   13   16 2
    17   13   24 1
    18   14   15 2
    19   15   18 1
    20   16   17 1
    21   17   18 1
    22   17   21 1
    23   18   19 2
    24   19   20 1
    25   20   21 2
    26   21   22 1
    27   22   23 1
    28   24   25 2
    29   24   29 1
    30   25   26 1
    31   26   27 2
    32   27   28 1
    33   28   29 2
    34    2   30 1
    35    3   31 1
    36    7   32 1
    37    9   33 1
    38   12   34 1
    39   12   35 1
    40   12   36 1
    41   14   37 1
    42   15   38 1
    43   22   39 1
    44   22   40 1
    45   23   41 1
    46   25   42 1
    47   26   43 1
    48   27   44 1
    49   28   45 1
    50   29   46 1
@<TRIPOS>PROPERTY_DATA
  Total_Score	| 11.5797
  Crash		| -0.9823
  Polar		| 1.9842
  FragIndex	| 1
  FragRMSD	| 0.359

