@<TRIPOS>MOLECULE
BindingDB_50351633
 37 40 0 0 0
SMALL
NO_CHARGES


@<TRIPOS>ATOM
1    C        18.3559   13.6197   57.7398  C     
2    C        18.4904   14.9598   58.1080  C     
3    C        19.5187   15.7086   57.6458  C     
4    N        20.2510   13.8011   56.4856  N     
5    C        20.4300   15.0974   56.8070  C     
6    N        21.5460   15.5449   56.2191  N     
7    N        22.0584   14.5378   55.5376  N     
8    C        21.2763   13.4505   55.6911  C     
9    C        21.5208   12.1402   55.0625  C     
10   C        22.2425   11.2136   55.9713  C     
11   C        21.6010   10.0472   56.4643  C     
12   C        22.2896    9.1512   57.3025  C     
13   C        23.6199    9.4125   57.6873  C     
14   C        24.2584   10.5821   57.2177  C     
15   C        23.5796   11.4680   56.3581  C     
16   O        24.3054    8.5558   58.4847  O     
17   C        17.3614   12.7741   58.2225  C     
18   S        17.2601   11.0865   57.8772  S     
19   C        15.8605   10.7529   58.8118  C     
20   C        15.4579   11.9474   59.4187  C     
21   C        16.2802   13.0486   59.0829  C     
22   C        14.2979   12.0128   60.3309  C     
23   N        19.2492   13.1194   56.9373  N     
24   H        17.8303   15.3891   58.7123  H     
25   H        19.6139   16.6623   57.9026  H     
26   H        20.5522   11.7278   54.7754  H     
27   H        22.0912   12.2736   54.1389  H     
28   H        20.6378    9.8401   56.2126  H     
29   H        21.8238    8.3029   57.6370  H     
30   H        25.2257   10.7799   57.4950  H     
31   H        24.0660   12.2933   56.0113  H     
32   H        24.0227    7.6493   58.2174  H     
33   H        15.4103    9.8390   58.9088  H     
34   H        16.0994   13.9801   59.4560  H     
35   H        13.3880   11.7670   59.7810  H     
36   H        14.1855   13.0076   60.7671  H     
37   H        14.4282   11.2914   61.1402  H     
@<TRIPOS>BOND
     1    1    2 1
     2    1   17 1
     3    1   23 2
     4    2    3 2
     5    3    5 1
     6    4    5 1
     7    4    8 1
     8    4   23 1
     9    5    6 2
    10    6    7 1
    11    7    8 2
    12    8    9 1
    13    9   10 1
    14   10   11 2
    15   10   15 1
    16   11   12 1
    17   12   13 2
    18   13   14 1
    19   13   16 1
    20   14   15 2
    21   17   18 1
    22   17   21 2
    23   18   19 1
    24   19   20 2
    25   20   21 1
    26   20   22 1
    27    2   24 1
    28    3   25 1
    29    9   26 1
    30    9   27 1
    31   11   28 1
    32   12   29 1
    33   14   30 1
    34   15   31 1
    35   16   32 1
    36   19   33 1
    37   21   34 1
    38   22   35 1
    39   22   36 1
    40   22   37 1
@<TRIPOS>PROPERTY_DATA
  Total_Score	| 8.1768
  Crash		| -0.7069
  Polar		| 2.1228
  FragIndex	| 1
  FragRMSD	| 0.327

