@<TRIPOS>MOLECULE
BindingDB_24483
 45 49 0 0 0
SMALL
NO_CHARGES


@<TRIPOS>ATOM
1    C        18.3823   13.5987   57.8354  C     
2    C        18.6285   14.9062   58.2549  C     
3    C        21.0938   13.4218   55.5073  C     
4    C        20.4358   15.0178   56.7817  C     
5    N        20.1536   13.7547   56.4024  N     
6    N        21.9222   14.4815   55.3676  N     
7    N        21.5237   15.4513   56.1341  N     
8    C        21.2326   12.1887   54.7122  C     
9    C        19.6363   15.6265   57.7260  C     
10   N        19.1644   13.0934   56.9231  N     
11   O        21.3446   10.9719   55.4832  O     
12   C        22.3861   10.7311   56.3607  C     
13   C        23.5593   11.5359   56.4294  C     
14   C        24.5278   11.2641   57.3845  C     
15   C        23.3712    9.3201   58.1169  C     
16   C        22.2457    7.2719   58.8693  C     
17   C        21.1862    7.5529   57.9895  C     
18   C        21.2069    8.6983   57.1741  C     
19   C        22.3031    9.6011   57.2153  C     
20   C        23.3587    8.1536   58.9111  C     
21   N        24.4177   10.1713   58.1945  N     
22   O        22.1999    6.0891   59.5588  O     
23   C        22.5325    6.1860   60.9611  C     
24   C        17.4392   12.8060   58.4172  C     
25   C        15.6243   12.2215   59.5680  C     
26   C        16.2909   13.2086   58.9633  C     
27   S        17.6259   11.1197   58.6104  S     
28   C        14.3928   12.4102   60.3103  C     
29   N        16.2069   11.0847   59.4537  N     
30   H        18.0803   15.3170   58.9749  H     
31   H        20.3397   12.1110   54.0758  H     
32   H        22.1000   12.3098   54.0685  H     
33   H        19.8255   16.5585   58.0214  H     
34   H        23.7054   12.2647   55.7345  H     
35   H        25.3529   11.8629   57.4650  H     
36   H        20.3904    6.9092   57.9317  H     
37   H        20.4228    8.8583   56.5331  H     
38   H        24.1570    7.9183   59.5104  H     
39   H        23.6187    6.2979   61.0949  H     
40   H        22.2092    5.2678   61.4585  H     
41   H        22.0201    7.0280   61.4573  H     
42   H        15.9616   14.1452   58.9414  H     
43   H        14.5572   13.1340   61.1181  H     
44   H        14.0407   11.4759   60.7558  H     
45   H        13.6150   12.7963   59.6414  H     
@<TRIPOS>BOND
     1    1    2 1
     2    1   10 2
     3    1   24 1
     4    2    9 2
     5    3    5 1
     6    3    6 2
     7    3    8 1
     8    4    5 1
     9    4    7 2
    10    4    9 1
    11    5   10 1
    12    6    7 1
    13    8   11 1
    14   11   12 1
    15   12   13 2
    16   12   19 1
    17   13   14 1
    18   14   21 2
    19   15   19 2
    20   15   20 1
    21   15   21 1
    22   16   17 1
    23   16   20 2
    24   16   22 1
    25   17   18 2
    26   18   19 1
    27   22   23 1
    28   24   26 2
    29   24   27 1
    30   25   26 1
    31   25   28 1
    32   25   29 2
    33   27   29 1
    34    2   30 1
    35    8   31 1
    36    8   32 1
    37    9   33 1
    38   13   34 1
    39   14   35 1
    40   17   36 1
    41   18   37 1
    42   20   38 1
    43   23   39 1
    44   23   40 1
    45   23   41 1
    46   26   42 1
    47   28   43 1
    48   28   44 1
    49   28   45 1
@<TRIPOS>PROPERTY_DATA
  Total_Score	| 12.5601
  Crash		| -0.5094
  Polar		| 1.9789
  FragIndex	| 1
  FragRMSD	| 0.125

