@<TRIPOS>MOLECULE
BindingDB_50302903
 46 50 0 0 0
SMALL
NO_CHARGES


@<TRIPOS>ATOM
1    C        22.3748   10.7011   56.5379  C     
2    C        23.5494   11.4942   56.6009  C     
3    C        24.6083   11.1184   57.4451  C     
4    N        24.5169    9.9843   58.1823  N     
5    C        22.3198    9.5164   57.3176  C     
6    C        23.4260    9.1818   58.1453  C     
7    C        23.3858    8.0039   58.9218  C     
8    C        22.2369    7.1892   58.9067  C     
9    C        21.1629    7.5578   58.0722  C     
10   N        21.2378    8.6888   57.3227  N     
11   O        22.1799    5.9954   59.5838  O     
12   C        22.2324    6.0986   61.0180  C     
13   C        18.4700   13.6659   58.0882  C     
14   C        18.6831   15.0000   58.4155  C     
15   C        19.6494   15.7178   57.8079  C     
16   N        19.2301   13.1373   57.1734  N     
17   N        20.1605   13.7926   56.5580  N     
18   C        20.4130   15.0826   56.8444  C     
19   N        21.4274   15.5110   56.0866  N     
20   N        21.7951   14.5140   55.3346  N     
21   C        21.0293   13.4348   55.6005  C     
22   C        21.1297   12.1413   54.8991  C     
23   N        21.3003   11.0203   55.7669  N     
24   C        17.5096   12.8796   58.7315  C     
25   C        17.8000   11.5409   59.1063  C     
26   C        16.8455   10.7536   59.7757  C     
27   C        15.5759   11.2827   60.0774  C     
28   C        15.2649   12.6045   59.7011  C     
29   C        16.2252   13.3923   59.0407  C     
30   F        14.6878   10.5489   60.6914  F     
31   F        14.0831   13.1059   59.9514  F     
32   F        17.1513    9.5313   60.1170  F     
33   H        23.6480   12.3458   56.0442  H     
34   H        25.4453   11.6990   57.5150  H     
35   H        24.1890    7.7394   59.4957  H     
36   H        20.3245    6.9787   58.0207  H     
37   H        23.1946    6.4912   61.3640  H     
38   H        22.1142    5.0851   61.4279  H     
39   H        21.4177    6.7192   61.4091  H     
40   H        18.1643   15.4292   59.1462  H     
41   H        19.8200   16.6653   58.0499  H     
42   H        20.2026   11.9951   54.3432  H     
43   H        21.9483   12.1668   54.1751  H     
44   H        20.5629   10.3894   55.7798  H     
45   H        18.7219   11.1459   58.9072  H     
46   H        15.9654   14.3445   58.7625  H     
@<TRIPOS>BOND
     1    1    2 2
     2    1    5 1
     3    1   23 1
     4    2    3 1
     5    3    4 2
     6    4    6 1
     7    5    6 2
     8    5   10 1
     9    6    7 1
    10    7    8 2
    11    8    9 1
    12    8   11 1
    13    9   10 2
    14   11   12 1
    15   13   14 1
    16   13   16 2
    17   13   24 1
    18   14   15 2
    19   15   18 1
    20   16   17 1
    21   17   18 1
    22   17   21 1
    23   18   19 2
    24   19   20 1
    25   20   21 2
    26   21   22 1
    27   22   23 1
    28   24   25 2
    29   24   29 1
    30   25   26 1
    31   26   27 2
    32   26   32 1
    33   27   28 1
    34   27   30 1
    35   28   29 2
    36   28   31 1
    37    2   33 1
    38    3   34 1
    39    7   35 1
    40    9   36 1
    41   12   37 1
    42   12   38 1
    43   12   39 1
    44   14   40 1
    45   15   41 1
    46   22   42 1
    47   22   43 1
    48   23   44 1
    49   25   45 1
    50   29   46 1
@<TRIPOS>PROPERTY_DATA
  Total_Score	| 11.7603
  Crash		| -0.7095
  Polar		| 2.0754
  FragIndex	| 1
  FragRMSD	| 0.376

