@<TRIPOS>MOLECULE
BindingDB_24480
 43 47 0 0 0
SMALL
NO_CHARGES


@<TRIPOS>ATOM
1    C        18.3313   13.5722   57.7810  C     
2    C        18.5310   14.8796   58.2102  C     
3    C        21.0761   13.4453   55.4984  C     
4    C        20.3806   15.0352   56.7809  C     
5    N        20.1358   13.7719   56.3964  N     
6    N        21.8774   14.5220   55.3618  N     
7    N        21.4624   15.4874   56.1315  N     
8    C        21.2295   12.1760   54.7671  C     
9    C        19.5458   15.6234   57.7246  C     
10   N        19.1569   13.0974   56.8917  N     
11   O        21.3134   11.0262   55.6234  O     
12   C        22.3882   10.7422   56.4334  C     
13   C        23.5480   11.5534   56.5194  C     
14   C        24.5692   11.2326   57.4317  C     
15   C        23.3897    9.2851   58.1302  C     
16   C        22.2727    7.2301   58.8600  C     
17   C        21.2410    7.4869   57.9348  C     
18   C        21.2502    8.6483   57.1437  C     
19   C        22.3271    9.5665   57.2247  C     
20   C        23.3453    8.1354   58.9473  C     
21   N        24.4593   10.1222   58.2051  N     
22   O        22.3670    6.0822   59.6067  O     
23   C        21.5534    5.9824   60.7906  C     
24   C        17.3374   12.7325   58.2681  C     
25   C        15.8356   10.7211   58.8708  C     
26   C        15.4487   11.9203   59.4584  C     
27   C        16.2669   13.0186   59.1277  C     
28   S        17.2209   11.0451   57.9121  S     
29   H        17.9273   15.2868   58.8875  H     
30   H        20.3621   12.0375   54.1279  H     
31   H        22.1050   12.2111   54.1193  H     
32   H        19.6943   16.5572   58.0254  H     
33   H        23.6611   12.3789   55.9330  H     
34   H        25.3901   11.8364   57.5304  H     
35   H        20.4792    6.8151   57.8188  H     
36   H        20.4819    8.7958   56.4804  H     
37   H        24.1127    7.9496   59.5962  H     
38   H        21.6631    6.8596   61.4402  H     
39   H        21.8534    5.0975   61.3333  H     
40   H        20.4978    5.8763   60.5133  H     
41   H        15.3774    9.8117   58.9719  H     
42   H        14.6491   11.9967   60.0892  H     
43   H        16.0651   13.9533   59.4851  H     
@<TRIPOS>BOND
     1    1    2 1
     2    1   10 2
     3    1   24 1
     4    2    9 2
     5    3    5 1
     6    3    6 2
     7    3    8 1
     8    4    5 1
     9    4    7 2
    10    4    9 1
    11    5   10 1
    12    6    7 1
    13    8   11 1
    14   11   12 1
    15   12   13 2
    16   12   19 1
    17   13   14 1
    18   14   21 2
    19   15   19 2
    20   15   20 1
    21   15   21 1
    22   16   17 1
    23   16   20 2
    24   16   22 1
    25   17   18 2
    26   18   19 1
    27   22   23 1
    28   24   27 2
    29   24   28 1
    30   25   26 2
    31   25   28 1
    32   26   27 1
    33    2   29 1
    34    8   30 1
    35    8   31 1
    36    9   32 1
    37   13   33 1
    38   14   34 1
    39   17   35 1
    40   18   36 1
    41   20   37 1
    42   23   38 1
    43   23   39 1
    44   23   40 1
    45   25   41 1
    46   26   42 1
    47   27   43 1
@<TRIPOS>PROPERTY_DATA
  Total_Score	| 10.3584
  Crash		| -0.6297
  Polar		| 2.0782
  FragIndex	| 1
  FragRMSD	| 0.266

