@<TRIPOS>MOLECULE
BindingDB_50302904
 46 50 0 0 0
SMALL
NO_CHARGES


@<TRIPOS>ATOM
1    C        22.3254   10.6908   56.5161  C     
2    C        23.4838   11.5067   56.5427  C     
3    C        24.5787   11.1395   57.3415  C     
4    N        24.5283   10.0023   58.0789  N     
5    C        22.3130    9.5050   57.2923  C     
6    C        23.4480    9.1803   58.0822  C     
7    C        23.4308    8.0131   58.8675  C     
8    C        22.2918    7.1830   58.8726  C     
9    C        21.2026    7.5274   58.0498  C     
10   N        21.2464    8.6632   57.3050  N     
11   O        22.2712    6.0345   59.6177  O     
12   C        21.8672    6.2457   60.9822  C     
13   C        18.4605   13.6509   58.2048  C     
14   C        18.7035   14.9789   58.5320  C     
15   C        19.6542   15.6915   57.8961  C     
16   N        19.1789   13.1046   57.2614  N     
17   N        20.1052   13.7538   56.6373  N     
18   C        20.3767   15.0523   56.9012  C     
19   N        21.3499   15.4789   56.0866  N     
20   N        21.6831   14.4709   55.3238  N     
21   C        20.9297   13.3975   55.6351  C     
22   C        20.9960   12.1034   54.9232  C     
23   N        21.2170   10.9879   55.7860  N     
24   C        17.4666   12.8996   58.8223  C     
25   C        17.7047   11.5732   59.2699  C     
26   C        16.7076   10.8484   59.9524  C     
27   C        15.4409   11.4291   60.1802  C     
28   C        15.1822   12.7401   59.7322  C     
29   C        16.1830   13.4635   59.0672  C     
30   F        14.0143   13.2889   59.9359  F     
31   F        16.9505    9.6372   60.3742  F     
32   H        23.5409   12.3627   55.9871  H     
33   H        25.4150   11.7227   57.3771  H     
34   H        24.2403    7.7714   59.4425  H     
35   H        20.3713    6.9348   58.0126  H     
36   H        22.4930    6.9831   61.4872  H     
37   H        21.9686    5.2998   61.5136  H     
38   H        20.8222    6.5600   61.0370  H     
39   H        18.1977   15.4208   59.2650  H     
40   H        19.8308   16.6423   58.1255  H     
41   H        20.0384   11.9554   54.4199  H     
42   H        21.7714   12.1314   54.1477  H     
43   H        20.4767   10.3603   55.8563  H     
44   H        18.6175   11.1292   59.1329  H     
45   H        14.7146   10.9040   60.6705  H     
46   H        15.9685   14.4137   58.7640  H     
@<TRIPOS>BOND
     1    1    2 2
     2    1    5 1
     3    1   23 1
     4    2    3 1
     5    3    4 2
     6    4    6 1
     7    5    6 2
     8    5   10 1
     9    6    7 1
    10    7    8 2
    11    8    9 1
    12    8   11 1
    13    9   10 2
    14   11   12 1
    15   13   14 1
    16   13   16 2
    17   13   24 1
    18   14   15 2
    19   15   18 1
    20   16   17 1
    21   17   18 1
    22   17   21 1
    23   18   19 2
    24   19   20 1
    25   20   21 2
    26   21   22 1
    27   22   23 1
    28   24   25 2
    29   24   29 1
    30   25   26 1
    31   26   27 2
    32   26   31 1
    33   27   28 1
    34   28   29 2
    35   28   30 1
    36    2   32 1
    37    3   33 1
    38    7   34 1
    39    9   35 1
    40   12   36 1
    41   12   37 1
    42   12   38 1
    43   14   39 1
    44   15   40 1
    45   22   41 1
    46   22   42 1
    47   23   43 1
    48   25   44 1
    49   27   45 1
    50   29   46 1
@<TRIPOS>PROPERTY_DATA
  Total_Score	| 11.5490
  Crash		| -0.7140
  Polar		| 2.0389
  FragIndex	| 1
  FragRMSD	| 0.395

