@<TRIPOS>MOLECULE
BindingDB_50302902
 46 50 0 0 0
SMALL
NO_CHARGES


@<TRIPOS>ATOM
1    C        22.3332   10.7225   56.5237  C     
2    C        23.4835   11.5477   56.5746  C     
3    C        24.5694   11.1956   57.3927  C     
4    N        24.5283   10.0498   58.1166  N     
5    C        22.3240    9.5408   57.3102  C     
6    C        23.4598    9.2147   58.1009  C     
7    C        23.4646    8.0249   58.8563  C     
8    C        22.3292    7.1853   58.8648  C     
9    C        21.2257    7.5505   58.0697  C     
10   N        21.2601    8.6900   57.3314  N     
11   O        22.2842    5.9960   59.5460  O     
12   C        22.4353    6.0874   60.9739  C     
13   C        18.5107   13.7105   58.0774  C     
14   C        18.7661   15.0318   58.4244  C     
15   C        19.7316   15.7364   57.7964  C     
16   N        19.2310   13.1713   57.1400  N     
17   N        20.1607   13.8155   56.5141  N     
18   C        20.4531   15.0971   56.8039  C     
19   N        21.4604   15.5045   56.0221  N     
20   N        21.7868   14.4974   55.2586  N     
21   C        20.9967   13.4383   55.5379  C     
22   C        21.0565   12.1240   54.8637  C     
23   N        21.2466   11.0181   55.7574  N     
24   C        17.5286   12.9472   58.7037  C     
25   C        17.7864   11.6060   59.0885  C     
26   C        16.8028   10.8445   59.7466  C     
27   C        15.5356   11.3984   60.0093  C     
28   C        15.2558   12.7194   59.6130  C     
29   C        16.2475   13.4860   58.9744  C     
30   F        14.6328   10.6795   60.6215  F     
31   F        14.0781   13.2422   59.8281  F     
32   H        23.5423   12.4053   56.0280  H     
33   H        25.3915   11.7975   57.4415  H     
34   H        24.2927    7.7645   59.3987  H     
35   H        20.3940    6.9593   58.0361  H     
36   H        23.4736    6.3021   61.2349  H     
37   H        22.1648    5.1252   61.4087  H     
38   H        21.7833    6.8468   61.4124  H     
39   H        18.2739   15.4628   59.1713  H     
40   H        19.9338   16.6727   58.0509  H     
41   H        20.1064   11.9751   54.3461  H     
42   H        21.8457   12.1245   54.1074  H     
43   H        20.5145   10.3811   55.7923  H     
44   H        18.7022   11.1822   58.9164  H     
45   H        17.0158    9.8872   60.0370  H     
46   H        16.0196   14.4420   58.6855  H     
@<TRIPOS>BOND
     1    1    2 2
     2    1    5 1
     3    1   23 1
     4    2    3 1
     5    3    4 2
     6    4    6 1
     7    5    6 2
     8    5   10 1
     9    6    7 1
    10    7    8 2
    11    8    9 1
    12    8   11 1
    13    9   10 2
    14   11   12 1
    15   13   14 1
    16   13   16 2
    17   13   24 1
    18   14   15 2
    19   15   18 1
    20   16   17 1
    21   17   18 1
    22   17   21 1
    23   18   19 2
    24   19   20 1
    25   20   21 2
    26   21   22 1
    27   22   23 1
    28   24   25 2
    29   24   29 1
    30   25   26 1
    31   26   27 2
    32   27   28 1
    33   27   30 1
    34   28   29 2
    35   28   31 1
    36    2   32 1
    37    3   33 1
    38    7   34 1
    39    9   35 1
    40   12   36 1
    41   12   37 1
    42   12   38 1
    43   14   39 1
    44   15   40 1
    45   22   41 1
    46   22   42 1
    47   23   43 1
    48   25   44 1
    49   26   45 1
    50   29   46 1
@<TRIPOS>PROPERTY_DATA
  Total_Score	| 11.7918
  Crash		| -0.8362
  Polar		| 2.0086
  FragIndex	| 1
  FragRMSD	| 0.362

