@<TRIPOS>MOLECULE
BindingDB_14975
 55 58 0 0 0
SMALL
NO_CHARGES


@<TRIPOS>ATOM
1    C        52.3915    2.8049   69.0037  C     
2    C        53.2984    2.6650   70.0929  C     
3    C        54.4288    3.5215   70.1487  C     
4    C        54.6914    4.4892   69.1480  C     
5    C        53.8083    4.5669   68.0404  C     
6    C        52.6919    3.7228   67.9693  C     
7    N        53.1151    1.6097   70.9558  N     
8    C        53.6534    1.3907   72.1616  C     
9    O        54.2055    2.3366   72.7214  O     
10   C        53.4985    0.1784   72.8639  C     
11   C        53.0397   -2.2387   72.9361  C     
12   C        53.2270   -2.2789   74.3326  C     
13   C        53.5644   -1.0756   75.0043  C     
14   C        53.7144    0.1138   74.2674  C     
15   C        53.1707   -1.0391   72.2156  C     
16   C        53.1069   -3.5952   75.0121  C     
17   N        53.8145   -1.0222   76.3434  N     
18   C        52.9053   -1.1217   77.3486  C     
19   C        52.2938   -1.1709   79.6996  C     
20   C        50.9348   -1.2356   79.3395  C     
21   C        50.5931   -1.2372   77.9817  C     
22   N        51.5765   -1.1866   77.0490  N     
23   C        53.3103   -1.1060   78.7148  C     
24   C        54.6804   -1.0885   79.1201  C     
25   C        56.9000   -1.8815   78.7431  C     
26   C        56.5098   -0.4436   80.5689  C     
27   C        55.1456   -0.3659   80.2427  C     
28   N        57.3495   -1.1929   79.8183  N     
29   N        55.5873   -1.8250   78.4196  N     
30   C        55.8985    5.3624   69.2485  C     
31   F        56.1209    6.1892   68.1688  F     
32   F        55.7509    6.1833   70.3415  F     
33   F        57.0372    4.6042   69.4064  F     
34   O        51.2955    1.9804   68.9304  O     
35   C        50.1153    2.5012   68.2732  C     
36   H        55.1234    3.4030   70.8924  H     
37   H        53.9629    5.2453   67.2845  H     
38   H        52.0975    3.7844   67.1458  H     
39   H        52.4780    0.9387   70.6615  H     
40   H        52.8114   -3.0939   72.4263  H     
41   H        53.9674    0.9619   74.7849  H     
42   H        53.0476   -1.0781   71.1978  H     
43   H        52.0771   -3.9589   74.9430  H     
44   H        53.3785   -3.5547   76.0709  H     
45   H        53.7750   -4.3180   74.5323  H     
46   H        54.7255   -0.8280   76.5982  H     
47   H        52.5267   -1.1913   80.6962  H     
48   H        50.2073   -1.2983   80.0574  H     
49   H        49.6156   -1.2921   77.6857  H     
50   H        57.5513   -2.4395   78.1889  H     
51   H        56.8726    0.0764   81.3666  H     
52   H        54.5202    0.2124   80.8084  H     
53   H        49.7364    3.3994   68.7815  H     
54   H        49.3360    1.7352   68.3126  H     
55   H        50.2993    2.7142   67.2195  H     
@<TRIPOS>BOND
     1    1    2 1
     2    1    6 2
     3    1   34 1
     4    2    3 2
     5    2    7 1
     6    3    4 1
     7    4    5 2
     8    4   30 1
     9    5    6 1
    10    7    8 am
    11    8    9 2
    12    8   10 1
    13   10   14 1
    14   10   15 2
    15   11   12 2
    16   11   15 1
    17   12   13 1
    18   12   16 1
    19   13   14 2
    20   13   17 1
    21   17   18 1
    22   18   22 2
    23   18   23 1
    24   19   20 1
    25   19   23 2
    26   20   21 2
    27   21   22 1
    28   23   24 1
    29   24   27 1
    30   24   29 2
    31   25   28 2
    32   25   29 1
    33   26   27 2
    34   26   28 1
    35   30   31 1
    36   30   32 1
    37   30   33 1
    38   34   35 1
    39    3   36 1
    40    5   37 1
    41    6   38 1
    42    7   39 1
    43   11   40 1
    44   14   41 1
    45   15   42 1
    46   16   43 1
    47   16   44 1
    48   16   45 1
    49   17   46 1
    50   19   47 1
    51   20   48 1
    52   21   49 1
    53   25   50 1
    54   26   51 1
    55   27   52 1
    56   35   53 1
    57   35   54 1
    58   35   55 1
@<TRIPOS>PROPERTY_DATA
  Total_Score	| 10.3256
  Crash		| -1.2341
  Polar		| 2.8705
  FragIndex	| 1
  FragRMSD	| 0.513

