@<TRIPOS>MOLECULE
BindingDB_14974
 69 72 0 0 0
SMALL
NO_CHARGES


@<TRIPOS>ATOM
1    C        52.3513    2.4309   69.1989  C     
2    C        53.3290    2.4161   70.2162  C     
3    C        54.3948    3.3407   70.1359  C     
4    C        54.4985    4.2584   69.0713  C     
5    C        53.5142    4.2099   68.0502  C     
6    C        52.4197    3.3169   68.1091  C     
7    N        53.1982    1.4226   71.1451  N     
8    C        53.7392    1.2664   72.3506  C     
9    O        54.3441    2.2012   72.8628  O     
10   C        53.5386    0.0792   73.0815  C     
11   C        52.9089   -2.2963   73.1897  C     
12   C        53.1316   -2.3312   74.5859  C     
13   C        53.5403   -1.1373   75.2351  C     
14   C        53.7676    0.0346   74.4832  C     
15   C        53.1165   -1.1199   72.4572  C     
16   C        52.9660   -3.6419   75.2694  C     
17   N        53.7780   -1.0592   76.5754  N     
18   C        52.8595   -1.1596   77.5676  C     
19   C        52.2201   -1.1876   79.9080  C     
20   C        50.8650   -1.2589   79.5324  C     
21   C        50.5424   -1.2879   78.1702  C     
22   N        51.5318   -1.2296   77.2494  N     
23   C        53.2472   -1.1452   78.9376  C     
24   C        54.6114   -1.1558   79.3409  C     
25   C        56.8306   -1.9215   78.8963  C     
26   C        56.4583   -0.5749   80.8026  C     
27   C        55.0880   -0.4905   80.4933  C     
28   N        57.2919   -1.2796   79.9982  N     
29   N        55.5134   -1.8530   78.5892  N     
30   C        55.6319    5.2271   69.0427  C     
31   F        55.6393    6.0777   67.9599  F     
32   F        55.5969    6.0190   70.1660  F     
33   F        56.8278    4.5560   69.0189  F     
34   C        51.3798    3.2876   67.0405  C     
35   C        49.9052    3.2659   67.5399  C     
36   C        49.5686    4.3481   68.6054  C     
37   N        48.2980    4.1542   69.3909  N     
38   C        47.2616    3.3216   68.7172  C     
39   C        48.5258    3.7333   70.8038  C     
40   H        51.5775    1.7680   69.2456  H     
41   H        55.1287    3.3308   70.8425  H     
42   H        53.5853    4.8473   67.2480  H     
43   H        52.5872    0.7175   70.8770  H     
44   H        52.6153   -3.1397   72.6906  H     
45   H        54.0702    0.8814   74.9738  H     
46   H        52.9737   -1.1648   71.4467  H     
47   H        51.9267   -3.9570   75.2263  H     
48   H        53.2673   -3.6087   76.3125  H     
49   H        53.5880   -4.3887   74.7743  H     
50   H        54.6827   -0.8381   76.8327  H     
51   H        52.4394   -1.2059   80.9085  H     
52   H        50.1279   -1.2955   80.2388  H     
53   H        49.5661   -1.3444   77.8621  H     
54   H        57.4681   -2.4381   78.2914  H     
55   H        56.8355   -0.0916   81.6215  H     
56   H        54.4687    0.0638   81.0896  H     
57   H        51.5170    4.1802   66.4174  H     
58   H        51.5183    2.4214   66.3867  H     
59   H        49.2505    3.3946   66.6700  H     
60   H        49.6996    2.2756   67.9573  H     
61   H        50.4100    4.4276   69.3076  H     
62   H        49.4882    5.3134   68.0982  H     
63   H        47.8853    5.0854   69.4549  H     
64   H        47.1204    3.6409   67.6836  H     
65   H        46.3031    3.4316   69.2277  H     
66   H        47.5375    2.2690   68.7219  H     
67   H        49.0154    2.7589   70.8570  H     
68   H        47.5776    3.6669   71.3459  H     
69   H        49.1519    4.4701   71.3261  H     
@<TRIPOS>BOND
     1    1    2 1
     2    1    6 2
     3    2    3 2
     4    2    7 1
     5    3    4 1
     6    4    5 2
     7    4   30 1
     8    5    6 1
     9    6   34 1
    10    7    8 am
    11    8    9 2
    12    8   10 1
    13   10   14 1
    14   10   15 2
    15   11   12 2
    16   11   15 1
    17   12   13 1
    18   12   16 1
    19   13   14 2
    20   13   17 1
    21   17   18 1
    22   18   22 2
    23   18   23 1
    24   19   20 1
    25   19   23 2
    26   20   21 2
    27   21   22 1
    28   23   24 1
    29   24   27 1
    30   24   29 2
    31   25   28 2
    32   25   29 1
    33   26   27 2
    34   26   28 1
    35   30   31 1
    36   30   32 1
    37   30   33 1
    38   34   35 1
    39   35   36 1
    40   36   37 1
    41   37   38 1
    42   37   39 1
    43    1   40 1
    44    3   41 1
    45    5   42 1
    46    7   43 1
    47   11   44 1
    48   14   45 1
    49   15   46 1
    50   16   47 1
    51   16   48 1
    52   16   49 1
    53   17   50 1
    54   19   51 1
    55   20   52 1
    56   21   53 1
    57   25   54 1
    58   26   55 1
    59   27   56 1
    60   34   57 1
    61   34   58 1
    62   35   59 1
    63   35   60 1
    64   36   61 1
    65   36   62 1
    66   37   63 1
    67   38   64 1
    68   38   65 1
    69   38   66 1
    70   39   67 1
    71   39   68 1
    72   39   69 1
@<TRIPOS>PROPERTY_DATA
  Total_Score	| 11.9969
  Crash		| -1.1627
  Polar		| 3.1633
  FragIndex	| 1
  FragRMSD	| 0.489

