@<TRIPOS>MOLECULE
BindingDB_35318
 54 58 0 0 0
SMALL
NO_CHARGES


@<TRIPOS>ATOM
1    N        57.1752   -2.0014   79.7769  N     
2    C        56.1912   -1.9748   80.7068  C     
3    C        54.8473   -1.8342   80.3071  C     
4    C        54.5290   -1.6955   78.9251  C     
5    N        55.5965   -1.7240   78.0699  N     
6    C        56.8907   -1.8828   78.4579  C     
7    C        53.1940   -1.5110   78.3927  C     
8    C        52.0884   -1.3106   79.2727  C     
9    C        50.7803   -1.1032   78.8016  C     
10   C        50.5559   -1.0494   77.4236  C     
11   N        51.6027   -1.2342   76.5886  N     
12   C        52.8863   -1.4732   76.9905  C     
13   N        53.7876   -1.6966   75.9918  N     
14   C        53.5509   -1.6010   74.6425  C     
15   C        53.3888   -2.8011   73.9024  C     
16   C        53.5146   -0.3378   73.9769  C     
17   C        53.3409   -0.2723   72.5584  C     
18   C        53.1875   -1.4820   71.8449  C     
19   C        53.2046   -2.7220   72.5060  C     
20   C        53.3674   -4.1266   74.5815  C     
21   C        53.6330    0.8651   74.6835  C     
22   C        53.5677    2.0512   74.0556  C     
23   N        53.4614    2.1147   72.7308  N     
24   C        53.3490    1.0232   71.9240  C     
25   N        53.1599    1.1971   70.5898  N     
26   C        53.1983    2.3664   69.8713  C     
27   C        52.2089    2.5475   68.8859  C     
28   C        52.2192    3.6760   68.0485  C     
29   C        53.2378    4.6367   68.1761  C     
30   C        54.2617    4.4878   69.1449  C     
31   C        54.2167    3.3482   69.9953  C     
32   C        55.3473    5.5085   69.2022  C     
33   F        56.2909    5.2765   70.1756  F     
34   F        56.0164    5.5472   68.0010  F     
35   F        54.8400    6.7649   69.4401  F     
36   H        56.4304   -2.0515   81.6994  H     
37   H        54.1321   -1.8374   81.0394  H     
38   H        57.6414   -1.9069   77.7650  H     
39   H        52.2021   -1.3036   80.2904  H     
40   H        49.9991   -0.9803   79.4512  H     
41   H        49.6183   -0.8932   77.0426  H     
42   H        54.6594   -2.0447   76.2316  H     
43   H        53.0573   -1.4802   70.8321  H     
44   H        53.0685   -3.5742   71.9593  H     
45   H        54.2901   -4.2743   75.1444  H     
46   H        53.2674   -4.9511   73.8760  H     
47   H        52.5263   -4.1668   75.2751  H     
48   H        53.7424    0.8607   75.6672  H     
49   H        53.5800    2.8948   74.5734  H     
50   H        52.8404    0.4170   70.1080  H     
51   H        51.4632    1.8572   68.7748  H     
52   H        51.4865    3.7994   67.3473  H     
53   H        53.2301    5.4460   67.5490  H     
54   H        54.9649    3.1994   70.6753  H     
@<TRIPOS>BOND
     1    1    2 1
     2    1    6 2
     3    2    3 2
     4    3    4 1
     5    4    5 2
     6    4    7 1
     7    5    6 1
     8    7    8 1
     9    7   12 2
    10    8    9 2
    11    9   10 1
    12   10   11 2
    13   11   12 1
    14   12   13 1
    15   13   14 1
    16   14   15 1
    17   14   16 2
    18   15   19 2
    19   15   20 1
    20   16   17 1
    21   16   21 1
    22   17   18 2
    23   17   24 1
    24   18   19 1
    25   21   22 2
    26   22   23 1
    27   23   24 2
    28   24   25 1
    29   25   26 1
    30   26   27 1
    31   26   31 2
    32   27   28 2
    33   28   29 1
    34   29   30 2
    35   30   31 1
    36   30   32 1
    37   32   33 1
    38   32   34 1
    39   32   35 1
    40    2   36 1
    41    3   37 1
    42    6   38 1
    43    8   39 1
    44    9   40 1
    45   10   41 1
    46   13   42 1
    47   18   43 1
    48   19   44 1
    49   20   45 1
    50   20   46 1
    51   20   47 1
    52   21   48 1
    53   22   49 1
    54   25   50 1
    55   27   51 1
    56   28   52 1
    57   29   53 1
    58   31   54 1
@<TRIPOS>PROPERTY_DATA
  Total_Score	| 9.3040
  Crash		| -2.4924
  Polar		| 2.6944
  FragIndex	| 1
  FragRMSD	| 0.275

