@<TRIPOS>MOLECULE
BindingDB_50237710
 61 65 0 0 0
SMALL
NO_CHARGES


@<TRIPOS>ATOM
1    C        53.2494    4.4865   68.3886  C     
2    C        54.3164    4.3834   69.3116  C     
3    C        54.3251    3.2901   70.2117  C     
4    C        53.2985    2.3148   70.2088  C     
5    C        52.2649    2.4370   69.2581  C     
6    C        52.2192    3.5251   68.3626  C     
7    C        55.3798    5.4271   69.3048  C     
8    F        56.3500    5.2686   70.2652  F     
9    F        56.0207    5.4339   68.0882  F     
10   F        54.8231    6.6647   69.5192  F     
11   N        51.1531    3.6813   67.5363  N     
12   C        50.9336    3.0653   66.3624  C     
13   C        49.6881    3.4836   65.9025  C     
14   N        49.1836    4.3456   66.7996  N     
15   C        50.0838    4.4608   67.7885  C     
16   C        49.0204    3.0367   64.6710  C     
17   N        53.2662    1.2144   71.0242  N     
18   C        53.8171    1.0235   72.2232  C     
19   C        53.6950   -0.2065   72.8868  C     
20   O        54.3611    1.9639   72.7941  O     
21   C        53.9584   -0.3357   74.2747  C     
22   C        53.8285   -1.5752   74.9464  C     
23   C        53.4306   -2.7340   74.2375  C     
24   C        53.1779   -2.6161   72.8517  C     
25   C        53.3148   -1.3830   72.1931  C     
26   C        53.2577   -4.0447   74.9193  C     
27   N        54.0790   -1.6271   76.2847  N     
28   C        53.1591   -1.3479   77.2366  C     
29   N        53.4859   -1.5198   78.5458  N     
30   C        52.5829   -1.2976   79.5341  C     
31   C        51.2732   -0.8913   79.2215  C     
32   C        50.9273   -0.7152   77.8574  C     
33   N        51.8950   -0.9527   76.9303  N     
34   C        49.6346   -0.3486   77.3781  C     
35   C        48.4962   -0.2830   78.2238  C     
36   C        47.2202   -0.0089   77.6979  C     
37   C        47.0816    0.2054   76.3173  C     
38   N        48.1736    0.1522   75.5155  N     
39   C        49.4158   -0.1053   75.9987  C     
40   H        53.2098    5.2777   67.7361  H     
41   H        55.1064    3.1853   70.8595  H     
42   H        51.5144    1.7436   69.2298  H     
43   H        51.5528    2.3937   65.8980  H     
44   H        49.9588    5.0478   68.6157  H     
45   H        49.6042    3.3407   63.8012  H     
46   H        48.0221    3.4775   64.5993  H     
47   H        48.9251    1.9493   64.6813  H     
48   H        52.6795    0.4987   70.7251  H     
49   H        54.2370    0.4892   74.8185  H     
50   H        52.8900   -3.4353   72.3115  H     
51   H        53.1450   -1.3660   71.1849  H     
52   H        54.1661   -4.3055   75.4627  H     
53   H        53.0531   -4.8518   74.2130  H     
54   H        52.4274   -3.9926   75.6250  H     
55   H        54.9149   -2.0211   76.5748  H     
56   H        52.8596   -1.4406   80.5055  H     
57   H        50.5977   -0.7248   79.9725  H     
58   H        48.5747   -0.4752   79.2266  H     
59   H        46.3970    0.0186   78.3098  H     
60   H        46.1653    0.3968   75.9060  H     
61   H        50.1850   -0.1392   75.3291  H     
@<TRIPOS>BOND
     1    1    2 2
     2    1    6 1
     3    2    3 1
     4    2    7 1
     5    3    4 2
     6    4    5 1
     7    4   17 1
     8    5    6 2
     9    6   11 1
    10    7    8 1
    11    7    9 1
    12    7   10 1
    13   11   12 1
    14   11   15 1
    15   12   13 2
    16   13   14 1
    17   13   16 1
    18   14   15 2
    19   17   18 am
    20   18   19 1
    21   18   20 2
    22   19   21 2
    23   19   25 1
    24   21   22 1
    25   22   23 2
    26   22   27 1
    27   23   24 1
    28   23   26 1
    29   24   25 2
    30   27   28 1
    31   28   29 2
    32   28   33 1
    33   29   30 1
    34   30   31 2
    35   31   32 1
    36   32   33 2
    37   32   34 1
    38   34   35 2
    39   34   39 1
    40   35   36 1
    41   36   37 2
    42   37   38 1
    43   38   39 2
    44    1   40 1
    45    3   41 1
    46    5   42 1
    47   12   43 1
    48   15   44 1
    49   16   45 1
    50   16   46 1
    51   16   47 1
    52   17   48 1
    53   21   49 1
    54   24   50 1
    55   25   51 1
    56   26   52 1
    57   26   53 1
    58   26   54 1
    59   27   55 1
    60   30   56 1
    61   31   57 1
    62   35   58 1
    63   36   59 1
    64   37   60 1
    65   39   61 1
@<TRIPOS>PROPERTY_DATA
  Total_Score	| 8.8833
  Crash		| -1.3808
  Polar		| 2.3489
  FragIndex	| 1
  FragRMSD	| 0.470

