@<TRIPOS>MOLECULE
BindingDB_35319
 51 55 0 0 0
SMALL
NO_CHARGES


@<TRIPOS>ATOM
1    N        57.3274   -1.6818   79.8034  N     
2    C        56.3832   -1.7003   80.7737  C     
3    C        55.0195   -1.6398   80.4279  C     
4    C        54.6375   -1.5472   79.0604  C     
5    N        55.6732   -1.5235   78.1694  N     
6    C        56.9859   -1.5980   78.4992  C     
7    C        53.2714   -1.4401   78.5837  C     
8    C        52.1942   -1.2365   79.4986  C     
9    C        50.8726   -1.0388   79.0719  C     
10   C        50.6007   -1.0309   77.7004  C     
11   N        51.6122   -1.2491   76.8309  N     
12   C        52.9084   -1.4692   77.1977  C     
13   N        53.7891   -1.7251   76.1893  N     
14   C        53.5413   -1.6516   74.8495  C     
15   C        53.2623   -2.8449   74.1341  C     
16   C        53.6008   -0.4032   74.1652  C     
17   C        53.3717   -0.3436   72.7574  C     
18   C        53.1110   -1.5456   72.0627  C     
19   C        53.0492   -2.7737   72.7414  C     
20   C        53.1812   -4.1584   74.8257  C     
21   C        53.8679    0.7927   74.8451  C     
22   C        53.8382    1.9762   74.2121  C     
23   N        53.6300    2.0368   72.8967  N     
24   C        53.4098    0.9441   72.1149  C     
25   N        53.1237    1.0914   70.7958  N     
26   C        53.1112    2.2361   70.0522  C     
27   C        54.1386    3.2113   70.0817  C     
28   C        54.0852    4.3393   69.2374  C     
29   C        52.9986    4.5141   68.3585  C     
30   C        51.9849    3.5391   68.3018  C     
31   C        52.0488    2.4079   69.1340  C     
32   Cl       52.8953    5.8838   67.3694  Cl    
33   H        56.6657   -1.7633   81.7506  H     
34   H        54.3423   -1.6733   81.1878  H     
35   H        57.7033   -1.5876   77.7738  H     
36   H        52.3454   -1.1994   80.5032  H     
37   H        50.1232   -0.8792   79.7471  H     
38   H        49.6551   -0.8695   77.3534  H     
39   H        54.6890   -1.9877   76.4317  H     
40   H        52.9548   -1.5466   71.0538  H     
41   H        52.8479   -3.6211   72.2034  H     
42   H        54.1215   -4.3649   75.3409  H     
43   H        52.9893   -4.9816   74.1371  H     
44   H        52.3738   -4.1375   75.5604  H     
45   H        54.0777    0.7849   75.8166  H     
46   H        53.9629    2.8155   74.7168  H     
47   H        52.7514    0.3113   70.3623  H     
48   H        54.9408    3.0969   70.7072  H     
49   H        54.8392    5.0284   69.2656  H     
50   H        51.1975    3.6464   67.6555  H     
51   H        51.2985    1.7218   69.0846  H     
@<TRIPOS>BOND
     1    1    2 1
     2    1    6 2
     3    2    3 2
     4    3    4 1
     5    4    5 2
     6    4    7 1
     7    5    6 1
     8    7    8 1
     9    7   12 2
    10    8    9 2
    11    9   10 1
    12   10   11 2
    13   11   12 1
    14   12   13 1
    15   13   14 1
    16   14   15 1
    17   14   16 2
    18   15   19 2
    19   15   20 1
    20   16   17 1
    21   16   21 1
    22   17   18 2
    23   17   24 1
    24   18   19 1
    25   21   22 2
    26   22   23 1
    27   23   24 2
    28   24   25 1
    29   25   26 1
    30   26   27 1
    31   26   31 2
    32   27   28 2
    33   28   29 1
    34   29   30 2
    35   29   32 1
    36   30   31 1
    37    2   33 1
    38    3   34 1
    39    6   35 1
    40    8   36 1
    41    9   37 1
    42   10   38 1
    43   13   39 1
    44   18   40 1
    45   19   41 1
    46   20   42 1
    47   20   43 1
    48   20   44 1
    49   21   45 1
    50   22   46 1
    51   25   47 1
    52   27   48 1
    53   28   49 1
    54   30   50 1
    55   31   51 1
@<TRIPOS>PROPERTY_DATA
  Total_Score	| 7.6178
  Crash		| -3.1769
  Polar		| 2.8586
  FragIndex	| 1
  FragRMSD	| 0.654

