@<TRIPOS>MOLECULE
BindingDB_35320
 56 60 0 0 0
SMALL
NO_CHARGES


@<TRIPOS>ATOM
1    N        57.1406   -1.8672   79.9492  N     
2    C        56.2043   -1.5384   80.8736  C     
3    C        54.8674   -1.3228   80.4694  C     
4    C        54.5303   -1.4086   79.0920  C     
5    N        55.5499   -1.7284   78.2476  N     
6    C        56.8275   -1.9551   78.6370  C     
7    C        53.2015   -1.1805   78.5468  C     
8    C        52.1399   -0.6974   79.3799  C     
9    C        50.8476   -0.4349   78.8785  C     
10   C        50.5946   -0.6292   77.5202  C     
11   N        51.5961   -1.0684   76.7260  N     
12   C        52.8611   -1.3518   77.1694  C     
13   N        53.7377   -1.7643   76.2201  N     
14   C        53.5658   -1.6835   74.8653  C     
15   C        53.3549   -2.8856   74.1394  C     
16   C        53.6557   -0.4354   74.1859  C     
17   C        53.4539   -0.3693   72.7718  C     
18   C        53.2328   -1.5732   72.0710  C     
19   C        53.1967   -2.8033   72.7438  C     
20   C        53.2862   -4.2091   74.8167  C     
21   C        53.9599    0.7605   74.8556  C     
22   C        53.9432    1.9403   74.2241  C     
23   N        53.7368    2.0045   72.9119  N     
24   C        53.5016    0.9163   72.1266  C     
25   N        53.2119    1.0828   70.8076  N     
26   C        53.2398    2.2422   70.0814  C     
27   C        54.2412    3.2300   70.2298  C     
28   C        54.2338    4.3871   69.4269  C     
29   C        53.2288    4.5665   68.4573  C     
30   C        52.2361    3.5849   68.2864  C     
31   C        52.2501    2.4277   69.0892  C     
32   Cl       53.1924    5.9633   67.5056  Cl    
33   N        56.6462   -1.4370   82.1498  N     
34   C        55.8312   -1.3959   83.3177  C     
35   H        54.1602   -1.1561   81.1777  H     
36   H        57.5371   -2.2094   77.9466  H     
37   H        52.2733   -0.5080   80.3724  H     
38   H        50.0965   -0.1081   79.5089  H     
39   H        49.6710   -0.4345   77.1223  H     
40   H        54.5847   -2.1304   76.5058  H     
41   H        53.1116   -1.5709   71.0578  H     
42   H        53.0409   -3.6491   72.1904  H     
43   H        54.2062   -4.3945   75.3736  H     
44   H        53.1565   -5.0335   74.1106  H     
45   H        52.4475   -4.2279   75.5178  H     
46   H        54.1879    0.7550   75.8199  H     
47   H        54.0881    2.7813   74.7322  H     
48   H        52.8267    0.3092   70.3650  H     
49   H        54.9922    3.1076   70.9107  H     
50   H        54.9605    5.0892   69.5509  H     
51   H        51.5010    3.7020   67.5828  H     
52   H        51.5113    1.7330   68.9597  H     
53   H        57.5659   -1.1790   82.2817  H     
54   H        55.2289   -0.4740   83.2817  H     
55   H        56.4730   -1.3479   84.2066  H     
56   H        55.1608   -2.2670   83.4146  H     
@<TRIPOS>BOND
     1    1    2 1
     2    1    6 2
     3    2    3 2
     4    2   33 1
     5    3    4 1
     6    4    5 2
     7    4    7 1
     8    5    6 1
     9    7    8 1
    10    7   12 2
    11    8    9 2
    12    9   10 1
    13   10   11 2
    14   11   12 1
    15   12   13 1
    16   13   14 1
    17   14   15 1
    18   14   16 2
    19   15   19 2
    20   15   20 1
    21   16   17 1
    22   16   21 1
    23   17   18 2
    24   17   24 1
    25   18   19 1
    26   21   22 2
    27   22   23 1
    28   23   24 2
    29   24   25 1
    30   25   26 1
    31   26   27 1
    32   26   31 2
    33   27   28 2
    34   28   29 1
    35   29   30 2
    36   29   32 1
    37   30   31 1
    38   33   34 1
    39    3   35 1
    40    6   36 1
    41    8   37 1
    42    9   38 1
    43   10   39 1
    44   13   40 1
    45   18   41 1
    46   19   42 1
    47   20   43 1
    48   20   44 1
    49   20   45 1
    50   21   46 1
    51   22   47 1
    52   25   48 1
    53   27   49 1
    54   28   50 1
    55   30   51 1
    56   31   52 1
    57   33   53 1
    58   34   54 1
    59   34   55 1
    60   34   56 1
@<TRIPOS>PROPERTY_DATA
  Total_Score	| 9.0093
  Crash		| -3.4439
  Polar		| 3.8400
  FragIndex	| 1
  FragRMSD	| 0.850

