@<TRIPOS>MOLECULE
BindingDB_14972
 48 51 0 0 0
SMALL
NO_CHARGES


@<TRIPOS>ATOM
1    C        52.6199    2.6520   69.0212  C     
2    C        53.5599    2.5333   70.0680  C     
3    C        54.5060    3.5794   70.2405  C     
4    C        54.4841    4.7160   69.4132  C     
5    C        53.5346    4.8202   68.3836  C     
6    C        52.5987    3.7852   68.1887  C     
7    N        53.5082    1.3841   70.8153  N     
8    C        53.9994    1.1239   72.0252  C     
9    O        54.5690    2.0236   72.6368  O     
10   C        53.7898   -0.1149   72.6633  C     
11   C        53.1780   -2.5059   72.6178  C     
12   C        53.3660   -2.6256   74.0123  C     
13   C        53.7194   -1.4625   74.7406  C     
14   C        53.9585   -0.2465   74.0672  C     
15   C        53.3824   -1.2785   71.9610  C     
16   C        53.2249   -3.9689   74.6336  C     
17   N        53.9003   -1.4646   76.0876  N     
18   C        52.9375   -1.3709   77.0418  C     
19   C        52.0927   -1.1926   79.2980  C     
20   C        50.7838   -1.0466   78.7997  C     
21   C        50.5820   -1.0798   77.4178  C     
22   N        51.6503   -1.2329   76.6096  N     
23   C        53.2208   -1.3765   78.4471  C     
24   C        54.5478   -1.5824   79.0052  C     
25   C        56.8960   -1.9485   78.5674  C     
26   C        56.1793   -1.8981   80.8062  C     
27   C        54.8517   -1.6705   80.3916  C     
28   N        57.1630   -2.0308   79.8900  N     
29   N        55.6145   -1.7328   78.1674  N     
30   H        51.9307    1.9100   68.8623  H     
31   H        55.2339    3.5155   70.9525  H     
32   H        55.1699    5.4632   69.5515  H     
33   H        53.5271    5.6380   67.7719  H     
34   H        51.9070    3.8571   67.4399  H     
35   H        52.9488    0.6875   70.4370  H     
36   H        52.9051   -3.3221   72.0651  H     
37   H        54.2406    0.5645   74.6266  H     
38   H        53.2359   -1.2592   70.9502  H     
39   H        52.1970   -4.3143   74.5261  H     
40   H        53.4742   -3.9751   75.6952  H     
41   H        53.8906   -4.6790   74.1379  H     
42   H        54.8154   -1.4107   76.3754  H     
43   H        52.1936   -1.1591   80.3085  H     
44   H        49.9923   -0.9204   79.4319  H     
45   H        49.6450   -0.9828   77.0209  H     
46   H        57.6423   -2.0502   77.8775  H     
47   H        56.4164   -1.9647   81.7979  H     
48   H        54.1409   -1.5820   81.1160  H     
@<TRIPOS>BOND
     1    1    2 1
     2    1    6 2
     3    2    3 2
     4    2    7 1
     5    3    4 1
     6    4    5 2
     7    5    6 1
     8    7    8 am
     9    8    9 2
    10    8   10 1
    11   10   14 1
    12   10   15 2
    13   11   12 2
    14   11   15 1
    15   12   13 1
    16   12   16 1
    17   13   14 2
    18   13   17 1
    19   17   18 1
    20   18   22 2
    21   18   23 1
    22   19   20 1
    23   19   23 2
    24   20   21 2
    25   21   22 1
    26   23   24 1
    27   24   27 1
    28   24   29 2
    29   25   28 2
    30   25   29 1
    31   26   27 2
    32   26   28 1
    33    1   30 1
    34    3   31 1
    35    4   32 1
    36    5   33 1
    37    6   34 1
    38    7   35 1
    39   11   36 1
    40   14   37 1
    41   15   38 1
    42   16   39 1
    43   16   40 1
    44   16   41 1
    45   17   42 1
    46   19   43 1
    47   20   44 1
    48   21   45 1
    49   25   46 1
    50   26   47 1
    51   27   48 1
@<TRIPOS>PROPERTY_DATA
  Total_Score	| 8.3231
  Crash		| -1.5571
  Polar		| 2.6098
  FragIndex	| 1
  FragRMSD	| 0.775

