@<TRIPOS>MOLECULE
BindingDB_14971
 51 54 0 0 0
SMALL
NO_CHARGES


@<TRIPOS>ATOM
1    C        52.3275    2.6307   69.1311  C     
2    C        53.3546    2.4339   70.0827  C     
3    C        54.4183    3.3684   70.1449  C     
4    C        54.4776    4.4810   69.2727  C     
5    C        53.4111    4.6651   68.3661  C     
6    C        52.3460    3.7590   68.2912  C     
7    C        55.6659    5.3831   69.2904  C     
8    F        55.6036    6.4394   68.4042  F     
9    F        55.8370    5.9289   70.5393  F     
10   F        56.7922    4.6639   68.9678  F     
11   N        53.3023    1.2989   70.8330  N     
12   C        53.7591    1.0802   72.0747  C     
13   O        54.2018    2.0688   72.6883  O     
14   C        53.5728   -0.1308   72.7566  C     
15   C        53.1366   -2.5680   72.7685  C     
16   C        53.3602   -2.6540   74.1534  C     
17   C        53.6233   -1.4562   74.8589  C     
18   C        53.7191   -0.2203   74.1693  C     
19   C        53.2437   -1.3339   72.0874  C     
20   C        53.3199   -3.9938   74.8000  C     
21   N        53.8551   -1.4810   76.1937  N     
22   C        52.9436   -1.3248   77.1883  C     
23   C        52.1644   -1.1853   79.4715  C     
24   C        50.8366   -1.1179   79.0186  C     
25   C        50.5918   -1.1341   77.6432  C     
26   N        51.6395   -1.2360   76.7992  N     
27   C        53.2761   -1.3038   78.5834  C     
28   C        54.6284   -1.3744   79.1014  C     
29   C        56.9775   -1.5732   78.5814  C     
30   C        56.3475   -1.4157   80.8411  C     
31   C        54.9908   -1.3326   80.4740  C     
32   N        57.3027   -1.5373   79.8942  N     
33   N        55.6722   -1.4921   78.2343  N     
34   H        51.5680    1.9564   69.0549  H     
35   H        55.1876    3.1994   70.8024  H     
36   H        53.4000    5.4692   67.7252  H     
37   H        51.5883    3.8971   67.6242  H     
38   H        52.7796    0.5691   70.4389  H     
39   H        52.9143   -3.4104   72.2274  H     
40   H        53.9277    0.6201   74.7181  H     
41   H        53.1094   -1.3563   71.0748  H     
42   H        52.3331   -4.4505   74.6720  H     
43   H        53.5330   -3.9707   75.8708  H     
44   H        54.0671   -4.6483   74.3368  H     
45   H        54.7756   -1.6742   76.4461  H     
46   H        52.2860   -1.1564   80.4857  H     
47   H        50.0582   -1.0499   79.6831  H     
48   H        49.6420   -1.0866   77.2816  H     
49   H        57.7004   -1.6649   77.8677  H     
50   H        56.6207   -1.3937   81.8274  H     
51   H        54.3102   -1.2468   81.2253  H     
@<TRIPOS>BOND
     1    1    2 1
     2    1    6 2
     3    2    3 2
     4    2   11 1
     5    3    4 1
     6    4    5 2
     7    4    7 1
     8    5    6 1
     9    7    8 1
    10    7    9 1
    11    7   10 1
    12   11   12 am
    13   12   13 2
    14   12   14 1
    15   14   18 1
    16   14   19 2
    17   15   16 2
    18   15   19 1
    19   16   17 1
    20   16   20 1
    21   17   18 2
    22   17   21 1
    23   21   22 1
    24   22   26 2
    25   22   27 1
    26   23   24 1
    27   23   27 2
    28   24   25 2
    29   25   26 1
    30   27   28 1
    31   28   31 1
    32   28   33 2
    33   29   32 2
    34   29   33 1
    35   30   31 2
    36   30   32 1
    37    1   34 1
    38    3   35 1
    39    5   36 1
    40    6   37 1
    41   11   38 1
    42   15   39 1
    43   18   40 1
    44   19   41 1
    45   20   42 1
    46   20   43 1
    47   20   44 1
    48   21   45 1
    49   23   46 1
    50   24   47 1
    51   25   48 1
    52   29   49 1
    53   30   50 1
    54   31   51 1
@<TRIPOS>PROPERTY_DATA
  Total_Score	| 9.8739
  Crash		| -0.9983
  Polar		| 2.9319
  FragIndex	| 1
  FragRMSD	| 0.607

