@<TRIPOS>MOLECULE
BindingDB_50207861
 51 54 0 0 0
SMALL
NO_CHARGES


@<TRIPOS>ATOM
1    C        53.6327    2.4790   70.6246  C     
2    C        54.6633    3.3776   70.2478  C     
3    C        54.6396    4.0796   69.0136  C     
4    C        53.5273    3.8964   68.1590  C     
5    C        52.4699    3.0518   68.5274  C     
6    C        52.5214    2.3554   69.7493  C     
7    C        55.7749    4.9746   68.6656  C     
8    F        55.6876    5.5579   67.4196  F     
9    F        55.8690    5.9926   69.5923  F     
10   F        56.9531    4.2579   68.6829  F     
11   C        53.7289    1.7108   71.7949  C     
12   O        54.5867    1.9701   72.6491  O     
13   N        53.1288    0.5252   71.8258  N     
14   C        53.1979   -0.4760   72.7505  C     
15   C        56.5137   -0.4253   80.5659  C     
16   C        55.1490   -0.3392   80.2404  C     
17   C        54.6722   -1.0355   79.1025  C     
18   N        55.5775   -1.7562   78.3800  N     
19   C        56.8945   -1.8222   78.6960  C     
20   N        57.3455   -1.1630   79.7897  N     
21   C        53.2966   -1.0499   78.7153  C     
22   C        52.2854   -1.0810   79.7106  C     
23   C        50.9270   -1.1683   79.3699  C     
24   C        50.5698   -1.2445   78.0172  C     
25   N        51.5458   -1.2274   77.0799  N     
26   C        52.8760   -1.1354   77.3568  C     
27   N        53.7644   -1.1035   76.3266  N     
28   C        53.4761   -1.3571   75.0209  C     
29   C        53.5389   -0.2822   74.1059  C     
30   C        52.8022   -1.7567   72.3193  C     
31   C        52.7791   -2.8387   73.2140  C     
32   C        53.1163   -2.6584   74.5725  C     
33   C        53.1045   -3.8312   75.4873  C     
34   H        55.4837    3.4932   70.8537  H     
35   H        53.4765    4.3756   67.2538  H     
36   H        51.6630    2.9365   67.9091  H     
37   H        51.7327    1.7495   69.9828  H     
38   H        52.6584    0.2832   71.0143  H     
39   H        56.8809    0.0617   81.3847  H     
40   H        54.5300    0.2290   80.8223  H     
41   H        57.5366   -2.3673   78.1178  H     
42   H        52.5281   -1.0671   80.7043  H     
43   H        50.2095   -1.1986   80.0966  H     
44   H        49.5884   -1.3175   77.7372  H     
45   H        54.6808   -0.8700   76.5347  H     
46   H        53.7717    0.6559   74.4432  H     
47   H        52.5359   -1.9159   71.3435  H     
48   H        52.5096   -3.7586   72.8588  H     
49   H        54.0857   -3.9518   75.9501  H     
50   H        52.8638   -4.7650   74.9723  H     
51   H        52.3618   -3.6838   76.2687  H     
@<TRIPOS>BOND
     1    1    2 2
     2    1    6 1
     3    1   11 1
     4    2    3 1
     5    3    4 2
     6    3    7 1
     7    4    5 1
     8    5    6 2
     9    7    8 1
    10    7    9 1
    11    7   10 1
    12   11   12 2
    13   11   13 am
    14   13   14 1
    15   14   29 1
    16   14   30 2
    17   15   16 2
    18   15   20 1
    19   16   17 1
    20   17   18 2
    21   17   21 1
    22   18   19 1
    23   19   20 2
    24   21   22 2
    25   21   26 1
    26   22   23 1
    27   23   24 2
    28   24   25 1
    29   25   26 2
    30   26   27 1
    31   27   28 1
    32   28   29 2
    33   28   32 1
    34   30   31 1
    35   31   32 2
    36   32   33 1
    37    2   34 1
    38    4   35 1
    39    5   36 1
    40    6   37 1
    41   13   38 1
    42   15   39 1
    43   16   40 1
    44   19   41 1
    45   22   42 1
    46   23   43 1
    47   24   44 1
    48   27   45 1
    49   29   46 1
    50   30   47 1
    51   31   48 1
    52   33   49 1
    53   33   50 1
    54   33   51 1
@<TRIPOS>PROPERTY_DATA
  Total_Score	| 10.6202
  Crash		| -0.7950
  Polar		| 2.8172
  FragIndex	| 1
  FragRMSD	| 0.436

