@<TRIPOS>MOLECULE
BindingDB_14976
 66 70 0 0 0
SMALL
NO_CHARGES


@<TRIPOS>ATOM
1    C        52.0290    3.1119   69.2276  C     
2    C        53.1547    2.7123   70.0056  C     
3    C        54.3608    3.4616   69.9358  C     
4    C        54.4708    4.6263   69.1510  C     
5    C        53.3849    4.9840   68.3375  C     
6    C        52.1944    4.2286   68.3685  C     
7    N        53.1206    1.5509   70.7526  N     
8    C        53.5971    1.3657   71.9897  C     
9    O        53.9875    2.3573   72.6072  O     
10   C        53.5428    0.1327   72.6560  C     
11   C        53.1136   -2.2910   72.6917  C     
12   C        53.2785   -2.3539   74.0947  C     
13   C        53.6060   -1.1538   74.7791  C     
14   C        53.7619    0.0512   74.0643  C     
15   C        53.2374   -1.0796   71.9902  C     
16   C        53.1088   -3.6701   74.7676  C     
17   N        53.8411   -1.1044   76.1190  N     
18   C        52.9187   -1.1563   77.1137  C     
19   C        52.2648   -1.1619   79.4506  C     
20   C        50.9143   -1.1546   79.0661  C     
21   C        50.5924   -1.1592   77.7018  C     
22   N        51.5879   -1.1615   76.7902  N     
23   C        53.3013   -1.1524   78.4863  C     
24   C        54.6763   -1.1653   78.8930  C     
25   C        56.9214   -1.8872   78.4763  C     
26   C        56.5152   -0.4815   80.3287  C     
27   C        55.1421   -0.4399   80.0218  C     
28   N        57.3657   -1.1996   79.5558  N     
29   N        55.5988   -1.8632   78.1745  N     
30   C        55.7109    5.4589   69.2076  C     
31   F        55.7129    6.5719   68.3928  F     
32   F        55.9077    5.9059   70.4971  F     
33   F        56.7956    4.7072   68.8355  F     
34   C        47.9164    3.0473   69.8097  C     
35   C        48.9546    3.1060   70.9569  C     
36   C        50.2062    2.2353   70.6554  C     
37   C        49.8382    2.4761   68.2352  C     
38   C        48.5871    3.3688   68.4525  C     
39   N        50.7640    2.5724   69.3549  N     
40   H        55.1826    3.1649   70.4709  H     
41   H        53.4252    5.8146   67.7479  H     
42   H        51.4175    4.5930   67.8244  H     
43   H        52.6595    0.7942   70.3459  H     
44   H        52.9106   -3.1402   72.1621  H     
45   H        53.9922    0.8987   74.5916  H     
46   H        53.1097   -1.0967   70.9769  H     
47   H        52.0800   -4.0013   74.6368  H     
48   H        53.3216   -3.6314   75.8339  H     
49   H        53.7782   -4.4086   74.3251  H     
50   H        54.7576   -0.9328   76.3872  H     
51   H        52.4821   -1.1994   80.4468  H     
52   H        50.1725   -1.1635   79.7722  H     
53   H        49.6216   -1.1689   77.3986  H     
54   H        57.5751   -2.4092   77.8906  H     
55   H        56.8793    0.0397   81.1291  H     
56   H        54.5114    0.1280   80.5933  H     
57   H        47.4830    2.0443   69.7603  H     
58   H        47.1016    3.7503   69.9956  H     
59   H        49.2655    4.1376   71.0852  H     
60   H        48.4780    2.7737   71.8842  H     
61   H        50.9129    2.3777   71.4747  H     
62   H        49.9116    1.1855   70.6826  H     
63   H        49.4976    1.4530   68.1277  H     
64   H        50.2939    2.7241   67.2733  H     
65   H        47.8684    3.2079   67.6395  H     
66   H        48.8738    4.4252   68.4320  H     
@<TRIPOS>BOND
     1    1    2 1
     2    1    6 2
     3    1   39 1
     4    2    3 2
     5    2    7 1
     6    3    4 1
     7    4    5 2
     8    4   30 1
     9    5    6 1
    10    7    8 am
    11    8    9 2
    12    8   10 1
    13   10   14 1
    14   10   15 2
    15   11   12 2
    16   11   15 1
    17   12   13 1
    18   12   16 1
    19   13   14 2
    20   13   17 1
    21   17   18 1
    22   18   22 2
    23   18   23 1
    24   19   20 1
    25   19   23 2
    26   20   21 2
    27   21   22 1
    28   23   24 1
    29   24   27 1
    30   24   29 2
    31   25   28 2
    32   25   29 1
    33   26   27 2
    34   26   28 1
    35   30   31 1
    36   30   32 1
    37   30   33 1
    38   34   35 1
    39   34   38 1
    40   35   36 1
    41   36   39 1
    42   37   38 1
    43   37   39 1
    44    3   40 1
    45    5   41 1
    46    6   42 1
    47    7   43 1
    48   11   44 1
    49   14   45 1
    50   15   46 1
    51   16   47 1
    52   16   48 1
    53   16   49 1
    54   17   50 1
    55   19   51 1
    56   20   52 1
    57   21   53 1
    58   25   54 1
    59   26   55 1
    60   27   56 1
    61   34   57 1
    62   34   58 1
    63   35   59 1
    64   35   60 1
    65   36   61 1
    66   36   62 1
    67   37   63 1
    68   37   64 1
    69   38   65 1
    70   38   66 1
@<TRIPOS>PROPERTY_DATA
  Total_Score	| 9.0534
  Crash		| -3.9401
  Polar		| 2.7620
  FragIndex	| 1
  FragRMSD	| 0.833

