@<TRIPOS>MOLECULE
BindingDB_14973
 51 54 0 0 0
SMALL
NO_CHARGES


@<TRIPOS>ATOM
1    C        53.2018    2.9472   70.2590  C     
2    C        52.1199    3.1162   69.3676  C     
3    C        52.2913    3.9836   68.2625  C     
4    C        53.4763    4.7244   68.1106  C     
5    C        54.5239    4.6258   69.0554  C     
6    C        54.3884    3.6861   70.1044  C     
7    N        50.9109    2.6208   69.7768  N     
8    C        49.7725    2.4452   69.1103  C     
9    O        49.7711    2.4647   67.8850  O     
10   C        48.5609    2.2440   69.7883  C     
11   C        47.2987    1.5599   71.7791  C     
12   C        46.0747    1.9198   71.1715  C     
13   C        46.0794    2.4324   69.8429  C     
14   C        47.3268    2.6070   69.1922  C     
15   C        48.5158    1.7148   71.0993  C     
16   C        44.8134    1.7438   71.9407  C     
17   N        44.8820    2.8088   69.2751  N     
18   C        44.4899    2.9334   67.9773  C     
19   C        42.8488    3.6088   66.3054  C     
20   C        43.7718    3.3212   65.2864  C     
21   C        45.0255    2.8023   65.6382  C     
22   N        45.3307    2.6397   66.9473  N     
23   C        43.1782    3.3941   67.6662  C     
24   C        42.1803    3.6254   68.6499  C     
25   C        40.5045    5.0671   69.5358  C     
26   C        40.8302    2.9533   70.5444  C     
27   C        41.8468    2.6533   69.6207  C     
28   N        40.1874    4.1464   70.4798  N     
29   N        41.4850    4.7966   68.6374  N     
30   C        55.6822    5.5572   68.9609  C     
31   F        56.6278    5.3928   69.9414  F     
32   F        56.3149    5.4206   67.7498  F     
33   F        55.2467    6.8524   69.0834  F     
34   H        53.1056    2.3380   71.0764  H     
35   H        51.5259    4.1722   67.6154  H     
36   H        53.5434    5.3907   67.3363  H     
37   H        55.1253    3.5739   70.8042  H     
38   H        50.8521    2.5092   70.7372  H     
39   H        47.3180    1.1777   72.7285  H     
40   H        47.3497    3.0682   68.2834  H     
41   H        49.3713    1.4250   71.5786  H     
42   H        44.9810    1.3238   72.9346  H     
43   H        44.1465    1.0693   71.4021  H     
44   H        44.3201    2.7093   72.0671  H     
45   H        44.1788    2.9991   69.9139  H     
46   H        41.9204    3.9492   66.0401  H     
47   H        43.5250    3.4617   64.3043  H     
48   H        45.7118    2.5629   64.9210  H     
49   H        40.0068    5.9571   69.4993  H     
50   H        40.5670    2.2754   71.2616  H     
51   H        42.3216    1.7464   69.6533  H     
@<TRIPOS>BOND
     1    1    2 1
     2    1    6 2
     3    2    3 2
     4    2    7 1
     5    3    4 1
     6    4    5 2
     7    5    6 1
     8    5   30 1
     9    7    8 am
    10    8    9 2
    11    8   10 1
    12   10   14 1
    13   10   15 2
    14   11   12 2
    15   11   15 1
    16   12   13 1
    17   12   16 1
    18   13   14 2
    19   13   17 1
    20   17   18 1
    21   18   22 2
    22   18   23 1
    23   19   20 1
    24   19   23 2
    25   20   21 2
    26   21   22 1
    27   23   24 1
    28   24   27 1
    29   24   29 2
    30   25   28 2
    31   25   29 1
    32   26   27 2
    33   26   28 1
    34   30   31 1
    35   30   32 1
    36   30   33 1
    37    1   34 1
    38    3   35 1
    39    4   36 1
    40    6   37 1
    41    7   38 1
    42   11   39 1
    43   14   40 1
    44   15   41 1
    45   16   42 1
    46   16   43 1
    47   16   44 1
    48   17   45 1
    49   19   46 1
    50   20   47 1
    51   21   48 1
    52   25   49 1
    53   26   50 1
    54   27   51 1
@<TRIPOS>PROPERTY_DATA
  Total_Score	| 2.9758
  Crash		| -1.4062
  Polar		| 0.8231
  FragIndex	| 1
  FragRMSD	| 0.522

