@<TRIPOS>MOLECULE
BindingDB_35321
 57 61 0 0 0
SMALL
NO_CHARGES


@<TRIPOS>ATOM
1    N        57.1266   -1.7284   79.8617  N     
2    C        56.1753   -1.4454   80.7820  C     
3    C        54.8247   -1.3467   80.3645  C     
4    C        54.4833   -1.5457   78.9909  C     
5    N        55.5278   -1.8210   78.1589  N     
6    C        56.8213   -1.9189   78.5580  C     
7    C        53.1497   -1.4364   78.4267  C     
8    C        52.0107   -1.3748   79.2807  C     
9    C        50.7052   -1.1975   78.7864  C     
10   C        50.5155   -1.0673   77.4061  C     
11   N        51.5831   -1.1755   76.5912  N     
12   C        52.8671   -1.3750   77.0168  C     
13   N        53.7894   -1.5377   76.0296  N     
14   C        53.5704   -1.5247   74.6719  C     
15   C        53.5475   -2.7637   73.9821  C     
16   C        53.4535   -0.3009   73.9424  C     
17   C        53.2626   -0.3133   72.5221  C     
18   C        53.2619   -1.5590   71.8573  C     
19   C        53.3964   -2.7603   72.5787  C     
20   C        53.6154   -4.0714   74.7057  C     
21   C        53.5013    0.9422   74.5906  C     
22   C        53.3582    2.0928   73.9094  C     
23   N        53.1868    2.0848   72.5871  N     
24   C        53.1109    0.9480   71.8443  C     
25   N        52.7669    1.0340   70.5318  N     
26   C        52.5521    2.1597   69.7964  C     
27   C        53.6287    2.9448   69.3397  C     
28   C        53.4108    4.0204   68.4465  C     
29   C        52.1057    4.3302   68.0088  C     
30   C        51.0154    3.5616   68.4851  C     
31   C        51.2462    2.4806   69.3518  C     
32   C        51.9141    5.3139   67.1702  C     
33   N        56.6357   -1.2616   82.0444  N     
34   C        55.8714   -1.2254   83.2362  C     
35   N        51.7741    6.1893   66.4327  N     
36   H        54.1232   -1.1129   81.0621  H     
37   H        57.5509   -2.1266   77.8782  H     
38   H        52.0980   -1.4689   80.2951  H     
39   H        49.8946   -1.1678   79.4202  H     
40   H        49.5847   -0.9244   77.0154  H     
41   H        54.6681   -1.8317   76.2941  H     
42   H        53.1656   -1.6179   70.8440  H     
43   H        53.3839   -3.6485   72.0641  H     
44   H        54.4771   -4.1011   75.3781  H     
45   H        53.7003   -4.9210   74.0226  H     
46   H        52.7078   -4.2099   75.3014  H     
47   H        53.6210    0.9919   75.5680  H     
48   H        53.3310    2.9591   74.3904  H     
49   H        52.5262    0.2033   70.1030  H     
50   H        54.5867    2.7158   69.6058  H     
51   H        54.2187    4.5654   68.1164  H     
52   H        50.0558    3.7710   68.1957  H     
53   H        50.4606    1.9194   69.6627  H     
54   H        57.5875   -1.1114   82.1545  H     
55   H        55.1533   -0.4015   83.2055  H     
56   H        56.5628   -1.0620   84.0579  H     
57   H        55.3540   -2.1772   83.3880  H     
@<TRIPOS>BOND
     1    1    2 1
     2    1    6 2
     3    2    3 2
     4    2   33 1
     5    3    4 1
     6    4    5 2
     7    4    7 1
     8    5    6 1
     9    7    8 1
    10    7   12 2
    11    8    9 2
    12    9   10 1
    13   10   11 2
    14   11   12 1
    15   12   13 1
    16   13   14 1
    17   14   15 1
    18   14   16 2
    19   15   19 2
    20   15   20 1
    21   16   17 1
    22   16   21 1
    23   17   18 2
    24   17   24 1
    25   18   19 1
    26   21   22 2
    27   22   23 1
    28   23   24 2
    29   24   25 1
    30   25   26 1
    31   26   27 1
    32   26   31 2
    33   27   28 2
    34   28   29 1
    35   29   30 2
    36   29   32 1
    37   30   31 1
    38   32   35 3
    39   33   34 1
    40    3   36 1
    41    6   37 1
    42    8   38 1
    43    9   39 1
    44   10   40 1
    45   13   41 1
    46   18   42 1
    47   19   43 1
    48   20   44 1
    49   20   45 1
    50   20   46 1
    51   21   47 1
    52   22   48 1
    53   25   49 1
    54   27   50 1
    55   28   51 1
    56   30   52 1
    57   31   53 1
    58   33   54 1
    59   34   55 1
    60   34   56 1
    61   34   57 1
@<TRIPOS>PROPERTY_DATA
  Total_Score	| 8.4908
  Crash		| -3.0989
  Polar		| 3.0373
  FragIndex	| 1
  FragRMSD	| 1.020

