@<TRIPOS>MOLECULE
BindingDB_15020
 79 84 0 0 0
SMALL
NO_CHARGES


@<TRIPOS>ATOM
1    C        54.3786    3.3766   69.8536  C     
2    C        53.3145    2.4454   69.9389  C     
3    C        52.1731    2.6674   69.1285  C     
4    C        52.0599    3.8231   68.3347  C     
5    C        53.1058    4.7797   68.3016  C     
6    C        54.2712    4.5247   69.0539  C     
7    N        53.3105    1.3410   70.7513  N     
8    C        53.7995    1.1868   71.9856  C     
9    O        54.3251    2.1409   72.5483  O     
10   C        53.5920   -0.0033   72.7107  C     
11   C        52.7186   -2.3081   72.8701  C     
12   C        52.9842   -2.3326   74.2454  C     
13   C        53.5746   -1.2163   74.8718  C     
14   C        53.8925   -0.0789   74.0998  C     
15   C        53.0279   -1.1618   72.1127  C     
16   N        53.8285   -1.2076   76.2050  N     
17   C        52.9039   -1.2737   77.2027  C     
18   C        52.1957   -1.2491   79.5258  C     
19   C        50.8528   -1.1991   79.1217  C     
20   C        50.5631   -1.1895   77.7521  C     
21   N        51.5854   -1.2298   76.8645  N     
22   C        53.2637   -1.2876   78.5844  C     
23   C        54.6141   -1.3168   79.0635  C     
24   C        56.9153   -1.8474   78.8139  C     
25   C        56.1920   -0.7162   80.7533  C     
26   N        54.9288   -0.7726   80.2698  N     
27   N        57.1839   -1.2728   80.0134  N     
28   N        55.6408   -1.8664   78.3552  N     
29   N        56.5117   -0.1575   81.9446  N     
30   C        55.6902    0.4111   82.8854  C     
31   C        54.7341    1.4203   82.6102  C     
32   C        53.9011    1.9217   83.6282  C     
33   C        54.0543    1.4632   84.9543  C     
34   C        55.0074    0.4611   85.2449  C     
35   C        55.8303   -0.0375   84.2172  C     
36   O        52.9819    2.8907   83.3183  O     
37   O        53.2423    1.9473   85.9423  O     
38   O        55.1818   -0.0121   86.5190  O     
39   C        54.2048   -1.0019   86.9060  C     
40   C        53.5127    3.3136   86.2916  C     
41   C        51.7060    2.3516   82.9337  C     
42   O        53.0211    6.0161   67.7020  O     
43   C        51.9874    6.3060   66.8487  C     
44   C        50.6008    5.7919   64.8980  C     
45   C        51.5939    5.4214   65.8254  C     
46   C        51.3794    7.5745   66.9326  C     
47   C        50.3822    7.9508   66.0085  C     
48   C        50.0000    7.0605   64.9881  C     
49   H        55.2406    3.2295   70.3797  H     
50   H        51.3932    2.0046   69.1571  H     
51   H        51.1976    3.9856   67.8098  H     
52   H        55.0391    5.2012   69.0448  H     
53   H        52.7729    0.6030   70.4208  H     
54   H        52.2870   -3.1149   72.4126  H     
55   H        52.7539   -3.1722   74.7831  H     
56   H        54.2977    0.7283   74.5818  H     
57   H        52.8266   -1.1870   71.1071  H     
58   H        54.7397   -1.0127   76.4757  H     
59   H        52.3791   -1.2781   80.5292  H     
60   H        50.0987   -1.1738   79.8094  H     
61   H        49.5971   -1.1441   77.4240  H     
62   H        57.6775   -2.2586   78.2577  H     
63   H        57.4504   -0.1942   82.1658  H     
64   H        54.6421    1.8073   81.6695  H     
65   H        56.5283   -0.7567   84.4421  H     
66   H        53.2062   -0.5615   86.9730  H     
67   H        54.4858   -1.3764   87.8923  H     
68   H        54.1814   -1.8466   86.2126  H     
69   H        54.5441    3.4343   86.6427  H     
70   H        52.8321    3.5767   87.1041  H     
71   H        53.3278    3.9918   85.4491  H     
72   H        51.7711    1.7683   82.0097  H     
73   H        51.0264    3.1854   82.7614  H     
74   H        51.2860    1.7292   83.7282  H     
75   H        50.3322    5.1478   64.1515  H     
76   H        52.0476    4.5117   65.7471  H     
77   H        51.6677    8.2371   67.6549  H     
78   H        49.9497    8.8751   66.0667  H     
79   H        49.2906    7.3363   64.3020  H     
@<TRIPOS>BOND
     1    1    2 1
     2    1    6 2
     3    2    3 2
     4    2    7 1
     5    3    4 1
     6    4    5 2
     7    5    6 1
     8    5   42 1
     9    7    8 am
    10    8    9 2
    11    8   10 1
    12   10   14 1
    13   10   15 2
    14   11   12 2
    15   11   15 1
    16   12   13 1
    17   13   14 2
    18   13   16 1
    19   16   17 1
    20   17   21 2
    21   17   22 1
    22   18   19 1
    23   18   22 2
    24   19   20 2
    25   20   21 1
    26   22   23 1
    27   23   26 1
    28   23   28 2
    29   24   27 2
    30   24   28 1
    31   25   26 2
    32   25   27 1
    33   25   29 1
    34   29   30 1
    35   30   31 1
    36   30   35 2
    37   31   32 2
    38   32   33 1
    39   32   36 1
    40   33   34 2
    41   33   37 1
    42   34   35 1
    43   34   38 1
    44   36   41 1
    45   37   40 1
    46   38   39 1
    47   42   43 1
    48   43   45 1
    49   43   46 2
    50   44   45 2
    51   44   48 1
    52   46   47 1
    53   47   48 2
    54    1   49 1
    55    3   50 1
    56    4   51 1
    57    6   52 1
    58    7   53 1
    59   11   54 1
    60   12   55 1
    61   14   56 1
    62   15   57 1
    63   16   58 1
    64   18   59 1
    65   19   60 1
    66   20   61 1
    67   24   62 1
    68   29   63 1
    69   31   64 1
    70   35   65 1
    71   39   66 1
    72   39   67 1
    73   39   68 1
    74   40   69 1
    75   40   70 1
    76   40   71 1
    77   41   72 1
    78   41   73 1
    79   41   74 1
    80   44   75 1
    81   45   76 1
    82   46   77 1
    83   47   78 1
    84   48   79 1
@<TRIPOS>PROPERTY_DATA
  Total_Score	| 10.0372
  Crash		| -2.6439
  Polar		| 5.2924
  FragIndex	| 1
  FragRMSD	| 0.280

