@<TRIPOS>MOLECULE
BindingDB_50383191
 64 68 0 0 0
SMALL
NO_CHARGES


@<TRIPOS>ATOM
1    N        25.0014    0.5592  -12.2673  N     
2    N        25.2102    1.8252  -12.1583  N     
3    C        24.6385    2.4343  -13.1706  C     
4    C        24.1180    1.5063  -13.9969  C     
5    C        24.4045    0.3220  -13.4143  C     
6    C        23.4342    1.7547  -15.1610  C     
7    O        22.7509    0.8671  -15.6571  O     
8    N        23.4194    2.9757  -15.6990  N     
9    C        25.9600    2.4745  -11.2055  C     
10   C        27.2693    2.9150  -11.5069  C     
11   C        28.0556    3.5522  -10.5282  C     
12   C        27.5336    3.7689   -9.2382  C     
13   C        26.2217    3.3586   -8.9366  C     
14   C        25.4388    2.7156   -9.9143  C     
15   O        24.6382    3.6510  -13.3270  O     
16   C        24.1806   -1.0168  -13.9701  C     
17   C        25.2759   -0.3615  -11.2289  C     
18   C        22.8018    3.4409  -16.8296  C     
19   C        22.5336    2.6754  -17.9869  C     
20   C        22.0258    3.2883  -19.1507  C     
21   C        21.7724    4.6795  -19.1728  C     
22   C        21.9950    5.4380  -18.0094  C     
23   C        22.5089    4.8241  -16.8513  C     
24   F        21.8664    2.5681  -20.2311  F     
25   O        21.3813    5.3275  -20.3241  O     
26   N        23.7841    5.5166  -23.6484  N     
27   C        24.3256    5.2688  -22.4675  C     
28   C        23.5547    5.2294  -21.3498  C     
29   C        22.2036    5.3892  -21.4085  C     
30   C        21.6093    5.6908  -22.6569  C     
31   C        20.2283    5.9395  -22.8380  C     
32   C        19.7005    6.2195  -24.1162  C     
33   C        20.5535    6.2558  -25.2460  C     
34   C        21.9310    6.0051  -25.0783  C     
35   C        22.4534    5.7403  -23.8020  C     
36   O        20.0055    6.4708  -26.4860  O     
37   C        20.6654    7.4818  -27.2706  C     
38   O        18.3494    6.3673  -24.2666  O     
39   C        17.8230    7.5851  -23.7088  C     
40   H        23.8812    3.6618  -15.1950  H     
41   H        27.6622    2.7599  -12.4403  H     
42   H        29.0133    3.8420  -10.7472  H     
43   H        28.1126    4.2071   -8.5174  H     
44   H        25.8449    3.5100   -7.9959  H     
45   H        24.4883    2.4161   -9.6804  H     
46   H        25.0725   -1.6341  -13.8339  H     
47   H        23.9640   -1.0267  -15.0392  H     
48   H        23.3460   -1.4884  -13.4482  H     
49   H        26.3425   -0.3614  -11.0044  H     
50   H        24.9834   -1.3847  -11.4605  H     
51   H        24.7338   -0.0661  -10.3310  H     
52   H        22.7681    1.6791  -18.0215  H     
53   H        21.8330    6.4439  -18.0146  H     
54   H        22.7024    5.3969  -16.0298  H     
55   H        25.3047    5.1107  -22.4122  H     
56   H        24.0084    5.0669  -20.4785  H     
57   H        19.5887    5.9121  -22.0424  H     
58   H        22.5559    6.0154  -25.8895  H     
59   H        20.7888    8.4174  -26.7186  H     
60   H        20.0575    7.6842  -28.1510  H     
61   H        21.6417    7.1294  -27.6059  H     
62   H        18.0410    7.6660  -22.6414  H     
63   H        16.7400    7.5796  -23.8335  H     
64   H        18.2169    8.4607  -24.2271  H     
@<TRIPOS>BOND
     1    1    2 1
     2    1    5 1
     3    1   17 1
     4    2    3 1
     5    2    9 1
     6    3    4 1
     7    3   15 2
     8    4    5 2
     9    4    6 1
    10    5   16 1
    11    6    7 2
    12    6    8 am
    13    8   18 1
    14    9   10 1
    15    9   14 2
    16   10   11 2
    17   11   12 1
    18   12   13 2
    19   13   14 1
    20   18   19 1
    21   18   23 2
    22   19   20 2
    23   20   21 1
    24   20   24 1
    25   21   22 2
    26   21   25 1
    27   22   23 1
    28   25   29 1
    29   26   27 2
    30   26   35 1
    31   27   28 1
    32   28   29 2
    33   29   30 1
    34   30   31 2
    35   30   35 1
    36   31   32 1
    37   32   33 2
    38   32   38 1
    39   33   34 1
    40   33   36 1
    41   34   35 2
    42   36   37 1
    43   38   39 1
    44    8   40 1
    45   10   41 1
    46   11   42 1
    47   12   43 1
    48   13   44 1
    49   14   45 1
    50   16   46 1
    51   16   47 1
    52   16   48 1
    53   17   49 1
    54   17   50 1
    55   17   51 1
    56   19   52 1
    57   22   53 1
    58   23   54 1
    59   27   55 1
    60   28   56 1
    61   31   57 1
    62   34   58 1
    63   37   59 1
    64   37   60 1
    65   37   61 1
    66   39   62 1
    67   39   63 1
    68   39   64 1
@<TRIPOS>PROPERTY_DATA
  Total_Score	| 13.3777
  Crash		| -1.4093
  Polar		| 2.2717
  FragIndex	| 1
  FragRMSD	| 0.120

