@<TRIPOS>MOLECULE
BindingDB_50383193
 66 70 0 0 0
SMALL
NO_CHARGES


@<TRIPOS>ATOM
1    N        25.0559    0.6408  -12.3239  N     
2    N        25.2183    1.9167  -12.2019  N     
3    C        24.6290    2.5125  -13.2147  C     
4    C        24.1092    1.5743  -14.0337  C     
5    C        24.4036    0.3948  -13.4448  C     
6    C        23.4214    1.8235  -15.1953  C     
7    O        22.7130    0.9564  -15.6803  O     
8    N        23.3983    3.0414  -15.7485  N     
9    C        25.9318    2.5890  -11.2336  C     
10   C        25.3210    2.9576  -10.0117  C     
11   C        26.0614    3.6320   -9.0190  C     
12   C        27.4076    3.9636   -9.2476  C     
13   C        28.0225    3.6102  -10.4609  C     
14   C        27.2885    2.9273  -11.4535  C     
15   O        24.5732    3.7302  -13.3717  O     
16   C        24.0948   -0.9512  -13.9510  C     
17   C        22.7494    3.4627  -16.8758  C     
18   C        22.5187    2.6454  -18.0035  C     
19   C        21.9993    3.1865  -19.1916  C     
20   C        21.6951    4.5678  -19.2767  C     
21   C        21.8730    5.3781  -18.1413  C     
22   C        22.4026    4.8343  -16.9547  C     
23   O        21.3254    5.1387  -20.4772  O     
24   N        23.8855    5.6224  -23.6687  N     
25   C        24.3581    5.1737  -22.5164  C     
26   C        23.5362    5.0039  -21.4562  C     
27   C        22.1990    5.2762  -21.5184  C     
28   C        21.6743    5.7477  -22.7473  C     
29   C        20.3111    6.0674  -22.9642  C     
30   C        19.8753    6.5904  -24.2020  C     
31   C        20.7861    6.7912  -25.2586  C     
32   C        22.1438    6.4560  -25.0677  C     
33   C        22.5747    5.9334  -23.8369  C     
34   O        20.3528    7.4178  -26.4004  O     
35   C        20.6314    6.7499  -27.6471  C     
36   F        21.8732    2.4166  -20.2391  F     
37   C        25.4909   -0.3236  -11.3709  C     
38   C        24.7945   -0.2273   -9.9901  C     
39   N        23.3531    0.0310  -10.0784  N     
40   H        23.9002    3.7243  -15.2847  H     
41   H        24.3432    2.7137   -9.8319  H     
42   H        25.6151    3.8739   -8.1333  H     
43   H        27.9415    4.4561   -8.5289  H     
44   H        29.0041    3.8407  -10.6249  H     
45   H        27.7438    2.6814  -12.3371  H     
46   H        25.0121   -1.5386  -14.0277  H     
47   H        23.6500   -0.9847  -14.9326  H     
48   H        23.4060   -1.4504  -13.2699  H     
49   H        22.7929    1.6629  -17.9862  H     
50   H        21.6618    6.3780  -18.1860  H     
51   H        22.5646    5.4463  -16.1535  H     
52   H        25.3286    4.9811  -22.4431  H     
53   H        23.9494    4.6746  -20.6122  H     
54   H        19.6223    5.9443  -22.2173  H     
55   H        18.8951    6.8483  -24.3201  H     
56   H        22.8172    6.6240  -25.8184  H     
57   H        21.6875    6.8400  -27.9188  H     
58   H        20.0422    7.2300  -28.4217  H     
59   H        20.3544    5.6932  -27.6100  H     
60   H        25.3553   -1.3482  -11.7201  H     
61   H        26.5690   -0.2058  -11.2232  H     
62   H        24.9390   -1.1661   -9.4447  H     
63   H        25.2498    0.5658   -9.4002  H     
64   H        23.1912    0.9490  -10.4931  H     
65   H        22.9402    0.0001   -9.1465  H     
66   H        22.9122   -0.6821  -10.6552  H     
@<TRIPOS>BOND
     1    1    2 1
     2    1    5 1
     3    1   37 1
     4    2    3 1
     5    2    9 1
     6    3    4 1
     7    3   15 2
     8    4    5 2
     9    4    6 1
    10    5   16 1
    11    6    7 2
    12    6    8 am
    13    8   17 1
    14    9   10 1
    15    9   14 2
    16   10   11 2
    17   11   12 1
    18   12   13 2
    19   13   14 1
    20   17   18 1
    21   17   22 2
    22   18   19 2
    23   19   20 1
    24   19   36 1
    25   20   21 2
    26   20   23 1
    27   21   22 1
    28   23   27 1
    29   24   25 2
    30   24   33 1
    31   25   26 1
    32   26   27 2
    33   27   28 1
    34   28   29 2
    35   28   33 1
    36   29   30 1
    37   30   31 2
    38   31   32 1
    39   31   34 1
    40   32   33 2
    41   34   35 1
    42   37   38 1
    43   38   39 1
    44    8   40 1
    45   10   41 1
    46   11   42 1
    47   12   43 1
    48   13   44 1
    49   14   45 1
    50   16   46 1
    51   16   47 1
    52   16   48 1
    53   18   49 1
    54   21   50 1
    55   22   51 1
    56   25   52 1
    57   26   53 1
    58   29   54 1
    59   30   55 1
    60   32   56 1
    61   35   57 1
    62   35   58 1
    63   35   59 1
    64   37   60 1
    65   37   61 1
    66   38   62 1
    67   38   63 1
    68   39   64 1
    69   39   65 1
    70   39   66 1
@<TRIPOS>PROPERTY_DATA
  Total_Score	| 13.2426
  Crash		| -2.2366
  Polar		| 4.1769
  FragIndex	| 1
  FragRMSD	| 0.157

