@<TRIPOS>MOLECULE
BindingDB_24464
 65 69 0 0 0
SMALL
NO_CHARGES


@<TRIPOS>ATOM
1    C        28.3281    3.3668  -10.6742  C     
2    C        27.5063    2.5798  -11.5041  C     
3    C        25.5411    3.3625  -10.3136  C     
4    C        26.3572    4.1494   -9.4776  C     
5    C        27.7528    4.1447   -9.6538  C     
6    C        26.1039    2.5603  -11.3331  C     
7    C        24.6108    2.4548  -13.1666  C     
8    C        24.5254    0.3398  -13.4731  C     
9    N        25.3018    1.8614  -12.2127  N     
10   N        25.1701    0.5825  -12.3466  N     
11   O        24.4852    3.6695  -13.2944  O     
12   C        24.3233   -0.9852  -14.0623  C     
13   C        24.1250    1.5164  -13.9957  C     
14   C        23.4074    1.7664  -15.1374  C     
15   O        22.6172    0.9192  -15.5321  O     
16   N        23.5153    2.9405  -15.7513  N     
17   C        22.8527    3.4295  -16.8372  C     
18   C        21.9985    5.4408  -17.9631  C     
19   C        21.7246    4.6840  -19.1214  C     
20   C        21.9512    3.2913  -19.1185  C     
21   C        22.5225    2.6718  -17.9873  C     
22   C        22.5673    4.8171  -16.8375  C     
23   F        21.7769    6.7275  -17.9464  F     
24   O        21.3040    5.3280  -20.2542  O     
25   C        22.1392    5.3622  -21.3566  C     
26   C        23.5495    5.1566  -21.3143  C     
27   C        24.3027    5.1829  -22.4980  C     
28   N        23.7061    5.4522  -23.6779  N     
29   C        21.5438    5.6598  -22.6106  C     
30   C        22.3729    5.6955  -23.7725  C     
31   C        20.1767    5.9368  -22.7875  C     
32   C        19.6885    6.2533  -24.0062  C     
33   C        20.4958    6.3141  -25.1144  C     
34   C        21.8124    5.9995  -25.0165  C     
35   O        19.9016    6.5480  -26.3004  O     
36   C        20.4809    7.6346  -27.0709  C     
37   C        25.5062   -0.3650  -11.3405  C     
38   C        24.6506   -0.3867  -10.1629  C     
39   C        23.4909    0.4659   -9.9743  C     
40   O        24.8783   -1.2378   -9.3150  O     
41   H        29.3404    3.3856  -10.8178  H     
42   H        27.9413    2.0367  -12.2540  H     
43   H        24.5248    3.3892  -10.1802  H     
44   H        25.9326    4.7312   -8.7475  H     
45   H        28.3518    4.7174   -9.0457  H     
46   H        25.2582   -1.5476  -14.0572  H     
47   H        23.9876   -0.9472  -15.0933  H     
48   H        23.5864   -1.5323  -13.4703  H     
49   H        24.1036    3.5866  -15.3262  H     
50   H        21.7503    2.7387  -19.9543  H     
51   H        22.7547    1.6739  -18.0297  H     
52   H        22.8001    5.3861  -16.0213  H     
53   H        24.0322    4.9692  -20.4292  H     
54   H        25.3070    5.0163  -22.4807  H     
55   H        19.5563    5.8989  -22.0060  H     
56   H        18.7120    6.4365  -24.0940  H     
57   H        22.3618    5.9958  -25.8432  H     
58   H        20.4524    8.5838  -26.5185  H     
59   H        19.8996    7.7522  -27.9823  H     
60   H        21.5215    7.4146  -27.3427  H     
61   H        25.5155   -1.3815  -11.7321  H     
62   H        26.5243   -0.1735  -11.0047  H     
63   H        23.7864    1.5163   -9.9523  H     
64   H        22.9811    0.2396   -9.0401  H     
65   H        22.7844    0.3188  -10.7943  H     
@<TRIPOS>BOND
     1    1    2 2
     2    1    5 1
     3    2    6 1
     4    3    4 1
     5    3    6 2
     6    4    5 2
     7    6    9 1
     8    7    9 1
     9    7   11 2
    10    7   13 1
    11    8   10 1
    12    8   12 1
    13    8   13 2
    14    9   10 1
    15   10   37 1
    16   13   14 1
    17   14   15 2
    18   14   16 am
    19   16   17 1
    20   17   21 2
    21   17   22 1
    22   18   19 1
    23   18   22 2
    24   18   23 1
    25   19   20 2
    26   19   24 1
    27   20   21 1
    28   24   25 1
    29   25   26 1
    30   25   29 2
    31   26   27 2
    32   27   28 1
    33   28   30 2
    34   29   30 1
    35   29   31 1
    36   30   34 1
    37   31   32 2
    38   32   33 1
    39   33   34 2
    40   33   35 1
    41   35   36 1
    42   37   38 1
    43   38   39 1
    44   38   40 2
    45    1   41 1
    46    2   42 1
    47    3   43 1
    48    4   44 1
    49    5   45 1
    50   12   46 1
    51   12   47 1
    52   12   48 1
    53   16   49 1
    54   20   50 1
    55   21   51 1
    56   22   52 1
    57   26   53 1
    58   27   54 1
    59   31   55 1
    60   32   56 1
    61   34   57 1
    62   36   58 1
    63   36   59 1
    64   36   60 1
    65   37   61 1
    66   37   62 1
    67   39   63 1
    68   39   64 1
    69   39   65 1
@<TRIPOS>PROPERTY_DATA
  Total_Score	| 11.2945
  Crash		| -2.3435
  Polar		| 2.2419
  FragIndex	| 1
  FragRMSD	| 0.301

