@<TRIPOS>MOLECULE
BindingDB_50383186
 64 68 0 0 0
SMALL
NO_CHARGES


@<TRIPOS>ATOM
1    N        24.9560    0.5138  -12.3723  N     
2    N        25.1094    1.7889  -12.2578  N     
3    C        24.5488    2.3733  -13.2933  C     
4    C        24.0530    1.4290  -14.1122  C     
5    C        24.3753    0.2569  -13.5250  C     
6    C        23.3401    1.6581  -15.2634  C     
7    O        22.5574    0.8101  -15.6682  O     
8    N        23.3939    2.8289  -15.9064  N     
9    C        25.7739    2.4727  -11.2672  C     
10   C        27.0378    3.0517  -11.5255  C     
11   C        27.7327    3.7293  -10.5073  C     
12   C        27.1697    3.8431   -9.2236  C     
13   C        25.9026    3.2908   -8.9657  C     
14   C        25.2095    2.6067   -9.9807  C     
15   O        24.4921    3.5914  -13.4587  O     
16   C        24.1626   -1.0878  -14.0649  C     
17   C        25.3079   -0.4146  -11.3634  C     
18   C        22.7265    3.2461  -17.0258  C     
19   C        22.4300    4.6248  -17.1737  C     
20   C        21.8760    5.1219  -18.3741  C     
21   C        21.6072    4.2563  -19.4443  C     
22   C        21.8438    2.8738  -19.2902  C     
23   C        22.4011    2.3844  -18.0999  C     
24   O        21.2266    4.7539  -20.6712  O     
25   N        23.8490    5.7182  -23.6945  N     
26   C        24.3205    5.2189  -22.5641  C     
27   C        23.4826    4.9130  -21.5451  C     
28   C        22.1284    5.0803  -21.6405  C     
29   C        21.6104    5.6172  -22.8469  C     
30   C        20.2332    5.8280  -23.0997  C     
31   C        19.7861    6.3984  -24.3163  C     
32   C        20.7173    6.7430  -25.3222  C     
33   C        22.0951    6.5285  -25.0911  C     
34   C        22.5266    5.9568  -23.8837  C     
35   O        20.2597    7.3568  -26.4632  O     
36   C        20.6287    6.7304  -27.7067  C     
37   O        18.4432    6.5151  -24.5534  O     
38   C        17.8236    7.6512  -23.9235  C     
39   Cl       22.7375    5.7273  -15.9280  Cl    
40   H        23.9450    3.5040  -15.4892  H     
41   H        27.4639    2.9673  -12.4508  H     
42   H        28.6544    4.1282  -10.6966  H     
43   H        27.6830    4.3202   -8.4779  H     
44   H        25.4938    3.3744   -8.0325  H     
45   H        24.2916    2.2045   -9.7789  H     
46   H        25.0839   -1.6668  -13.9911  H     
47   H        23.8727   -1.1247  -15.1131  H     
48   H        23.3860   -1.5856  -13.4836  H     
49   H        26.3715   -0.3221  -11.1329  H     
50   H        25.1168   -1.4570  -11.6286  H     
51   H        24.7395   -0.2007  -10.4567  H     
52   H        21.7170    6.1246  -18.4948  H     
53   H        21.6688    2.2381  -20.0717  H     
54   H        22.6332    1.3894  -18.0432  H     
55   H        25.3002    5.0863  -22.4710  H     
56   H        23.8939    4.5435  -20.7167  H     
57   H        19.5329    5.5627  -22.4013  H     
58   H        22.7827    6.7857  -25.8008  H     
59   H        21.6938    6.8726  -27.9110  H     
60   H        20.0657    7.1980  -28.5102  H     
61   H        20.3954    5.6629  -27.7028  H     
62   H        17.9356    7.6179  -22.8369  H     
63   H        16.7580    7.6264  -24.1553  H     
64   H        18.2327    8.5880  -24.3071  H     
@<TRIPOS>BOND
     1    1    2 1
     2    1    5 1
     3    1   17 1
     4    2    3 1
     5    2    9 1
     6    3    4 1
     7    3   15 2
     8    4    5 2
     9    4    6 1
    10    5   16 1
    11    6    7 2
    12    6    8 am
    13    8   18 1
    14    9   10 1
    15    9   14 2
    16   10   11 2
    17   11   12 1
    18   12   13 2
    19   13   14 1
    20   18   19 1
    21   18   23 2
    22   19   20 2
    23   19   39 1
    24   20   21 1
    25   21   22 2
    26   21   24 1
    27   22   23 1
    28   24   28 1
    29   25   26 2
    30   25   34 1
    31   26   27 1
    32   27   28 2
    33   28   29 1
    34   29   30 2
    35   29   34 1
    36   30   31 1
    37   31   32 2
    38   31   37 1
    39   32   33 1
    40   32   35 1
    41   33   34 2
    42   35   36 1
    43   37   38 1
    44    8   40 1
    45   10   41 1
    46   11   42 1
    47   12   43 1
    48   13   44 1
    49   14   45 1
    50   16   46 1
    51   16   47 1
    52   16   48 1
    53   17   49 1
    54   17   50 1
    55   17   51 1
    56   20   52 1
    57   22   53 1
    58   23   54 1
    59   26   55 1
    60   27   56 1
    61   30   57 1
    62   33   58 1
    63   36   59 1
    64   36   60 1
    65   36   61 1
    66   38   62 1
    67   38   63 1
    68   38   64 1
@<TRIPOS>PROPERTY_DATA
  Total_Score	| 11.2529
  Crash		| -3.2241
  Polar		| 1.9597
  FragIndex	| 1
  FragRMSD	| 0.315

