@<TRIPOS>MOLECULE
BindingDB_50383190
 60 64 0 0 0
SMALL
NO_CHARGES


@<TRIPOS>ATOM
1    N        25.0268    0.6179  -12.1404  N     
2    N        25.2066    1.8887  -12.0463  N     
3    C        24.5881    2.4782  -13.0483  C     
4    C        24.0736    1.5321  -13.8544  C     
5    C        24.3814    0.3646  -13.2591  C     
6    C        23.4407    1.7492  -15.0597  C     
7    O        22.7704    0.8497  -15.5530  O     
8    N        23.4661    2.9525  -15.6305  N     
9    C        25.9951    2.5676  -11.1513  C     
10   C        27.3133    2.9282  -11.5092  C     
11   C        28.1287    3.6346  -10.6048  C     
12   C        27.6321    3.9872   -9.3365  C     
13   C        26.3189    3.6335   -8.9744  C     
14   C        25.5021    2.9269   -9.8784  C     
15   O        24.5145    3.6929  -13.2043  O     
16   C        24.0932   -0.9586  -13.8141  C     
17   C        25.3077   -0.3247  -11.1238  C     
18   C        22.8607    3.4253  -16.7609  C     
19   C        22.5740    4.8088  -16.7764  C     
20   C        22.0668    5.4316  -17.9312  C     
21   C        21.8459    4.6780  -19.1005  C     
22   C        22.0810    3.2846  -19.0816  C     
23   C        22.5944    2.6644  -17.9254  C     
24   F        21.8393    6.7194  -17.9208  F     
25   O        21.4401    5.3399  -20.2352  O     
26   N        23.7286    5.4518  -23.6372  N     
27   C        24.3008    5.1763  -22.4756  C     
28   C        23.5677    5.1665  -21.3254  C     
29   C        22.2283    5.3918  -21.3400  C     
30   C        21.6108    5.7547  -22.5583  C     
31   C        20.2539    6.1395  -22.6678  C     
32   C        19.7012    6.4972  -23.9125  C     
33   C        20.4905    6.4533  -25.0847  C     
34   C        21.8434    6.0647  -24.9887  C     
35   C        22.4071    5.7511  -23.7388  C     
36   O        19.9241    6.6746  -26.3152  O     
37   C        20.5767    7.6629  -27.1325  C     
38   Br       17.9167    7.0331  -23.9585  Br    
39   H        23.9449    3.6332  -15.1337  H     
40   H        27.6825    2.6833  -12.4317  H     
41   H        29.0824    3.8920  -10.8715  H     
42   H        28.2257    4.4972   -8.6780  H     
43   H        25.9588    3.8851   -8.0506  H     
44   H        24.5498    2.6720   -9.6051  H     
45   H        24.5441   -1.7685  -13.2387  H     
46   H        24.4809   -1.0298  -14.8338  H     
47   H        23.0123   -1.1200  -13.8299  H     
48   H        25.7593    0.1248  -10.2385  H     
49   H        25.9979   -1.0874  -11.4870  H     
50   H        24.3844   -0.8106  -10.8025  H     
51   H        22.7619    5.3812  -15.9469  H     
52   H        21.9202    2.7287  -19.9253  H     
53   H        22.8198    1.6684  -17.9612  H     
54   H        25.2715    4.9738  -22.4527  H     
55   H        24.0367    4.9714  -20.4710  H     
56   H        19.6550    6.1694  -21.8376  H     
57   H        22.4225    6.0185  -25.8299  H     
58   H        20.5062    8.6537  -26.6836  H     
59   H        20.0705    7.6922  -28.0965  H     
60   H        21.6285    7.4232  -27.3102  H     
@<TRIPOS>BOND
     1    1    2 1
     2    1    5 1
     3    1   17 1
     4    2    3 1
     5    2    9 1
     6    3    4 1
     7    3   15 2
     8    4    5 2
     9    4    6 1
    10    5   16 1
    11    6    7 2
    12    6    8 am
    13    8   18 1
    14    9   10 1
    15    9   14 2
    16   10   11 2
    17   11   12 1
    18   12   13 2
    19   13   14 1
    20   18   19 1
    21   18   23 2
    22   19   20 2
    23   20   21 1
    24   20   24 1
    25   21   22 2
    26   21   25 1
    27   22   23 1
    28   25   29 1
    29   26   27 2
    30   26   35 1
    31   27   28 1
    32   28   29 2
    33   29   30 1
    34   30   31 2
    35   30   35 1
    36   31   32 1
    37   32   33 2
    38   32   38 1
    39   33   34 1
    40   33   36 1
    41   34   35 2
    42   36   37 1
    43    8   39 1
    44   10   40 1
    45   11   41 1
    46   12   42 1
    47   13   43 1
    48   14   44 1
    49   16   45 1
    50   16   46 1
    51   16   47 1
    52   17   48 1
    53   17   49 1
    54   17   50 1
    55   19   51 1
    56   22   52 1
    57   23   53 1
    58   27   54 1
    59   28   55 1
    60   31   56 1
    61   34   57 1
    62   37   58 1
    63   37   59 1
    64   37   60 1
@<TRIPOS>PROPERTY_DATA
  Total_Score	| 12.9013
  Crash		| -1.1266
  Polar		| 2.2895
  FragIndex	| 1
  FragRMSD	| 0.220

