@<TRIPOS>MOLECULE
BindingDB_24459
 60 64 0 0 0
SMALL
NO_CHARGES


@<TRIPOS>ATOM
1    C        26.4229    3.5184   -8.9799  C     
2    C        25.5959    2.8458   -9.8995  C     
3    C        27.3991    2.8768  -11.5379  C     
4    C        28.2338    3.5280  -10.6099  C     
5    C        27.7455    3.8477   -9.3275  C     
6    C        26.0774    2.5257  -11.1896  C     
7    C        24.7280    2.4745  -13.1296  C     
8    C        24.3332    0.3865  -13.2657  C     
9    N        25.2820    1.8742  -12.0961  N     
10   N        25.0110    0.6155  -12.1580  N     
11   C        25.3099   -0.3520  -11.1680  C     
12   O        24.7516    3.6883  -13.3241  O     
13   C        23.8583   -0.9195  -13.7325  C     
14   C        24.1262    1.5569  -13.9024  C     
15   C        23.4551    1.7977  -15.0872  C     
16   O        22.7731    0.9096  -15.5804  O     
17   N        23.4841    2.9949  -15.6770  N     
18   C        22.8647    3.4521  -16.8086  C     
19   C        21.9969    5.4090  -18.0070  C     
20   C        21.7493    4.6120  -19.1425  C     
21   C        22.0030    3.2280  -19.0936  C     
22   C        22.5611    2.6535  -17.9363  C     
23   C        22.5659    4.8324  -16.8574  C     
24   F        21.7470    6.6884  -18.0295  F     
25   O        21.3137    5.2023  -20.3005  O     
26   C        22.1563    5.3200  -21.3936  C     
27   C        23.5575    5.0734  -21.3560  C     
28   C        24.3334    5.2085  -22.5193  C     
29   N        23.7527    5.5947  -23.6797  N     
30   C        21.5932    5.7528  -22.6235  C     
31   C        22.4287    5.8731  -23.7753  C     
32   C        20.2415    6.0886  -22.7789  C     
33   C        19.7666    6.5282  -23.9634  C     
34   C        20.5794    6.6407  -25.0684  C     
35   C        21.8858    6.3040  -24.9871  C     
36   O        20.1696    7.2978  -26.1648  O     
37   C        19.5855    6.4931  -27.2120  C     
38   H        26.0678    3.7606   -8.0549  H     
39   H        24.6378    2.6059   -9.6342  H     
40   H        27.7600    2.6532  -12.4675  H     
41   H        29.1946    3.7728  -10.8683  H     
42   H        28.3535    4.3172   -8.6544  H     
43   H        24.3843   -0.7851  -10.7819  H     
44   H        25.8491    0.0574  -10.3131  H     
45   H        25.9274   -1.1512  -11.5880  H     
46   H        24.3149   -1.7488  -13.1945  H     
47   H        24.0832   -1.0590  -14.7994  H     
48   H        22.7716   -0.9638  -13.5934  H     
49   H        23.9864    3.6744  -15.2012  H     
50   H        21.8214    2.6434  -19.9145  H     
51   H        22.8085    1.6631  -17.9503  H     
52   H        22.7767    5.4309  -16.0539  H     
53   H        24.0201    4.7769  -20.4964  H     
54   H        25.3383    5.0221  -22.4987  H     
55   H        19.6172    6.0259  -22.0048  H     
56   H        18.8094    6.7806  -24.0210  H     
57   H        22.4789    6.4270  -25.7774  H     
58   H        20.2363    5.6585  -27.5072  H     
59   H        19.4351    7.1358  -28.0817  H     
60   H        18.6085    6.1005  -26.9107  H     
@<TRIPOS>BOND
     1    1    2 2
     2    1    5 1
     3    2    6 1
     4    3    4 1
     5    3    6 2
     6    4    5 2
     7    6    9 1
     8    7    9 1
     9    7   12 2
    10    7   14 1
    11    8   10 1
    12    8   13 1
    13    8   14 2
    14    9   10 1
    15   10   11 1
    16   14   15 1
    17   15   16 2
    18   15   17 am
    19   17   18 1
    20   18   22 2
    21   18   23 1
    22   19   20 1
    23   19   23 2
    24   19   24 1
    25   20   21 2
    26   20   25 1
    27   21   22 1
    28   25   26 1
    29   26   27 1
    30   26   30 2
    31   27   28 2
    32   28   29 1
    33   29   31 2
    34   30   31 1
    35   30   32 1
    36   31   35 1
    37   32   33 2
    38   33   34 1
    39   34   35 2
    40   34   36 1
    41   36   37 1
    42    1   38 1
    43    2   39 1
    44    3   40 1
    45    4   41 1
    46    5   42 1
    47   11   43 1
    48   11   44 1
    49   11   45 1
    50   13   46 1
    51   13   47 1
    52   13   48 1
    53   17   49 1
    54   21   50 1
    55   22   51 1
    56   23   52 1
    57   27   53 1
    58   28   54 1
    59   32   55 1
    60   33   56 1
    61   35   57 1
    62   37   58 1
    63   37   59 1
    64   37   60 1
@<TRIPOS>PROPERTY_DATA
  Total_Score	| 12.1503
  Crash		| -1.3357
  Polar		| 2.2676
  FragIndex	| 1
  FragRMSD	| 0.371

