@<TRIPOS>MOLECULE
BindingDB_50383181
 63 67 0 0 0
SMALL
NO_CHARGES


@<TRIPOS>ATOM
1    N        24.8799    0.5355  -12.2042  N     
2    N        25.1365    1.7982  -12.1158  N     
3    C        24.5785    2.4165  -13.1313  C     
4    C        23.9776    1.5101  -13.9250  C     
5    C        24.1828    0.3227  -13.3061  C     
6    C        23.3053    1.7931  -15.1079  C     
7    O        22.5087    0.9838  -15.5657  O     
8    N        23.4600    2.9607  -15.7366  N     
9    C        25.8807    2.4607  -11.1629  C     
10   C        25.3550    2.6894   -9.8732  C     
11   C        26.0984    3.4036   -8.9164  C     
12   C        27.3800    3.8896   -9.2395  C     
13   C        27.9148    3.6632  -10.5191  C     
14   C        27.1663    2.9582  -11.4809  C     
15   O        24.5700    3.6377  -13.2831  O     
16   C        25.2961   -0.3923  -11.2160  C     
17   C        22.8592    3.4395  -16.8664  C     
18   C        22.5914    4.8249  -16.9018  C     
19   C        22.0542    5.4252  -18.0561  C     
20   C        21.8103    4.6537  -19.2047  C     
21   C        22.0186    3.2551  -19.1620  C     
22   C        22.5607    2.6598  -18.0089  C     
23   O        21.3876    5.2745  -20.3595  O     
24   N        23.7404    5.5865  -23.7197  N     
25   C        24.3066    5.3198  -22.5524  C     
26   C        23.5554    5.2241  -21.4214  C     
27   C        22.1963    5.3475  -21.4503  C     
28   C        21.5777    5.6449  -22.6835  C     
29   C        20.1808    5.8366  -22.8352  C     
30   C        19.6289    6.1558  -24.0897  C     
31   C        20.4582    6.2929  -25.2225  C     
32   C        21.8463    6.0757  -25.0962  C     
33   C        22.4001    5.7641  -23.8422  C     
34   O        19.9227    6.5860  -26.4463  O     
35   C        19.8334    7.9999  -26.6998  C     
36   F        21.8456    6.7158  -18.0689  F     
37   C        23.6569   -0.9568  -13.7965  C     
38   N        24.1873   -1.2918  -15.1276  N     
39   H        24.0352    3.6037  -15.2883  H     
40   H        24.4226    2.3424   -9.6315  H     
41   H        25.7060    3.5756   -7.9888  H     
42   H        27.9159    4.4093   -8.5453  H     
43   H        28.8433    4.0202  -10.7566  H     
44   H        27.5652    2.8014  -12.4117  H     
45   H        26.3685   -0.2716  -11.0243  H     
46   H        25.1425   -1.4404  -11.4712  H     
47   H        24.7515   -0.1904  -10.2866  H     
48   H        22.8035    5.4092  -16.0903  H     
49   H        21.8409    2.6924  -19.9965  H     
50   H        22.7736    1.6582  -18.0294  H     
51   H        25.2910    5.2136  -22.5118  H     
52   H        24.0301    5.0605  -20.5617  H     
53   H        19.5506    5.7523  -22.0327  H     
54   H        18.6208    6.2920  -24.1807  H     
55   H        22.4513    6.1634  -25.9191  H     
56   H        19.1224    8.4760  -26.0199  H     
57   H        19.4731    8.1387  -27.7181  H     
58   H        20.8085    8.4894  -26.6142  H     
59   H        23.8773   -1.8012  -13.1559  H     
60   H        22.5674   -0.8909  -13.8437  H     
61   H        24.1208   -0.4838  -15.7618  H     
62   H        23.6469   -2.0667  -15.5241  H     
63   H        25.1645   -1.5756  -15.0311  H     
@<TRIPOS>BOND
     1    1    2 1
     2    1    5 1
     3    1   16 1
     4    2    3 1
     5    2    9 1
     6    3    4 1
     7    3   15 2
     8    4    5 2
     9    4    6 1
    10    5   37 1
    11    6    7 2
    12    6    8 am
    13    8   17 1
    14    9   10 1
    15    9   14 2
    16   10   11 2
    17   11   12 1
    18   12   13 2
    19   13   14 1
    20   17   18 1
    21   17   22 2
    22   18   19 2
    23   19   20 1
    24   19   36 1
    25   20   21 2
    26   20   23 1
    27   21   22 1
    28   23   27 1
    29   24   25 2
    30   24   33 1
    31   25   26 1
    32   26   27 2
    33   27   28 1
    34   28   29 2
    35   28   33 1
    36   29   30 1
    37   30   31 2
    38   31   32 1
    39   31   34 1
    40   32   33 2
    41   34   35 1
    42   37   38 1
    43    8   39 1
    44   10   40 1
    45   11   41 1
    46   12   42 1
    47   13   43 1
    48   14   44 1
    49   16   45 1
    50   16   46 1
    51   16   47 1
    52   18   48 1
    53   21   49 1
    54   22   50 1
    55   25   51 1
    56   26   52 1
    57   29   53 1
    58   30   54 1
    59   32   55 1
    60   35   56 1
    61   35   57 1
    62   35   58 1
    63   37   59 1
    64   37   60 1
    65   38   61 1
    66   38   62 1
    67   38   63 1
@<TRIPOS>PROPERTY_DATA
  Total_Score	| 11.3274
  Crash		| -1.8982
  Polar		| 2.1643
  FragIndex	| 1
  FragRMSD	| 0.098

