@<TRIPOS>MOLECULE
BindingDB_50383205
 63 67 0 0 0
SMALL
NO_CHARGES


@<TRIPOS>ATOM
1    N        25.0109    0.5768  -12.2722  N     
2    N        25.1592    1.8512  -12.1466  N     
3    C        24.5691    2.4451  -13.1566  C     
4    C        24.0942    1.5065  -13.9998  C     
5    C        24.4010    0.3309  -13.4182  C     
6    C        23.4548    1.7532  -15.1956  C     
7    O        22.7438    0.8877  -15.6898  O     
8    N        23.4984    2.9624  -15.7513  N     
9    C        25.9287    2.5272  -11.2258  C     
10   C        25.3739    2.9886  -10.0128  C     
11   C        26.1580    3.7118   -9.0983  C     
12   C        27.5085    3.9957   -9.3949  C     
13   C        28.0660    3.5472  -10.6056  C     
14   C        27.2819    2.8186  -11.5176  C     
15   O        24.5035    3.6643  -13.3059  O     
16   C        24.1665   -1.0104  -13.9624  C     
17   C        22.8422    3.4463  -16.8434  C     
18   C        22.5708    4.8333  -16.8499  C     
19   C        22.0194    5.4523  -17.9883  C     
20   C        21.7662    4.7045  -19.1484  C     
21   C        21.9843    3.3018  -19.1304  C     
22   C        22.5242    2.6823  -17.9898  C     
23   O        21.3684    5.3697  -20.2905  O     
24   N        23.7297    5.4679  -23.6457  N     
25   C        24.2785    5.2302  -22.4647  C     
26   C        23.5216    5.2323  -21.3390  C     
27   C        22.1721    5.4118  -21.3838  C     
28   C        21.5728    5.7208  -22.6242  C     
29   C        20.2092    6.0585  -22.7806  C     
30   C        19.6889    6.3844  -24.0490  C     
31   C        20.5147    6.3613  -25.1934  C     
32   C        21.8780    6.0159  -25.0514  C     
33   C        22.4016    5.7223  -23.7849  C     
34   O        19.9404    6.6385  -26.4063  O     
35   C        20.5753    7.6698  -27.1872  C     
36   F        21.7962    6.7418  -17.9638  F     
37   C        25.3064   -0.3621  -11.2467  C     
38   C        24.3331   -0.2446  -10.0496  C     
39   H        23.9881    3.6333  -15.2505  H     
40   H        24.3947    2.7921   -9.7870  H     
41   H        25.7521    4.0350   -8.2181  H     
42   H        28.0754    4.5284   -8.7338  H     
43   H        29.0449    3.7561  -10.8250  H     
44   H        27.6960    2.5109  -12.4006  H     
45   H        25.1006   -1.5739  -13.9735  H     
46   H        23.7894   -1.0143  -14.9826  H     
47   H        23.4468   -1.5382  -13.3345  H     
48   H        22.8026    5.3983  -16.0324  H     
49   H        21.8052    2.7506  -19.9718  H     
50   H        22.7433    1.6829  -18.0219  H     
51   H        25.2571    5.0677  -22.4133  H     
52   H        23.9749    5.0845  -20.4671  H     
53   H        19.5796    6.0949  -21.9723  H     
54   H        18.7042    6.6476  -24.1392  H     
55   H        22.4926    6.0075  -25.8670  H     
56   H        20.8870    8.5215  -26.5757  H     
57   H        19.8579    8.0233  -27.9247  H     
58   H        21.4433    7.2649  -27.7158  H     
59   H        25.2666   -1.3934  -11.6041  H     
60   H        26.3297   -0.2131  -10.8885  H     
61   H        24.4730    0.7014   -9.5314  H     
62   H        24.5178   -1.0555   -9.3426  H     
63   H        23.2988   -0.3036  -10.3903  H     
@<TRIPOS>BOND
     1    1    2 1
     2    1    5 1
     3    1   37 1
     4    2    3 1
     5    2    9 1
     6    3    4 1
     7    3   15 2
     8    4    5 2
     9    4    6 1
    10    5   16 1
    11    6    7 2
    12    6    8 am
    13    8   17 1
    14    9   10 1
    15    9   14 2
    16   10   11 2
    17   11   12 1
    18   12   13 2
    19   13   14 1
    20   17   18 1
    21   17   22 2
    22   18   19 2
    23   19   20 1
    24   19   36 1
    25   20   21 2
    26   20   23 1
    27   21   22 1
    28   23   27 1
    29   24   25 2
    30   24   33 1
    31   25   26 1
    32   26   27 2
    33   27   28 1
    34   28   29 2
    35   28   33 1
    36   29   30 1
    37   30   31 2
    38   31   32 1
    39   31   34 1
    40   32   33 2
    41   34   35 1
    42   37   38 1
    43    8   39 1
    44   10   40 1
    45   11   41 1
    46   12   42 1
    47   13   43 1
    48   14   44 1
    49   16   45 1
    50   16   46 1
    51   16   47 1
    52   18   48 1
    53   21   49 1
    54   22   50 1
    55   25   51 1
    56   26   52 1
    57   29   53 1
    58   30   54 1
    59   32   55 1
    60   35   56 1
    61   35   57 1
    62   35   58 1
    63   37   59 1
    64   37   60 1
    65   38   61 1
    66   38   62 1
    67   38   63 1
@<TRIPOS>PROPERTY_DATA
  Total_Score	| 12.5928
  Crash		| -1.3488
  Polar		| 2.2893
  FragIndex	| 1
  FragRMSD	| 0.204

