@<TRIPOS>MOLECULE
BindingDB_50383214
 67 71 0 0 0
SMALL
NO_CHARGES


@<TRIPOS>ATOM
1    C        19.7042    6.2435  -24.1756  C     
2    C        20.6158    6.6404  -25.1778  C     
3    C        22.0002    6.4634  -24.9660  C     
4    C        20.1809    5.6906  -22.9631  C     
5    C        21.5655    5.5323  -22.7231  C     
6    C        22.4666    5.9016  -23.7637  C     
7    N        23.7982    5.6888  -23.5805  N     
8    C        24.2812    5.1867  -22.4570  C     
9    C        23.4501    4.8509  -21.4274  C     
10   C        22.1081    5.0213  -21.5213  C     
11   O        21.2232    4.7040  -20.5409  O     
12   C        21.5919    4.2814  -19.2863  C     
13   C        21.3911    2.9269  -18.9455  C     
14   C        21.6884    2.4669  -17.6449  C     
15   C        22.2142    3.3431  -16.6652  C     
16   C        22.4155    4.7010  -17.0200  C     
17   C        22.0869    5.1763  -18.3080  C     
18   N        22.5182    2.8994  -15.3845  N     
19   F        22.2530    6.4415  -18.5962  F     
20   O        18.3524    6.3282  -24.3993  O     
21   C        17.7309    7.4706  -23.7878  C     
22   O        20.1563    7.3067  -26.2850  O     
23   C        20.6011    6.7751  -27.5458  C     
24   C        23.5327    2.0282  -15.1825  C     
25   C        24.0734    1.7510  -13.9577  C     
26   O        24.1517    1.5440  -16.1304  O     
27   C        24.2113    0.5648  -13.3487  C     
28   N        24.8646    0.7587  -12.2235  N     
29   N        25.1411    2.0125  -12.1083  N     
30   C        24.6747    2.6436  -13.1719  C     
31   O        24.7548    3.8471  -13.4066  O     
32   C        25.8612    2.6416  -11.1231  C     
33   C        25.2937    2.8839   -9.8503  C     
34   C        26.0556    3.4944   -8.8313  C     
35   C        27.3971    3.8441   -9.0721  C     
36   C        27.9670    3.6101  -10.3370  C     
37   C        27.2025    3.0165  -11.3572  C     
38   C        23.7578   -0.7033  -13.9124  C     
39   C        25.2237   -0.2584  -11.3064  C     
40   C        21.7512    3.4642  -14.2880  C     
41   H        22.6648    6.7602  -25.6841  H     
42   H        19.4975    5.4087  -22.2546  H     
43   H        25.2592    5.0502  -22.3743  H     
44   H        23.8617    4.4870  -20.6019  H     
45   H        21.0171    2.2758  -19.6405  H     
46   H        21.5126    1.4902  -17.4107  H     
47   H        22.7983    5.3552  -16.3339  H     
48   H        17.8476    7.4555  -22.6976  H     
49   H        16.6630    7.4410  -24.0128  H     
50   H        18.1344    8.4056  -24.1852  H     
51   H        21.6872    6.8622  -27.6503  H     
52   H        20.1359    7.3610  -28.3367  H     
53   H        20.3003    5.7305  -27.6633  H     
54   H        24.3295    2.6112   -9.6551  H     
55   H        25.6448    3.6545   -7.9086  H     
56   H        27.9542    4.2749   -8.3324  H     
57   H        28.9447    3.8540  -10.5102  H     
58   H        27.6357    2.8309  -12.2663  H     
59   H        22.6760   -0.6837  -14.0340  H     
60   H        24.0056   -1.5632  -13.2869  H     
61   H        24.2239   -0.8595  -14.8872  H     
62   H        24.3220   -0.7377  -10.9114  H     
63   H        25.8004    0.1033  -10.4492  H     
64   H        25.8344   -1.0193  -11.8027  H     
65   H        22.4192    4.0834  -13.6601  H     
66   H        21.3341    2.6505  -13.6792  H     
67   H        20.9200    4.0899  -14.6311  H     
@<TRIPOS>BOND
     1    1    2 2
     2    1    4 1
     3    1   20 1
     4    2    3 1
     5    2   22 1
     6    3    6 2
     7    4    5 2
     8    5    6 1
     9    5   10 1
    10    6    7 1
    11    7    8 2
    12    8    9 1
    13    9   10 2
    14   10   11 1
    15   11   12 1
    16   12   13 2
    17   12   17 1
    18   13   14 1
    19   14   15 2
    20   15   16 1
    21   15   18 1
    22   16   17 2
    23   17   19 1
    24   18   24 am
    25   18   40 1
    26   20   21 1
    27   22   23 1
    28   24   25 1
    29   24   26 2
    30   25   27 2
    31   25   30 1
    32   27   28 1
    33   27   38 1
    34   28   29 1
    35   28   39 1
    36   29   30 1
    37   29   32 1
    38   30   31 2
    39   32   33 2
    40   32   37 1
    41   33   34 1
    42   34   35 2
    43   35   36 1
    44   36   37 2
    45    3   41 1
    46    4   42 1
    47    8   43 1
    48    9   44 1
    49   13   45 1
    50   14   46 1
    51   16   47 1
    52   21   48 1
    53   21   49 1
    54   21   50 1
    55   23   51 1
    56   23   52 1
    57   23   53 1
    58   33   54 1
    59   34   55 1
    60   35   56 1
    61   36   57 1
    62   37   58 1
    63   38   59 1
    64   38   60 1
    65   38   61 1
    66   39   62 1
    67   39   63 1
    68   39   64 1
    69   40   65 1
    70   40   66 1
    71   40   67 1
@<TRIPOS>PROPERTY_DATA
  Total_Score	| 11.5993
  Crash		| -1.5780
  Polar		| 0.9377
  FragIndex	| 1
  FragRMSD	| 0.692

