@<TRIPOS>MOLECULE
BindingDB_24460
 66 70 0 0 0
SMALL
NO_CHARGES


@<TRIPOS>ATOM
1    C        26.1987    3.3746   -8.9284  C     
2    C        25.4057    2.7250   -9.8918  C     
3    C        27.2100    2.9472  -11.5190  C     
4    C        28.0070    3.5815  -10.5456  C     
5    C        27.5024    3.8001   -9.2518  C     
6    C        25.9061    2.5183  -11.1993  C     
7    C        24.6182    2.4225  -13.1704  C     
8    C        24.4058    0.2968  -13.3921  C     
9    N        25.1782    1.8349  -12.1424  N     
10   N        25.0091    0.5486  -12.2356  N     
11   O        24.5308    3.6343  -13.3406  O     
12   C        24.1482   -1.0084  -14.0063  C     
13   C        24.1521    1.4795  -14.0015  C     
14   C        23.5002    1.7277  -15.1829  C     
15   O        22.7790    0.8465  -15.6592  O     
16   N        23.4919    2.9459  -15.7246  N     
17   C        22.8356    3.4017  -16.8307  C     
18   C        22.0075    5.3638  -18.0608  C     
19   C        21.7350    4.5550  -19.1767  C     
20   C        21.9522    3.1616  -19.1079  C     
21   C        22.5085    2.5906  -17.9440  C     
22   C        22.5523    4.7859  -16.8956  C     
23   F        21.7855    6.6490  -18.0871  F     
24   O        21.3104    5.1387  -20.3438  O     
25   C        22.1785    5.2474  -21.4221  C     
26   C        23.5882    5.0789  -21.3362  C     
27   C        24.3896    5.2108  -22.4832  C     
28   N        23.8139    5.5232  -23.6682  N     
29   C        21.6174    5.5927  -22.6811  C     
30   C        22.4766    5.7208  -23.8091  C     
31   C        20.2474    5.8233  -22.8818  C     
32   C        19.7782    6.1576  -24.1008  C     
33   C        20.6164    6.2843  -25.1757  C     
34   C        21.9416    6.0553  -25.0499  C     
35   O        20.1132    6.5281  -26.3949  O     
36   C        19.8852    7.9219  -26.6745  C     
37   C        25.3932   -0.3056  -11.1498  C     
38   C        25.6481   -1.8246  -11.3054  C     
39   C        26.0482   -2.5375   -9.9807  C     
40   H        25.8398    3.5293   -7.9857  H     
41   H        24.4742    2.4099   -9.6338  H     
42   H        27.5887    2.7889  -12.4578  H     
43   H        28.9544    3.8659  -10.7862  H     
44   H        28.0793    4.2794   -8.5554  H     
45   H        25.0589   -1.6173  -14.0152  H     
46   H        23.8124   -0.9487  -15.0459  H     
47   H        23.3722   -1.5221  -13.4308  H     
48   H        23.9632    3.6270  -15.2236  H     
49   H        21.7481    2.5637  -19.9160  H     
50   H        22.7188    1.5891  -17.9387  H     
51   H        22.7771    5.3874  -16.0942  H     
52   H        24.0416    4.8455  -20.4492  H     
53   H        25.4004    5.0809  -22.4242  H     
54   H        19.6013    5.7477  -22.1229  H     
55   H        18.8039    6.3228  -24.2167  H     
56   H        22.5389    6.1209  -25.8408  H     
57   H        19.1176    8.3310  -26.0170  H     
58   H        19.5301    8.0079  -27.7038  H     
59   H        20.8045    8.5065  -26.5814  H     
60   H        26.3081    0.1134  -10.7217  H     
61   H        24.6120   -0.2199  -10.3923  H     
62   H        24.7466   -2.3040  -11.6818  H     
63   H        26.4628   -1.9857  -12.0092  H     
64   H        26.9699   -2.1167   -9.5724  H     
65   H        26.2029   -3.6053  -10.1562  H     
66   H        25.2498   -2.4231   -9.2409  H     
@<TRIPOS>BOND
     1    1    2 2
     2    1    5 1
     3    2    6 1
     4    3    4 1
     5    3    6 2
     6    4    5 2
     7    6    9 1
     8    7    9 1
     9    7   11 2
    10    7   13 1
    11    8   10 1
    12    8   12 1
    13    8   13 2
    14    9   10 1
    15   10   37 1
    16   13   14 1
    17   14   15 2
    18   14   16 am
    19   16   17 1
    20   17   21 2
    21   17   22 1
    22   18   19 1
    23   18   22 2
    24   18   23 1
    25   19   20 2
    26   19   24 1
    27   20   21 1
    28   24   25 1
    29   25   26 1
    30   25   29 2
    31   26   27 2
    32   27   28 1
    33   28   30 2
    34   29   30 1
    35   29   31 1
    36   30   34 1
    37   31   32 2
    38   32   33 1
    39   33   34 2
    40   33   35 1
    41   35   36 1
    42   37   38 1
    43   38   39 1
    44    1   40 1
    45    2   41 1
    46    3   42 1
    47    4   43 1
    48    5   44 1
    49   12   45 1
    50   12   46 1
    51   12   47 1
    52   16   48 1
    53   20   49 1
    54   21   50 1
    55   22   51 1
    56   26   52 1
    57   27   53 1
    58   31   54 1
    59   32   55 1
    60   34   56 1
    61   36   57 1
    62   36   58 1
    63   36   59 1
    64   37   60 1
    65   37   61 1
    66   38   62 1
    67   38   63 1
    68   39   64 1
    69   39   65 1
    70   39   66 1
@<TRIPOS>PROPERTY_DATA
  Total_Score	| 12.7603
  Crash		| -2.0049
  Polar		| 2.2501
  FragIndex	| 1
  FragRMSD	| 0.128

