@<TRIPOS>MOLECULE
BindingDB_50383189
 63 67 0 0 0
SMALL
NO_CHARGES


@<TRIPOS>ATOM
1    N        24.9798    0.5460  -12.3428  N     
2    N        25.1922    1.8082  -12.2787  N     
3    C        24.6579    2.3748  -13.3396  C     
4    C        24.0708    1.4361  -14.0998  C     
5    C        24.3488    0.2776  -13.4660  C     
6    C        23.3850    1.6718  -15.2824  C     
7    O        22.9967    0.7256  -15.9462  O     
8    N        23.1127    2.9113  -15.7126  N     
9    C        25.9117    2.4958  -11.3220  C     
10   C        25.3760    2.7096  -10.0301  C     
11   C        26.1211    3.3911   -9.0481  C     
12   C        27.4113    3.8711   -9.3523  C     
13   C        27.9551    3.6639  -10.6325  C     
14   C        27.2043    2.9853  -11.6145  C     
15   O        24.7284    3.5746  -13.5942  O     
16   C        24.0593   -1.0919  -13.9072  C     
17   C        25.3911   -0.3668  -11.3365  C     
18   C        22.5997    3.4053  -16.8942  C     
19   C        22.4068    4.8080  -16.9554  C     
20   C        21.9591    5.4428  -18.1364  C     
21   C        21.6936    4.6794  -19.2914  C     
22   C        21.8307    3.2799  -19.2340  C     
23   C        22.2850    2.6535  -18.0554  C     
24   O        21.3220    5.2792  -20.4715  O     
25   N        23.8595    5.6445  -23.6823  N     
26   C        24.3394    5.2318  -22.5198  C     
27   C        23.5234    5.1109  -21.4357  C     
28   C        22.1905    5.3786  -21.5167  C     
29   C        21.6623    5.8266  -22.7546  C     
30   C        20.3053    6.1746  -22.9624  C     
31   C        19.8482    6.6822  -24.2043  C     
32   C        20.7654    6.8224  -25.2817  C     
33   C        22.1179    6.4526  -25.1012  C     
34   C        22.5534    5.9623  -23.8568  C     
35   C        18.4226    7.0807  -24.3171  C     
36   O        20.3736    7.4454  -26.4435  O     
37   C        20.7352    6.7882  -27.6724  C     
38   F        21.8475    6.7455  -18.1666  F     
39   H        23.3761    3.6117  -15.0886  H     
40   H        24.4390    2.3709   -9.7985  H     
41   H        25.7273    3.5428   -8.1165  H     
42   H        27.9530    4.3647   -8.6392  H     
43   H        28.8927    4.0127  -10.8548  H     
44   H        27.6122    2.8383  -12.5396  H     
45   H        24.9992   -1.6524  -13.9788  H     
46   H        23.5661   -1.1894  -14.8740  H     
47   H        23.4137   -1.5775  -13.1687  H     
48   H        26.4584   -0.2396  -11.1308  H     
49   H        25.2421   -1.4183  -11.5834  H     
50   H        24.8414   -0.1764  -10.4106  H     
51   H        22.6365    5.3887  -16.1482  H     
52   H        21.6385    2.7191  -20.0673  H     
53   H        22.4081    1.6421  -18.0844  H     
54   H        25.3075    5.0243  -22.4497  H     
55   H        23.9226    4.8235  -20.5673  H     
56   H        19.6313    6.0823  -22.1942  H     
57   H        22.7917    6.5751  -25.8628  H     
58   H        17.7902    6.2151  -24.1080  H     
59   H        18.1572    7.4601  -25.3066  H     
60   H        18.2007    7.8634  -23.5868  H     
61   H        21.8180    6.8058  -27.8131  H     
62   H        20.2763    7.3333  -28.4973  H     
63   H        20.3735    5.7566  -27.7088  H     
@<TRIPOS>BOND
     1    1    2 1
     2    1    5 1
     3    1   17 1
     4    2    3 1
     5    2    9 1
     6    3    4 1
     7    3   15 2
     8    4    5 2
     9    4    6 1
    10    5   16 1
    11    6    7 2
    12    6    8 am
    13    8   18 1
    14    9   10 1
    15    9   14 2
    16   10   11 2
    17   11   12 1
    18   12   13 2
    19   13   14 1
    20   18   19 1
    21   18   23 2
    22   19   20 2
    23   20   21 1
    24   20   38 1
    25   21   22 2
    26   21   24 1
    27   22   23 1
    28   24   28 1
    29   25   26 2
    30   25   34 1
    31   26   27 1
    32   27   28 2
    33   28   29 1
    34   29   30 2
    35   29   34 1
    36   30   31 1
    37   31   32 2
    38   31   35 1
    39   32   33 1
    40   32   36 1
    41   33   34 2
    42   36   37 1
    43    8   39 1
    44   10   40 1
    45   11   41 1
    46   12   42 1
    47   13   43 1
    48   14   44 1
    49   16   45 1
    50   16   46 1
    51   16   47 1
    52   17   48 1
    53   17   49 1
    54   17   50 1
    55   19   51 1
    56   22   52 1
    57   23   53 1
    58   26   54 1
    59   27   55 1
    60   30   56 1
    61   33   57 1
    62   35   58 1
    63   35   59 1
    64   35   60 1
    65   37   61 1
    66   37   62 1
    67   37   63 1
@<TRIPOS>PROPERTY_DATA
  Total_Score	| 12.6781
  Crash		| -1.7458
  Polar		| 2.1239
  FragIndex	| 1
  FragRMSD	| 0.441

