@<TRIPOS>MOLECULE
BindingDB_50383201
 64 68 0 0 0
SMALL
NO_CHARGES


@<TRIPOS>ATOM
1    N        24.9446    0.6823  -12.0381  N     
2    N        25.2535    1.9364  -11.9679  N     
3    C        24.7490    2.5435  -13.0216  C     
4    C        24.1622    1.6390  -13.8367  C     
5    C        24.3600    0.4562  -13.2024  C     
6    C        23.4989    1.8650  -15.0342  C     
7    O        22.8261    0.9664  -15.5206  O     
8    N        23.4692    3.0940  -15.5856  N     
9    C        26.0233    2.5692  -11.0160  C     
10   C        27.3598    2.9131  -11.3234  C     
11   C        28.1772    3.5205  -10.3541  C     
12   C        27.6622    3.8143   -9.0807  C     
13   C        26.3265    3.5017   -8.7762  C     
14   C        25.5067    2.8863   -9.7409  C     
15   O        24.8002    3.7574  -13.2062  O     
16   C        24.0426   -0.8793  -13.7297  C     
17   C        24.9426   -0.1928  -10.9109  C     
18   C        26.3236   -0.8203  -10.6236  C     
19   O        26.3591   -1.3342   -9.2924  O     
20   C        22.8636    3.5241  -16.7376  C     
21   C        22.6267    2.7352  -17.8885  C     
22   C        22.1033    3.3073  -19.0602  C     
23   C        21.8210    4.6969  -19.1226  C     
24   C        22.0189    5.4705  -17.9771  C     
25   C        22.5456    4.9021  -16.7990  C     
26   O        21.4125    5.3188  -20.2841  O     
27   N        23.7589    5.5115  -23.6762  N     
28   C        24.3241    5.2452  -22.5045  C     
29   C        23.5782    5.2115  -21.3709  C     
30   C        22.2243    5.3936  -21.3809  C     
31   C        21.6170    5.7187  -22.6175  C     
32   C        20.2432    6.0137  -22.7750  C     
33   C        19.7030    6.3376  -24.0381  C     
34   C        20.5252    6.3655  -25.1829  C     
35   C        21.8971    6.0515  -25.0496  C     
36   C        22.4310    5.7591  -23.7892  C     
37   O        19.9536    6.6417  -26.3979  O     
38   C        20.6250    7.6497  -27.1811  C     
39   F        21.9578    2.5540  -20.1160  F     
40   H        23.9234    3.7855  -15.0799  H     
41   H        27.7433    2.6972  -12.2466  H     
42   H        29.1454    3.7453  -10.5814  H     
43   H        28.2619    4.2481   -8.3756  H     
44   H        25.9527    3.7144   -7.8515  H     
45   H        24.5370    2.6626   -9.5063  H     
46   H        24.7158   -1.6392  -13.3046  H     
47   H        24.1639   -0.9371  -14.8175  H     
48   H        23.0013   -1.1056  -13.4610  H     
49   H        24.6097    0.3561  -10.0258  H     
50   H        24.2262   -1.0080  -11.0182  H     
51   H        26.5082   -1.6382  -11.3217  H     
52   H        27.1171   -0.0749  -10.7277  H     
53   H        27.2806   -1.1798   -8.9850  H     
54   H        22.8859    1.7415  -17.8961  H     
55   H        21.8279    6.4696  -17.9930  H     
56   H        22.7185    5.4967  -15.9875  H     
57   H        25.3019    5.0706  -22.4616  H     
58   H        24.0518    5.0224  -20.5128  H     
59   H        19.6100    6.0075  -21.9713  H     
60   H        18.7056    6.5443  -24.1304  H     
61   H        22.5053    6.0540  -25.8747  H     
62   H        20.9242    8.5127  -26.5762  H     
63   H        19.9423    7.9895  -27.9585  H     
64   H        21.5072    7.2257  -27.6679  H     
@<TRIPOS>BOND
     1    1    2 1
     2    1    5 1
     3    1   17 1
     4    2    3 1
     5    2    9 1
     6    3    4 1
     7    3   15 2
     8    4    5 2
     9    4    6 1
    10    5   16 1
    11    6    7 2
    12    6    8 am
    13    8   20 1
    14    9   10 1
    15    9   14 2
    16   10   11 2
    17   11   12 1
    18   12   13 2
    19   13   14 1
    20   17   18 1
    21   18   19 1
    22   20   21 1
    23   20   25 2
    24   21   22 2
    25   22   23 1
    26   22   39 1
    27   23   24 2
    28   23   26 1
    29   24   25 1
    30   26   30 1
    31   27   28 2
    32   27   36 1
    33   28   29 1
    34   29   30 2
    35   30   31 1
    36   31   32 2
    37   31   36 1
    38   32   33 1
    39   33   34 2
    40   34   35 1
    41   34   37 1
    42   35   36 2
    43   37   38 1
    44    8   40 1
    45   10   41 1
    46   11   42 1
    47   12   43 1
    48   13   44 1
    49   14   45 1
    50   16   46 1
    51   16   47 1
    52   16   48 1
    53   17   49 1
    54   17   50 1
    55   18   51 1
    56   18   52 1
    57   19   53 1
    58   21   54 1
    59   24   55 1
    60   25   56 1
    61   28   57 1
    62   29   58 1
    63   32   59 1
    64   33   60 1
    65   35   61 1
    66   38   62 1
    67   38   63 1
    68   38   64 1
@<TRIPOS>PROPERTY_DATA
  Total_Score	| 12.6258
  Crash		| -1.9327
  Polar		| 3.2146
  FragIndex	| 1
  FragRMSD	| 1.172

