@<TRIPOS>MOLECULE
BindingDB_50383188
 66 70 0 0 0
SMALL
NO_CHARGES


@<TRIPOS>ATOM
1    N        25.0256    0.5409  -12.2451  N     
2    N        25.2250    1.8046  -12.1256  N     
3    C        24.6384    2.4187  -13.1281  C     
4    C        24.1199    1.4962  -13.9628  C     
5    C        24.4226    0.3095  -13.3924  C     
6    C        23.4281    1.7533  -15.1253  C     
7    O        22.6614    0.9068  -15.5662  O     
8    N        23.4684    2.9593  -15.7039  N     
9    C        25.9915    2.4429  -11.1816  C     
10   C        27.3222    2.8163  -11.4860  C     
11   C        28.1263    3.4426  -10.5154  C     
12   C        27.5995    3.7213   -9.2403  C     
13   C        26.2690    3.3771   -8.9387  C     
14   C        25.4664    2.7413   -9.9050  C     
15   O        24.6182    3.6396  -13.2666  O     
16   C        24.2113   -1.0284  -13.9574  C     
17   C        25.3313   -0.3850  -11.2230  C     
18   C        22.8293    3.4198  -16.8240  C     
19   C        22.5390    4.8042  -16.8589  C     
20   C        22.0153    5.4102  -18.0160  C     
21   C        21.7704    4.6400  -19.1656  C     
22   C        22.0112    3.2476  -19.1324  C     
23   C        22.5333    2.6460  -17.9719  C     
24   F        21.8097    6.6984  -18.0309  F     
25   O        21.3688    5.2547  -20.3311  O     
26   N        23.7878    5.5032  -23.6386  N     
27   C        24.3308    5.2812  -22.4524  C     
28   C        23.5496    5.2124  -21.3405  C     
29   C        22.1933    5.3204  -21.4106  C     
30   C        21.5990    5.5859  -22.6671  C     
31   C        20.2098    5.7793  -22.8697  C     
32   C        19.6722    6.0417  -24.1577  C     
33   C        20.5512    6.1203  -25.2686  C     
34   C        21.9349    5.9094  -25.0844  C     
35   C        22.4507    5.6665  -23.8031  C     
36   O        20.0605    6.3524  -26.5299  O     
37   C        20.7048    7.4342  -27.2336  C     
38   C        18.1985    6.2205  -24.3149  C     
39   C        17.7146    7.5969  -23.8055  C     
40   H        24.0029    3.6236  -15.2474  H     
41   H        27.7130    2.6184  -12.4094  H     
42   H        29.0977    3.6815  -10.7325  H     
43   H        28.1931    4.1494   -8.5238  H     
44   H        25.8905    3.5671   -8.0074  H     
45   H        24.5034    2.4883   -9.6731  H     
46   H        25.1184   -1.6309  -13.8342  H     
47   H        23.9881   -1.0345  -15.0207  H     
48   H        23.3912   -1.5189  -13.4247  H     
49   H        26.4016   -0.3690  -11.0174  H     
50   H        25.0530   -1.4102  -11.4603  H     
51   H        24.8020   -0.1111  -10.3102  H     
52   H        22.7490    5.3813  -16.0425  H     
53   H        21.8548    2.6815  -19.9712  H     
54   H        22.7549    1.6458  -18.0015  H     
55   H        25.3147    5.1801  -22.3866  H     
56   H        23.9991    5.0733  -20.4619  H     
57   H        19.5700    5.7256  -22.0725  H     
58   H        22.5689    5.9449  -25.8882  H     
59   H        20.8015    8.3319  -26.6178  H     
60   H        20.1047    7.6832  -28.1029  H     
61   H        21.6941    7.1189  -27.5742  H     
62   H        17.8952    6.1184  -25.3600  H     
63   H        17.6731    5.4314  -23.7667  H     
64   H        17.9374    7.7146  -22.7439  H     
65   H        16.6332    7.6821  -23.9436  H     
66   H        18.1947    8.4051  -24.3605  H     
@<TRIPOS>BOND
     1    1    2 1
     2    1    5 1
     3    1   17 1
     4    2    3 1
     5    2    9 1
     6    3    4 1
     7    3   15 2
     8    4    5 2
     9    4    6 1
    10    5   16 1
    11    6    7 2
    12    6    8 am
    13    8   18 1
    14    9   10 1
    15    9   14 2
    16   10   11 2
    17   11   12 1
    18   12   13 2
    19   13   14 1
    20   18   19 1
    21   18   23 2
    22   19   20 2
    23   20   21 1
    24   20   24 1
    25   21   22 2
    26   21   25 1
    27   22   23 1
    28   25   29 1
    29   26   27 2
    30   26   35 1
    31   27   28 1
    32   28   29 2
    33   29   30 1
    34   30   31 2
    35   30   35 1
    36   31   32 1
    37   32   33 2
    38   32   38 1
    39   33   34 1
    40   33   36 1
    41   34   35 2
    42   36   37 1
    43   38   39 1
    44    8   40 1
    45   10   41 1
    46   11   42 1
    47   12   43 1
    48   13   44 1
    49   14   45 1
    50   16   46 1
    51   16   47 1
    52   16   48 1
    53   17   49 1
    54   17   50 1
    55   17   51 1
    56   19   52 1
    57   22   53 1
    58   23   54 1
    59   27   55 1
    60   28   56 1
    61   31   57 1
    62   34   58 1
    63   37   59 1
    64   37   60 1
    65   37   61 1
    66   38   62 1
    67   38   63 1
    68   39   64 1
    69   39   65 1
    70   39   66 1
@<TRIPOS>PROPERTY_DATA
  Total_Score	| 13.4381
  Crash		| -1.4658
  Polar		| 2.2332
  FragIndex	| 1
  FragRMSD	| 0.228

