@<TRIPOS>MOLECULE
BindingDB_24461
 69 73 0 0 0
SMALL
NO_CHARGES


@<TRIPOS>ATOM
1    C        28.0088    3.6233  -10.7710  C     
2    C        27.1210    2.9993  -11.6582  C     
3    C        25.4166    2.9145   -9.9125  C     
4    C        26.3053    3.5526   -9.0253  C     
5    C        27.6134    3.8830   -9.4460  C     
6    C        25.8348    2.6193  -11.2299  C     
7    C        24.5160    2.5130  -13.1774  C     
8    C        24.3139    0.4021  -13.3605  C     
9    N        25.0326    1.9358  -12.1146  N     
10   N        24.8479    0.6569  -12.1844  N     
11   O        24.4634    3.7240  -13.3637  O     
12   C        24.0628   -0.9283  -13.9243  C     
13   C        24.0434    1.5582  -13.9964  C     
14   C        23.4354    1.7652  -15.2123  C     
15   O        22.8933    0.8218  -15.7638  O     
16   N        23.3682    2.9807  -15.7587  N     
17   C        22.7777    3.3899  -16.9286  C     
18   C        21.9236    5.2851  -18.2374  C     
19   C        21.7111    4.4403  -19.3443  C     
20   C        21.9919    3.0625  -19.2285  C     
21   C        22.5360    2.5468  -18.0389  C     
22   C        22.4602    4.7677  -17.0461  C     
23   F        21.6244    6.5579  -18.3159  F     
24   O        21.2526    4.9143  -20.5417  O     
25   C        22.1399    5.1927  -21.5657  C     
26   C        23.5350    4.9413  -21.5199  C     
27   C        24.3489    5.2302  -22.6324  C     
28   N        23.7954    5.7239  -23.7656  N     
29   C        21.5937    5.7371  -22.7615  C     
30   C        22.4682    5.9850  -23.8629  C     
31   C        20.2470    6.0841  -22.9239  C     
32   C        19.8042    6.6312  -24.0815  C     
33   C        20.6465    6.8291  -25.1440  C     
34   C        21.9627    6.5540  -25.0336  C     
35   O        20.1637    7.3991  -26.2608  O     
36   C        19.5172    6.4636  -27.1658  C     
37   C        24.7458   -0.1741  -11.0163  C     
38   C        26.0034   -1.0503  -10.6739  C     
39   C        27.1650   -0.2416  -10.0030  C     
40   C        25.6571   -2.2536   -9.7338  C     
41   H        28.9595    3.8420  -11.0838  H     
42   H        27.4218    2.7640  -12.6122  H     
43   H        24.4896    2.6323   -9.5726  H     
44   H        26.0143    3.7640   -8.0625  H     
45   H        28.2760    4.2938   -8.7954  H     
46   H        24.5110   -1.7117  -13.3104  H     
47   H        24.5072   -1.0134  -14.9133  H     
48   H        22.9870   -1.1138  -14.0092  H     
49   H        23.7413    3.6933  -15.2311  H     
50   H        21.8223    2.4382  -20.0190  H     
51   H        22.7765    1.5615  -17.9960  H     
52   H        22.6444    5.4025  -16.2649  H     
53   H        23.9807    4.5722  -20.6789  H     
54   H        25.3635    5.1020  -22.5950  H     
55   H        19.6046    5.9431  -22.1868  H     
56   H        18.8561    6.9061  -24.1525  H     
57   H        22.5688    6.7471  -25.7939  H     
58   H        20.2026    5.6728  -27.4947  H     
59   H        19.1821    6.9991  -28.0525  H     
60   H        18.6439    6.0005  -26.6924  H     
61   H        24.4860    0.4378  -10.1380  H     
62   H        23.9008   -0.8732  -11.1247  H     
63   H        26.3723   -1.4885  -11.6118  H     
64   H        27.5611    0.4875  -10.7064  H     
65   H        27.9967   -0.8984   -9.7409  H     
66   H        26.8315    0.2443   -9.0809  H     
67   H        25.4273   -1.8880   -8.7281  H     
68   H        26.5075   -2.9402   -9.6719  H     
69   H        24.7904   -2.8285  -10.1058  H     
@<TRIPOS>BOND
     1    1    2 2
     2    1    5 1
     3    2    6 1
     4    3    4 1
     5    3    6 2
     6    4    5 2
     7    6    9 1
     8    7    9 1
     9    7   11 2
    10    7   13 1
    11    8   10 1
    12    8   12 1
    13    8   13 2
    14    9   10 1
    15   10   37 1
    16   13   14 1
    17   14   15 2
    18   14   16 am
    19   16   17 1
    20   17   21 2
    21   17   22 1
    22   18   19 1
    23   18   22 2
    24   18   23 1
    25   19   20 2
    26   19   24 1
    27   20   21 1
    28   24   25 1
    29   25   26 1
    30   25   29 2
    31   26   27 2
    32   27   28 1
    33   28   30 2
    34   29   30 1
    35   29   31 1
    36   30   34 1
    37   31   32 2
    38   32   33 1
    39   33   34 2
    40   33   35 1
    41   35   36 1
    42   37   38 1
    43   38   39 1
    44   38   40 1
    45    1   41 1
    46    2   42 1
    47    3   43 1
    48    4   44 1
    49    5   45 1
    50   12   46 1
    51   12   47 1
    52   12   48 1
    53   16   49 1
    54   20   50 1
    55   21   51 1
    56   22   52 1
    57   26   53 1
    58   27   54 1
    59   31   55 1
    60   32   56 1
    61   34   57 1
    62   36   58 1
    63   36   59 1
    64   36   60 1
    65   37   61 1
    66   37   62 1
    67   38   63 1
    68   39   64 1
    69   39   65 1
    70   39   66 1
    71   40   67 1
    72   40   68 1
    73   40   69 1
@<TRIPOS>PROPERTY_DATA
  Total_Score	| 11.5615
  Crash		| -3.2880
  Polar		| 2.1871
  FragIndex	| 1
  FragRMSD	| 0.235

