@<TRIPOS>MOLECULE
BindingDB_50077537
 28 29 0 0 0
SMALL
NO_CHARGES


@<TRIPOS>ATOM
1    N        26.6694   42.3627   13.6862  N     
2    C        26.9862   43.1144   14.7833  C     
3    C        27.4817   43.2868   17.2013  C     
4    N        28.2170   43.4777   19.5714  N     
5    C        27.6210   44.6930   17.0816  C     
6    C        27.1573   42.5196   16.0587  C     
7    O        26.4995   42.8893   12.5019  O     
8    O        26.5242   41.1691   13.7353  O     
9    C        27.6451   42.6085   18.5154  C     
10   C        27.9390   45.5492   18.2588  C     
11   C        27.1572   44.5161   14.6860  C     
12   C        27.4733   45.2929   15.8147  C     
13   C        27.6566   44.8501   19.6182  C     
14   O        27.6436   45.1921   22.0504  O     
15   C        28.2516   45.6186   20.8298  C     
16   H        28.0725   43.0179   20.4736  H     
17   H        29.2238   43.5515   19.4093  H     
18   H        27.0497   41.5067   16.1631  H     
19   H        26.6762   42.2285   18.8476  H     
20   H        28.3204   41.7571   18.4039  H     
21   H        28.9935   45.8355   18.1957  H     
22   H        27.3352   46.4602   18.2175  H     
23   H        27.0555   44.9934   13.7863  H     
24   H        27.5850   46.3037   15.7070  H     
25   H        26.5718   44.7896   19.7488  H     
26   H        27.5274   44.2177   21.9825  H     
27   H        29.3329   45.4697   20.8865  H     
28   H        28.0695   46.6932   20.7398  H     
@<TRIPOS>BOND
     1    1    2 am
     2    1    7 1
     3    1    8 2
     4    2    6 1
     5    2   11 2
     6    3    5 1
     7    3    6 2
     8    3    9 1
     9    4    9 1
    10    4   13 1
    11    5   10 1
    12    5   12 2
    13   10   13 1
    14   11   12 1
    15   13   15 1
    16   14   15 1
    17    4   16 1
    18    4   17 1
    19    6   18 1
    20    9   19 1
    21    9   20 1
    22   10   21 1
    23   10   22 1
    24   11   23 1
    25   12   24 1
    26   13   25 1
    27   14   26 1
    28   15   27 1
    29   15   28 1
@<TRIPOS>PROPERTY_DATA
  Total_Score	| 7.5580
  Crash		| -0.3527
  Polar		| 3.6373
  FragIndex	| 1
  FragRMSD	| 0.041

