@<TRIPOS>MOLECULE
BindingDB_50080523
 28 29 0 0 0
SMALL
NO_CHARGES


@<TRIPOS>ATOM
1    N        26.7930   41.3398   13.5385  N     
2    N        26.6938   40.1880   13.4432  N     
3    N        27.4703   43.5898   19.7195  N     
4    C        27.5666   43.3008   17.2649  C     
5    C        27.7987   44.7014   17.1540  C     
6    N        26.9139   42.5259   13.6623  N     
7    C        27.5932   42.6325   18.5922  C     
8    C        27.3044   42.5527   16.0840  C     
9    C        28.1766   45.5159   18.3328  C     
10   C        27.6494   45.3319   15.8951  C     
11   C        27.1791   43.1842   14.8169  C     
12   C        28.4712   44.6898   19.6259  C     
13   C        27.3378   44.5827   14.7403  C     
14   F        28.3365   44.8828   22.0356  F     
15   C        28.5405   45.6224   20.8690  C     
16   H        26.9100   39.6362   14.1676  H     
17   H        26.5149   43.9864   19.7150  H     
18   H        27.6292   43.0879   20.5960  H     
19   H        28.5158   42.0585   18.6676  H     
20   H        26.7610   41.9429   18.6438  H     
21   H        27.1756   41.5356   16.1477  H     
22   H        29.0748   46.0993   18.0945  H     
23   H        27.3492   46.2274   18.5083  H     
24   H        27.7933   46.3473   15.8011  H     
25   H        29.4734   44.2317   19.5344  H     
26   H        27.2382   45.0746   13.8337  H     
27   H        29.5567   46.0847   20.9408  H     
28   H        27.7901   46.4386   20.8257  H     
@<TRIPOS>BOND
     1    1    2 2
     2    1    6 2
     3    3    7 1
     4    3   12 1
     5    4    5 1
     6    4    7 1
     7    4    8 2
     8    5    9 1
     9    5   10 2
    10    6   11 1
    11    8   11 1
    12    9   12 1
    13   10   13 1
    14   11   13 2
    15   12   15 1
    16   14   15 1
    17    2   16 1
    18    3   17 1
    19    3   18 1
    20    7   19 1
    21    7   20 1
    22    8   21 1
    23    9   22 1
    24    9   23 1
    25   10   24 1
    26   12   25 1
    27   13   26 1
    28   15   27 1
    29   15   28 1
@<TRIPOS>PROPERTY_DATA
  Total_Score	| 6.7093
  Crash		| -0.7592
  Polar		| 2.3898
  FragIndex	| 1
  FragRMSD	| 0.387

