@<TRIPOS>MOLECULE
BindingDB_12014
 34 35 0 0 0
SMALL
NO_CHARGES


@<TRIPOS>ATOM
1    C        -1.1042    6.6673   15.1311  C     
2    C        -1.3481    7.9115   15.7408  C     
3    C        -2.1740    8.8561   15.1014  C     
4    C        -2.7664    8.5497   13.8620  C     
5    C        -2.5426    7.2940   13.2638  C     
6    C        -1.6981    6.3319   13.8868  C     
7    C        -1.3892    5.0148   13.2517  C     
8    N        -2.2360    3.9675   13.7340  N     
9    C        -3.5378    3.8409   13.5173  C     
10   O        -4.1012    4.6073   12.7409  O     
11   C        -4.2922    2.9280   14.2546  C     
12   C        -5.6533    3.1896   14.5704  C     
13   C        -3.7115    1.7432   14.7795  C     
14   C        -4.4408    0.8813   15.6163  C     
15   C        -5.7826    1.1745   15.9452  C     
16   C        -6.3871    2.3314   15.4110  C     
17   S        -6.6483    0.1501   17.0492  S     
18   O        -6.3986   -1.3409   16.5628  O     
19   O        -6.0987    0.2241   18.5383  O     
20   N        -8.3181    0.3345   17.0322  N     
21   F        -3.1335    7.0523   12.1218  F     
22   H        -0.4868    6.0047   15.6058  H     
23   H        -0.9120    8.1355   16.6407  H     
24   H        -2.3423    9.7616   15.5445  H     
25   H        -3.3495    9.2490   13.3935  H     
26   H        -1.4404    5.0417   12.1665  H     
27   H        -0.3626    4.7648   13.5105  H     
28   H        -1.8249    3.3320   14.3373  H     
29   H        -6.1106    4.0413   14.2275  H     
30   H        -2.7380    1.4991   14.5641  H     
31   H        -3.9812    0.0451   15.9929  H     
32   H        -7.3537    2.5725   15.6497  H     
33   H        -8.8896   -0.4346   16.8727  H     
34   H        -8.7120    1.2011   17.2106  H     
@<TRIPOS>BOND
     1    1    2 2
     2    1    6 1
     3    2    3 1
     4    3    4 2
     5    4    5 1
     6    5    6 2
     7    5   21 1
     8    6    7 1
     9    7    8 1
    10    8    9 am
    11    9   10 2
    12    9   11 1
    13   11   12 1
    14   11   13 2
    15   12   16 2
    16   13   14 1
    17   14   15 2
    18   15   16 1
    19   15   17 1
    20   17   18 2
    21   17   19 2
    22   17   20 am
    23    1   22 1
    24    2   23 1
    25    3   24 1
    26    4   25 1
    27    7   26 1
    28    7   27 1
    29    8   28 1
    30   12   29 1
    31   13   30 1
    32   14   31 1
    33   16   32 1
    34   20   33 1
    35   20   34 1
@<TRIPOS>PROPERTY_DATA
  Total_Score	| 2.6487
  Crash		| -1.5004
  Polar		| 1.7103
  FragIndex	| 1
  FragRMSD	| 1.165

