@<TRIPOS>MOLECULE
BindingDB_12022
 34 35 0 0 0
SMALL
NO_CHARGES


@<TRIPOS>ATOM
1    C        -1.1970    6.6445   15.0285  C     
2    C        -1.4535    7.9060   15.5945  C     
3    C        -2.1119    8.8972   14.8426  C     
4    C        -2.4958    8.6296   13.5158  C     
5    C        -2.2202    7.3738   12.9448  C     
6    C        -1.5661    6.3689   13.6944  C     
7    C        -1.2818    5.0361   13.1041  C     
8    N        -2.1066    4.0262   13.6889  N     
9    C        -3.3933    3.8297   13.4304  C     
10   O        -3.9453    4.4938   12.5606  O     
11   C        -4.1445    2.9393   14.1964  C     
12   C        -5.5453    3.1152   14.3377  C     
13   C        -3.5385    1.8649   14.8982  C     
14   C        -4.2950    1.0165   15.7264  C     
15   C        -5.6766    1.2316   15.8879  C     
16   C        -6.2963    2.2805   15.1802  C     
17   S        -6.5788    0.2595   17.0141  S     
18   O        -6.4762   -1.2162   16.4191  O     
19   O        -5.9006    0.2205   18.4552  O     
20   N        -8.2123    0.6255   17.1210  N     
21   F        -2.3685   10.0598   15.3762  F     
22   F        -3.1059    9.5431   12.8033  F     
23   F        -1.0835    8.1475   16.8216  F     
24   H        -0.7180    5.9311   15.5843  H     
25   H        -2.4920    7.2003   11.9766  H     
26   H        -1.4100    5.0297   12.0195  H     
27   H        -0.2370    4.7854   13.2944  H     
28   H        -1.6975    3.4709   14.3681  H     
29   H        -6.0333    3.8793   13.8525  H     
30   H        -2.5364    1.6823   14.8104  H     
31   H        -3.8233    0.2590   16.2310  H     
32   H        -7.2950    2.4562   15.2822  H     
33   H        -8.8596   -0.0846   17.2602  H     
34   H        -8.4993    1.5543   17.1099  H     
@<TRIPOS>BOND
     1    1    2 2
     2    1    6 1
     3    2    3 1
     4    2   23 1
     5    3    4 2
     6    3   21 1
     7    4    5 1
     8    4   22 1
     9    5    6 2
    10    6    7 1
    11    7    8 1
    12    8    9 am
    13    9   10 2
    14    9   11 1
    15   11   12 1
    16   11   13 2
    17   12   16 2
    18   13   14 1
    19   14   15 2
    20   15   16 1
    21   15   17 1
    22   17   18 2
    23   17   19 2
    24   17   20 am
    25    1   24 1
    26    5   25 1
    27    7   26 1
    28    7   27 1
    29    8   28 1
    30   12   29 1
    31   13   30 1
    32   14   31 1
    33   16   32 1
    34   20   33 1
    35   20   34 1
@<TRIPOS>PROPERTY_DATA
  Total_Score	| 2.9613
  Crash		| -1.6750
  Polar		| 2.1107
  FragIndex	| 1
  FragRMSD	| 1.215

