@<TRIPOS>MOLECULE
BindingDB_50337283
 29 30 0 0 0
SMALL
NO_CHARGES


@<TRIPOS>ATOM
1    C        23.7427  -30.0273   61.9990  C     
2    C        24.1449  -30.6392   60.7892  C     
3    C        25.1661  -30.0818   60.0023  C     
4    C        25.8002  -28.8975   60.4108  C     
5    C        25.4164  -28.2472   61.6018  C     
6    C        24.3686  -28.8131   62.3730  C     
7    N        26.0692  -27.0915   61.8928  N     
8    C        25.8520  -26.2594   62.9441  C     
9    C        25.9768  -26.6788   64.2866  C     
10   C        25.6622  -25.7967   65.3348  C     
11   C        25.2329  -24.4767   65.0639  C     
12   C        25.1792  -24.0473   63.7162  C     
13   C        25.4974  -24.9255   62.6677  C     
14   C        22.7632  -30.6392   62.8246  C     
15   O        22.2831  -30.0307   63.9327  O     
16   O        22.3808  -31.9237   62.6285  O     
17   C        24.8025  -23.5481   66.1375  C     
18   F        25.5508  -22.3964   66.0738  F     
19   F        23.4750  -23.2433   65.9513  F     
20   F        24.9185  -24.0481   67.4145  F     
21   H        23.6974  -31.4978   60.4664  H     
22   H        25.4497  -30.5394   59.1324  H     
23   H        26.5428  -28.5081   59.8230  H     
24   H        24.0599  -28.3384   63.2225  H     
25   H        26.6652  -26.7558   61.2029  H     
26   H        26.2753  -27.6331   64.5052  H     
27   H        25.7244  -26.1365   66.2950  H     
28   H        24.8798  -23.0961   63.4871  H     
29   H        25.4174  -24.6003   61.7002  H     
@<TRIPOS>BOND
     1    1    2 2
     2    1    6 1
     3    1   14 1
     4    2    3 1
     5    3    4 2
     6    4    5 1
     7    5    6 2
     8    5    7 1
     9    7    8 1
    10    8    9 2
    11    8   13 1
    12    9   10 1
    13   10   11 2
    14   11   12 1
    15   11   17 1
    16   12   13 2
    17   14   15 2
    18   14   16 1
    19   17   18 1
    20   17   19 1
    21   17   20 1
    22    2   21 1
    23    3   22 1
    24    4   23 1
    25    6   24 1
    26    7   25 1
    27    9   26 1
    28   10   27 1
    29   12   28 1
    30   13   29 1
@<TRIPOS>PROPERTY_DATA
  Total_Score	| 3.1044
  Crash		| -1.8314
  Polar		| 1.4251
  FragIndex	| 1
  FragRMSD	| 0.693

