@<TRIPOS>MOLECULE
BindingDB_50337288
 29 30 0 0 0
SMALL
NO_CHARGES


@<TRIPOS>ATOM
1    C        24.4267  -24.3172   63.7891  C     
2    C        24.8889  -24.0930   65.1082  C     
3    C        25.6129  -25.0844   65.7915  C     
4    C        25.9185  -26.2970   65.1564  C     
5    C        25.4648  -26.5570   63.8509  C     
6    C        24.7040  -25.5679   63.1842  C     
7    N        25.7695  -27.7742   63.3413  N     
8    C        25.3274  -28.2909   62.1730  C     
9    C        26.0501  -28.0821   60.9864  C     
10   C        25.6169  -28.6740   59.7888  C     
11   C        24.4539  -29.4745   59.7528  C     
12   C        23.7471  -29.6996   60.9561  C     
13   C        24.1842  -29.1132   62.1588  C     
14   C        23.6975  -23.3186   63.0941  C     
15   O        23.4329  -22.1105   63.6409  O     
16   O        23.2241  -23.5276   61.8453  O     
17   C        24.0031  -30.0434   58.4628  C     
18   H        24.7058  -23.2058   65.5858  H     
19   H        25.9213  -24.9256   66.7510  H     
20   H        26.4527  -27.0029   65.6653  H     
21   H        24.3415  -25.7683   62.2487  H     
22   H        26.3078  -28.3658   63.8962  H     
23   H        26.9015  -27.5165   60.9956  H     
24   H        26.1697  -28.5301   58.9453  H     
25   H        22.9120  -30.2905   60.9688  H     
26   H        23.6556  -29.2784   63.0215  H     
27   H        23.7385  -29.2323   57.7829  H     
28   H        23.1325  -30.6913   58.5798  H     
29   H        24.8051  -30.6306   58.0134  H     
@<TRIPOS>BOND
     1    1    2 2
     2    1    6 1
     3    1   14 1
     4    2    3 1
     5    3    4 2
     6    4    5 1
     7    5    6 2
     8    5    7 1
     9    7    8 1
    10    8    9 2
    11    8   13 1
    12    9   10 1
    13   10   11 2
    14   11   12 1
    15   11   17 1
    16   12   13 2
    17   14   15 2
    18   14   16 1
    19    2   18 1
    20    3   19 1
    21    4   20 1
    22    6   21 1
    23    7   22 1
    24    9   23 1
    25   10   24 1
    26   12   25 1
    27   13   26 1
    28   17   27 1
    29   17   28 1
    30   17   29 1
@<TRIPOS>PROPERTY_DATA
  Total_Score	| 1.8686
  Crash		| -1.4159
  Polar		| 0.0000
  FragIndex	| 1
  FragRMSD	| 1.100

