@<TRIPOS>MOLECULE
BindingDB_50337281
 28 29 0 0 0
SMALL
NO_CHARGES


@<TRIPOS>ATOM
1    C        25.4790  -22.9714   64.0147  C     
2    C        25.4520  -23.4661   65.3406  C     
3    C        25.3740  -24.8474   65.5918  C     
4    C        25.2969  -25.7548   64.5206  C     
5    C        25.3123  -25.2858   63.1845  C     
6    C        25.4265  -23.9013   62.9505  C     
7    N        25.2134  -26.0733   62.0846  N     
8    C        24.9523  -27.3971   62.0577  C     
9    C        23.6492  -27.8721   62.3092  C     
10   C        23.3830  -29.2496   62.2730  C     
11   C        24.4165  -30.1851   62.0138  C     
12   C        25.7108  -29.6813   61.7214  C     
13   C        25.9773  -28.3036   61.7358  C     
14   C        25.5480  -21.5780   63.7472  C     
15   O        25.7341  -20.6677   64.7291  O     
16   O        25.4031  -21.0799   62.4982  O     
17   N        24.1783  -31.5215   62.0831  N     
18   O        25.0694  -32.3316   62.0541  O     
19   O        22.9864  -32.0081   62.3070  O     
20   H        25.4926  -22.8265   66.1351  H     
21   H        25.3694  -25.1938   66.5527  H     
22   H        25.2329  -26.7579   64.7251  H     
23   H        25.4475  -23.5677   61.9822  H     
24   H        25.2948  -25.6382   61.2231  H     
25   H        22.8922  -27.2162   62.5245  H     
26   H        22.4314  -29.5654   62.4801  H     
27   H        26.4831  -30.3203   61.5072  H     
28   H        26.9209  -27.9688   61.5423  H     
@<TRIPOS>BOND
     1    1    2 2
     2    1    6 1
     3    1   14 1
     4    2    3 1
     5    3    4 2
     6    4    5 1
     7    5    6 2
     8    5    7 1
     9    7    8 1
    10    8    9 2
    11    8   13 1
    12    9   10 1
    13   10   11 2
    14   11   12 1
    15   11   17 am
    16   12   13 2
    17   14   15 2
    18   14   16 1
    19   17   18 2
    20   17   19 1
    21    2   20 1
    22    3   21 1
    23    4   22 1
    24    6   23 1
    25    7   24 1
    26    9   25 1
    27   10   26 1
    28   12   27 1
    29   13   28 1
@<TRIPOS>PROPERTY_DATA
  Total_Score	| 1.6201
  Crash		| -1.1327
  Polar		| 0.9052
  FragIndex	| 1
  FragRMSD	| 0.987

