@<TRIPOS>MOLECULE
BindingDB_50337282
 31 32 0 0 0
SMALL
NO_CHARGES


@<TRIPOS>ATOM
1    C        25.9150  -29.4247   61.1016  C     
2    C        25.0520  -30.5327   60.9208  C     
3    C        23.7571  -30.5330   61.4687  C     
4    C        23.3069  -29.4321   62.2047  C     
5    C        24.1459  -28.3193   62.4098  C     
6    C        25.4465  -28.3243   61.8554  C     
7    N        23.6142  -27.2972   63.1178  N     
8    C        24.2137  -26.1390   63.4573  C     
9    C        23.7916  -24.9421   62.8517  C     
10   C        24.3251  -23.7173   63.2588  C     
11   C        25.2936  -23.6376   64.2996  C     
12   C        25.6757  -24.8597   64.9221  C     
13   C        25.1512  -26.0957   64.5098  C     
14   C        27.2316  -29.4296   60.5766  C     
15   O        28.0551  -28.3646   60.6991  O     
16   O        27.7057  -30.4693   59.8547  O     
17   C        25.8490  -22.4007   64.6786  C     
18   O        26.6389  -22.3457   65.6114  O     
19   C        25.5808  -21.1350   64.0128  C     
20   H        25.3625  -31.3586   60.4057  H     
21   H        23.1483  -31.3450   61.3451  H     
22   H        22.3627  -29.4542   62.6008  H     
23   H        26.0467  -27.5084   62.0059  H     
24   H        22.6765  -27.3784   63.3540  H     
25   H        23.0842  -24.9588   62.1114  H     
26   H        23.9893  -22.8796   62.7832  H     
27   H        26.3476  -24.8640   65.6932  H     
28   H        25.4140  -26.9602   64.9935  H     
29   H        25.8651  -21.1939   62.9605  H     
30   H        26.1390  -20.3100   64.4624  H     
31   H        24.5210  -20.8933   64.0920  H     
@<TRIPOS>BOND
     1    1    2 2
     2    1    6 1
     3    1   14 1
     4    2    3 1
     5    3    4 2
     6    4    5 1
     7    5    6 2
     8    5    7 1
     9    7    8 1
    10    8    9 2
    11    8   13 1
    12    9   10 1
    13   10   11 2
    14   11   12 1
    15   11   17 1
    16   12   13 2
    17   14   15 2
    18   14   16 1
    19   17   18 2
    20   17   19 1
    21    2   20 1
    22    3   21 1
    23    4   22 1
    24    6   23 1
    25    7   24 1
    26    9   25 1
    27   10   26 1
    28   12   27 1
    29   13   28 1
    30   19   29 1
    31   19   30 1
    32   19   31 1
@<TRIPOS>PROPERTY_DATA
  Total_Score	| 3.7485
  Crash		| -1.1740
  Polar		| 0.6616
  FragIndex	| 1
  FragRMSD	| 1.458

