@<TRIPOS>MOLECULE
BindingDB_50386767
 54 57 0 0 0
SMALL
NO_CHARGES


@<TRIPOS>ATOM
1    N        54.7806  114.0845   -9.9615  N     
2    C        54.8101  114.2844  -11.2898  C     
3    C        53.5068  114.1365  -11.7744  C     
4    N        52.6990  113.8331  -10.7277  N     
5    C        55.8497  114.2694   -9.0177  C     
6    N        55.8452  114.6003  -12.1229  N     
7    C        53.5022  113.7914   -9.6437  C     
8    C        53.3026  114.3314  -13.1400  C     
9    N        54.3339  114.6336  -13.9330  N     
10   C        55.8617  115.7036   -8.4466  C     
11   C        55.6005  114.7628  -13.4518  C     
12   O        55.6843  113.4016   -7.8900  O     
13   P        52.8945  113.0605   -5.0820  P     
14   C        56.2404  114.0226   -6.7240  C     
15   C        56.3979  115.5386   -7.0110  C     
16   C        55.3365  113.6704   -5.5109  C     
17   O        53.9479  113.9567   -5.8014  O     
18   O        52.1876  114.2463  -13.6278  O     
19   O        53.4547  112.2803   -3.8751  O     
20   O        51.6827  113.8650   -4.5792  O     
21   O        52.3840  112.0824   -6.0064  O     
22   C        51.2726  113.5858  -10.8079  C     
23   N        56.5992  115.0477  -14.2974  N     
24   O        56.6237  116.5950   -9.2598  O     
25   O        57.7635  115.9495   -6.8822  O     
26   C        48.8443  118.0982   -8.2162  C     
27   C        49.1758  115.4023   -9.0296  C     
28   F        48.6895  119.3375   -7.8413  F     
29   C        48.1156  117.5968   -9.3104  C     
30   C        49.7251  117.2577   -7.5140  C     
31   C        48.2857  116.2550   -9.7140  C     
32   C        49.8837  115.9155   -7.9182  C     
33   O        49.2032  114.0862   -9.4362  O     
34   C        50.4440  113.3521   -9.5001  C     
35   H        56.8165  114.0320   -9.4792  H     
36   H        53.2042  113.5689   -8.6957  H     
37   H        54.1894  114.7712  -14.8818  H     
38   H        54.8408  116.0967   -8.3932  H     
39   H        57.2224  113.5700   -6.5569  H     
40   H        55.8037  116.1472   -6.3196  H     
41   H        55.5104  112.6118   -5.2814  H     
42   H        55.6487  114.2627   -4.6477  H     
43   H        50.8203  114.4301  -11.3400  H     
44   H        51.1490  112.7024  -11.4438  H     
45   H        56.4155  115.1559  -15.2467  H     
46   H        57.5098  115.1270  -13.9686  H     
47   H        57.5439  116.2499   -9.2443  H     
48   H        57.7495  116.9210   -7.0114  H     
49   H        47.4653  118.1998   -9.8237  H     
50   H        50.2505  117.6165   -6.7122  H     
51   H        47.7415  115.8933  -10.5012  H     
52   H        50.5114  115.3131   -7.3885  H     
53   H        50.1418  112.3027   -9.4743  H     
54   H        51.0143  113.5121   -8.5843  H     
@<TRIPOS>BOND
     1    1    2 1
     2    5    1 1
     3    1    7 1
     4    2    3 2
     5    2    6 1
     6    3    4 1
     7    3    8 1
     8    4    7 2
     9    4   22 1
    10    5   10 1
    11    5   12 1
    12    6   11 2
    13    8    9 1
    14    8   18 2
    15    9   11 1
    16   10   15 1
    17   10   24 1
    18   11   23 1
    19   12   14 1
    20   13   17 1
    21   13   19 1
    22   13   20 1
    23   13   21 2
    24   14   15 1
    25   14   16 1
    26   15   25 1
    27   16   17 1
    28   22   34 1
    29   26   28 1
    30   26   29 1
    31   26   30 2
    32   27   31 1
    33   27   32 2
    34   27   33 1
    35   29   31 2
    36   30   32 1
    37   33   34 1
    38    5   35 1
    39    7   36 1
    40    9   37 1
    41   10   38 1
    42   14   39 1
    43   15   40 1
    44   16   41 1
    45   16   42 1
    46   22   43 1
    47   22   44 1
    48   23   45 1
    49   23   46 1
    50   24   47 1
    51   25   48 1
    52   29   49 1
    53   30   50 1
    54   31   51 1
    55   32   52 1
    56   34   53 1
    57   34   54 1
@<TRIPOS>PROPERTY_DATA
  Total_Score	| 9.8176
  Crash		| -0.9462
  Polar		| 6.2864
  FragIndex	| 1
  FragRMSD	| 0.779

