@<TRIPOS>MOLECULE
BindingDB_50316302
 48 50 0 0 0
SMALL
NO_CHARGES


@<TRIPOS>ATOM
1    N        55.0257  114.2920  -10.0432  N     
2    C        54.9990  114.3802  -11.3846  C     
3    C        53.6672  114.3289  -11.8045  C     
4    N        52.9020  114.1959  -10.6997  N     
5    C        56.1944  114.2750   -9.2030  C     
6    N        56.0179  114.5177  -12.2846  N     
7    C        53.7401  114.1967   -9.6423  C     
8    P        53.0142  114.0811   -2.7458  P     
9    C        53.4165  114.4217  -13.1718  C     
10   N        54.4293  114.5828  -14.0244  N     
11   C        56.6262  115.6633   -8.6699  C     
12   C        55.7251  114.6254  -13.6076  C     
13   O        55.9523  113.4250   -8.0680  O     
14   P        52.6826  113.5658   -5.3193  P     
15   O        52.0551  114.0158   -3.9675  O     
16   O        54.3197  114.9134   -2.9109  O     
17   P        54.1414  116.4261   -3.2246  P     
18   C        56.1931  114.1600   -6.8612  C     
19   C        56.1062  115.6586   -7.2284  C     
20   O        53.4033  112.6646   -2.2740  O     
21   C        55.2249  113.6929   -5.7465  C     
22   O        52.2481  114.5902   -1.6365  O     
23   O        53.9224  114.2882   -5.9268  O     
24   O        52.2830  114.3712  -13.6179  O     
25   O        52.7491  112.0350   -5.4473  O     
26   O        55.4732  116.8996   -3.8347  O     
27   O        51.6440  113.8871   -6.2621  O     
28   O        53.1270  116.7136   -4.2072  O     
29   N        56.7041  114.7843  -14.5101  N     
30   C        51.4828  114.0604  -10.5686  C     
31   O        56.1252  116.7718   -9.4161  O     
32   O        53.9222  117.2747   -1.9561  O     
33   O        56.8675  116.4930   -6.3554  O     
34   H        57.0302  113.8408   -9.7596  H     
35   H        53.4384  114.1105   -8.6703  H     
36   H        54.2469  114.6792  -14.9740  H     
37   H        57.7194  115.7251   -8.6616  H     
38   H        57.2164  113.9260   -6.5468  H     
39   H        55.0709  116.0100   -7.2202  H     
40   H        55.6504  113.9772   -4.7861  H     
41   H        55.1757  112.6001   -5.7862  H     
42   H        57.6308  114.8142  -14.2249  H     
43   H        56.4805  114.9000  -15.4487  H     
44   H        51.0859  114.8778   -9.9646  H     
45   H        51.2495  113.1161  -10.0732  H     
46   H        50.9701  114.0692  -11.5278  H     
47   H        56.4524  116.6378  -10.3309  H     
48   H        57.7865  116.1536   -6.3991  H     
@<TRIPOS>BOND
     1    1    2 1
     2    5    1 1
     3    1    7 1
     4    2    3 2
     5    2    6 1
     6    3    9 1
     7    3    4 1
     8    4    7 2
     9    4   30 1
    10    5   11 1
    11    5   13 1
    12    6   12 2
    13    8   15 1
    14    8   16 1
    15    8   20 1
    16    8   22 2
    17    9   10 1
    18    9   24 2
    19   10   12 1
    20   11   19 1
    21   11   31 1
    22   12   29 1
    23   13   18 1
    24   14   23 1
    25   14   15 1
    26   14   25 1
    27   14   27 2
    28   16   17 1
    29   17   26 1
    30   17   28 2
    31   17   32 1
    32   18   21 1
    33   18   19 1
    34   19   33 1
    35   21   23 1
    36    5   34 1
    37    7   35 1
    38   10   36 1
    39   11   37 1
    40   18   38 1
    41   19   39 1
    42   21   40 1
    43   21   41 1
    44   29   42 1
    45   29   43 1
    46   30   44 1
    47   30   45 1
    48   30   46 1
    49   31   47 1
    50   33   48 1
@<TRIPOS>PROPERTY_DATA
  Total_Score	| 8.2497
  Crash		| -0.7290
  Polar		| 7.8109
  FragIndex	| 1
  FragRMSD	| 0.870

