@<TRIPOS>MOLECULE
BindingDB_50386763
 53 56 0 0 0
SMALL
NO_CHARGES


@<TRIPOS>ATOM
1    N        54.9700  114.0419   -9.9569  N     
2    C        55.0152  114.1745  -11.2943  C     
3    C        53.7061  114.0931  -11.7807  C     
4    N        52.8907  113.8927  -10.7200  N     
5    C        56.0271  114.2671   -9.0062  C     
6    N        56.0617  114.4440  -12.1332  N     
7    C        53.6739  113.8565   -9.6270  C     
8    C        53.5054  114.3154  -13.1440  C     
9    N        54.5444  114.5864  -13.9346  N     
10   C        55.9227  115.6753   -8.3749  C     
11   C        55.8220  114.6452  -13.4559  C     
12   O        55.9596  113.3159   -7.9256  O     
13   P        52.5588  113.5250   -5.6854  P     
14   C        56.2388  113.9669   -6.6718  C     
15   C        56.4976  115.4660   -6.9605  C     
16   C        51.4575  113.8791  -10.6463  C     
17   C        55.0944  113.6651   -5.6644  C     
18   O        53.8697  114.2422   -6.1367  O     
19   O        52.3874  114.2981  -13.6420  O     
20   O        51.8755  114.0521   -4.3889  O     
21   O        52.7856  112.0070   -5.5374  O     
22   O        51.5978  113.7074   -6.7494  O     
23   N        56.8275  114.9192  -14.3031  N     
24   O        56.6129  116.6637   -9.1455  O     
25   O        57.8987  115.7529   -6.9292  O     
26   C        51.6783  108.6838  -11.3204  C     
27   C        50.8772  112.6801   -9.8405  C     
28   C        51.2098  111.3210  -10.3654  C     
29   Cl       51.9451  107.1090  -11.8850  Cl    
30   C        51.8968  108.9990   -9.9685  C     
31   C        51.2462  109.6937  -12.2006  C     
32   C        51.6710  110.3044   -9.4953  C     
33   C        51.0070  110.9984  -11.7277  C     
34   H        57.0133  114.1520   -9.4809  H     
35   H        53.3075  113.7661   -8.6809  H     
36   H        54.3885  114.7512  -14.8833  H     
37   H        54.8759  115.9809   -8.2883  H     
38   H        57.1547  113.5150   -6.2772  H     
39   H        55.9918  116.1249   -6.2463  H     
40   H        51.1370  114.7991  -10.1411  H     
41   H        50.9924  113.8796  -11.6321  H     
42   H        54.9909  112.5809   -5.5855  H     
43   H        55.3561  114.0831   -4.6897  H     
44   H        56.6397  115.0962  -15.2446  H     
45   H        57.7383  114.9421  -13.9743  H     
46   H        56.1768  116.6487  -10.0265  H     
47   H        57.9672  116.7273   -7.0504  H     
48   H        51.2272  112.7906   -8.8099  H     
49   H        49.7804  112.7663   -9.8282  H     
50   H        52.2286  108.2779   -9.3200  H     
51   H        51.1213  109.4898  -13.1942  H     
52   H        51.8275  110.4987   -8.5059  H     
53   H        50.6769  111.7068  -12.3863  H     
@<TRIPOS>BOND
     1    1    2 1
     2    5    1 1
     3    1    7 1
     4    2    3 2
     5    2    6 1
     6    3    4 1
     7    3    8 1
     8    4    7 2
     9    4   16 1
    10    5   10 1
    11    5   12 1
    12    6   11 2
    13    8    9 1
    14    8   19 2
    15    9   11 1
    16   10   15 1
    17   10   24 1
    18   11   23 1
    19   12   14 1
    20   13   18 1
    21   13   20 1
    22   13   21 1
    23   13   22 2
    24   14   15 1
    25   14   17 1
    26   15   25 1
    27   16   27 1
    28   17   18 1
    29   26   29 1
    30   26   30 1
    31   26   31 2
    32   27   28 1
    33   28   32 1
    34   28   33 2
    35   30   32 2
    36   31   33 1
    37    5   34 1
    38    7   35 1
    39    9   36 1
    40   10   37 1
    41   14   38 1
    42   15   39 1
    43   16   40 1
    44   16   41 1
    45   17   42 1
    46   17   43 1
    47   23   44 1
    48   23   45 1
    49   24   46 1
    50   25   47 1
    51   27   48 1
    52   27   49 1
    53   30   50 1
    54   31   51 1
    55   32   52 1
    56   33   53 1
@<TRIPOS>PROPERTY_DATA
  Total_Score	| 10.3159
  Crash		| -1.7654
  Polar		| 7.7414
  FragIndex	| 1
  FragRMSD	| 0.876

