@<TRIPOS>MOLECULE
BindingDB_50316308
 50 53 0 0 0
SMALL
NO_CHARGES


@<TRIPOS>ATOM
1    N        54.4935  114.8113  -10.0787  N     
2    C        54.8488  114.8520  -11.3710  C     
3    N        52.8301  113.8979  -11.2598  N     
4    C        53.7995  114.2979  -12.1210  C     
5    C        55.2034  115.1540   -8.8745  C     
6    N        55.9695  115.3419  -11.9795  N     
7    C        53.2499  114.3053  -10.0451  C     
8    C        53.9447  114.2942  -13.5025  C     
9    N        55.0278  114.8118  -14.0724  N     
10   C        56.7189  115.3950   -8.8974  C     
11   C        56.0517  115.3237  -13.3331  C     
12   O        55.0810  114.0158   -8.0154  O     
13   P        53.2506  113.6645   -4.2931  P     
14   C        56.0095  114.1530   -6.9374  C     
15   C        57.1088  115.1346   -7.4276  C     
16   C        51.5896  113.2074  -11.5089  C     
17   C        55.2676  114.5032   -5.5992  C     
18   O        53.8773  114.0961   -5.6609  O     
19   O        53.0478  113.9242  -14.2369  O     
20   O        51.7228  113.8538   -4.3051  O     
21   O        53.7956  114.4751   -3.1019  O     
22   O        53.4952  112.2616   -4.0736  O     
23   N        57.1205  115.8370  -13.9708  N     
24   C        51.5673  111.7975  -11.0039  C     
25   O        57.0536  116.7168   -9.3239  O     
26   O        58.4142  114.5784   -7.3044  O     
27   C        51.4873  110.6972  -11.8975  C     
28   C        51.5804  109.3658  -11.4375  C     
29   Cl       51.5945  108.0738  -12.5300  Cl    
30   C        51.7475  110.1812   -9.1546  C     
31   C        51.6493  111.5016   -9.6192  C     
32   C        51.7272  109.1100  -10.0622  C     
33   H        54.7024  116.0183   -8.4149  H     
34   H        52.7109  114.2364   -9.1888  H     
35   H        55.0888  114.8521  -15.0428  H     
36   H        57.2133  114.6641   -9.5445  H     
37   H        56.4436  113.1504   -6.8284  H     
38   H        57.0897  116.0741   -6.8708  H     
39   H        51.3820  113.2130  -12.5764  H     
40   H        50.7544  113.7540  -11.0487  H     
41   H        55.2897  115.5852   -5.4285  H     
42   H        55.8070  114.0250   -4.7873  H     
43   H        57.1430  115.8355  -14.9401  H     
44   H        57.8459  116.2346  -13.4634  H     
45   H        58.0330  116.7495   -9.3506  H     
46   H        59.0316  115.2726   -7.6154  H     
47   H        51.3971  110.8575  -12.8994  H     
48   H        51.8359  109.9847   -8.1568  H     
49   H        51.6281  112.2332   -8.9219  H     
50   H        51.8244  108.1500   -9.7185  H     
@<TRIPOS>BOND
     1    1    2 1
     2    5    1 1
     3    1    7 1
     4    2    4 2
     5    2    6 1
     6    3    7 2
     7    3   16 1
     8    3    4 1
     9    4    8 1
    10    5   10 1
    11    5   12 1
    12    6   11 2
    13    8    9 1
    14    8   19 2
    15    9   11 1
    16   10   15 1
    17   10   25 1
    18   11   23 1
    19   12   14 1
    20   13   18 1
    21   13   20 1
    22   13   21 1
    23   13   22 2
    24   14   17 1
    25   14   15 1
    26   15   26 1
    27   16   24 1
    28   17   18 1
    29   24   27 1
    30   24   31 2
    31   27   28 2
    32   28   29 1
    33   28   32 1
    34   30   31 1
    35   30   32 2
    36    5   33 1
    37    7   34 1
    38    9   35 1
    39   10   36 1
    40   14   37 1
    41   15   38 1
    42   16   39 1
    43   16   40 1
    44   17   41 1
    45   17   42 1
    46   23   43 1
    47   23   44 1
    48   25   45 1
    49   26   46 1
    50   27   47 1
    51   30   48 1
    52   31   49 1
    53   32   50 1
@<TRIPOS>PROPERTY_DATA
  Total_Score	| 7.9735
  Crash		| -1.8331
  Polar		| 7.0662
  FragIndex	| 1
  FragRMSD	| 1.183

