@<TRIPOS>MOLECULE
BindingDB_50386766
 54 57 0 0 0
SMALL
NO_CHARGES


@<TRIPOS>ATOM
1    N        54.7951  113.8014  -10.0438  N     
2    C        54.8103  114.0110  -11.3741  C     
3    C        53.4943  113.9593  -11.8499  C     
4    N        52.6942  113.6998  -10.7893  N     
5    C        55.8329  114.0955   -9.0897  C     
6    N        55.8468  114.3482  -12.2018  N     
7    C        53.5087  113.5557   -9.7179  C     
8    C        53.2840  114.2693  -13.1873  C     
9    N        54.3132  114.5939  -13.9702  N     
10   C        55.7153  115.5553   -8.5981  C     
11   C        55.5941  114.6306  -13.5068  C     
12   O        55.7418  113.2639   -7.9280  O     
13   P        52.4900  113.4232   -5.5935  P     
14   C        56.0818  114.0179   -6.7561  C     
15   C        56.2122  115.5160   -7.1530  C     
16   C        55.0318  113.7367   -5.6459  C     
17   O        53.7431  114.2425   -6.0555  O     
18   O        52.1574  114.2555  -13.6621  O     
19   O        51.8516  113.9624   -4.2924  O     
20   O        51.4221  113.5051   -6.7082  O     
21   O        52.8038  112.0163   -5.4372  O     
22   C        51.2404  113.7110  -10.7766  C     
23   N        56.5937  114.9636  -14.3314  N     
24   O        56.4461  116.4574   -9.4147  O     
25   O        57.5707  115.9499   -7.0098  O     
26   C        48.4701  118.4456   -8.4954  C     
27   C        49.0008  115.7477   -9.1735  C     
28   Cl       48.1832  120.0720   -8.1052  Cl    
29   C        49.4179  117.7111   -7.7552  C     
30   C        47.7707  117.8300   -9.5536  C     
31   C        49.6527  116.3551   -8.0695  C     
32   C        48.0450  116.4942   -9.8962  C     
33   O        49.1742  114.4142   -9.5086  O     
34   C        50.5256  113.8858   -9.4050  C     
35   H        56.8142  113.9313   -9.5358  H     
36   H        53.1973  113.3880   -8.7580  H     
37   H        54.1638  114.8166  -14.8999  H     
38   H        54.6680  115.8817   -8.6008  H     
39   H        57.0481  113.6350   -6.3850  H     
40   H        55.6009  116.1697   -6.5200  H     
41   H        55.0260  112.6447   -5.4542  H     
42   H        55.3282  114.2347   -4.7086  H     
43   H        50.9057  114.5305  -11.4092  H     
44   H        50.8827  112.7835  -11.2504  H     
45   H        56.3957  115.1806  -15.2605  H     
46   H        57.5104  114.9908  -13.9999  H     
47   H        56.2605  117.3582   -9.0591  H     
48   H        57.5464  116.9245   -7.1412  H     
49   H        49.9147  118.1410   -6.9754  H     
50   H        47.0621  118.3532  -10.0616  H     
51   H        50.2921  115.8030   -7.4901  H     
52   H        47.5390  116.0494  -10.6691  H     
53   H        50.4483  112.8873   -8.9419  H     
54   H        51.1291  114.5088   -8.7494  H     
@<TRIPOS>BOND
     1    1    2 1
     2    5    1 1
     3    1    7 1
     4    2    3 2
     5    2    6 1
     6    3    4 1
     7    3    8 1
     8    4    7 2
     9    4   22 1
    10    5   10 1
    11    5   12 1
    12    6   11 2
    13    8    9 1
    14    8   18 2
    15    9   11 1
    16   10   15 1
    17   10   24 1
    18   11   23 1
    19   12   14 1
    20   13   17 1
    21   13   19 1
    22   13   20 1
    23   13   21 2
    24   14   15 1
    25   14   16 1
    26   15   25 1
    27   16   17 1
    28   22   34 1
    29   26   28 1
    30   26   29 1
    31   26   30 2
    32   27   31 1
    33   27   32 2
    34   27   33 1
    35   29   31 2
    36   30   32 1
    37   33   34 1
    38    5   35 1
    39    7   36 1
    40    9   37 1
    41   10   38 1
    42   14   39 1
    43   15   40 1
    44   16   41 1
    45   16   42 1
    46   22   43 1
    47   22   44 1
    48   23   45 1
    49   23   46 1
    50   24   47 1
    51   25   48 1
    52   29   49 1
    53   30   50 1
    54   31   51 1
    55   32   52 1
    56   34   53 1
    57   34   54 1
@<TRIPOS>PROPERTY_DATA
  Total_Score	| 9.9165
  Crash		| -1.6641
  Polar		| 6.7616
  FragIndex	| 1
  FragRMSD	| 0.543

