@<TRIPOS>MOLECULE
BindingDB_50386768
 55 58 0 0 0
SMALL
NO_CHARGES


@<TRIPOS>ATOM
1    N        54.8288  113.8933  -10.0109  N     
2    C        54.8610  114.1220  -11.3352  C     
3    C        53.5516  114.0277  -11.8207  C     
4    N        52.7367  113.7148  -10.7796  N     
5    C        55.8735  114.1471   -9.0547  C     
6    N        55.8966  114.4328  -12.1671  N     
7    C        53.5455  113.5987   -9.7030  C     
8    C        53.3411  114.2927  -13.1777  C     
9    N        54.3781  114.5962  -13.9623  N     
10   C        55.7712  115.5898   -8.5284  C     
11   C        55.6554  114.6594  -13.4855  C     
12   O        55.8000  113.2900   -7.9067  O     
13   P        52.4132  113.4429   -5.6383  P     
14   C        56.0866  114.0300   -6.7050  C     
15   C        56.3736  115.4993   -7.1235  C     
16   N        48.2085  120.5841   -7.6979  N     
17   C        54.9469  113.8433   -5.6321  C     
18   C        48.3997  119.4941   -8.0180  C     
19   O        53.6660  114.2400   -6.1480  O     
20   O        52.2232  114.2506  -13.6703  O     
21   O        52.7588  111.9574   -5.4082  O     
22   O        51.7287  114.0193   -4.3633  O     
23   O        51.4241  113.4279   -6.6932  O     
24   C        51.2837  113.6178  -10.8009  C     
25   N        56.6678  114.9549  -14.3182  N     
26   O        56.4565  116.5317   -9.3434  O     
27   O        57.7917  115.7501   -7.1338  O     
28   C        48.6048  118.2570   -8.3685  C     
29   C        49.0605  115.5589   -9.1511  C     
30   C        49.5390  117.4690   -7.6601  C     
31   C        47.8911  117.6944   -9.4554  C     
32   C        49.7394  116.1222   -8.0331  C     
33   C        48.1218  116.3587   -9.8387  C     
34   O        49.1780  114.2404   -9.5469  O     
35   C        50.4737  113.6061   -9.4640  C     
36   H        56.8505  113.9820   -9.5059  H     
37   H        53.2465  113.3713   -8.7581  H     
38   H        54.2388  114.7892  -14.9063  H     
39   H        54.7259  115.9091   -8.4371  H     
40   H        57.0032  113.5882   -6.2760  H     
41   H        55.9333  116.2493   -6.4473  H     
42   H        54.9666  112.7823   -5.3179  H     
43   H        55.1458  114.4473   -4.7374  H     
44   H        50.9227  114.4525  -11.4091  H     
45   H        51.0216  112.7035  -11.3545  H     
46   H        56.4813  115.1334  -15.2573  H     
47   H        57.5814  115.0144  -13.9796  H     
48   H        56.0673  116.4375  -10.2329  H     
49   H        58.1618  115.0948   -7.7635  H     
50   H        50.0541  117.8529   -6.8649  H     
51   H        47.1927  118.2514   -9.9645  H     
52   H        50.3848  115.5579   -7.4821  H     
53   H        47.5836  115.9631  -10.6116  H     
54   H        50.2842  112.5635   -9.2002  H     
55   H        51.0372  114.0404   -8.6518  H     
@<TRIPOS>BOND
     1    1    2 1
     2    5    1 1
     3    1    7 1
     4    2    3 2
     5    2    6 1
     6    3    4 1
     7    3    8 1
     8    4    7 2
     9    4   24 1
    10    5   10 1
    11    5   12 1
    12    6   11 2
    13    8    9 1
    14    8   20 2
    15    9   11 1
    16   10   15 1
    17   10   26 1
    18   11   25 1
    19   12   14 1
    20   13   19 1
    21   13   21 1
    22   13   22 1
    23   13   23 2
    24   14   15 1
    25   14   17 1
    26   15   27 1
    27   16   18 3
    28   17   19 1
    29   18   28 1
    30   24   35 1
    31   28   30 2
    32   28   31 1
    33   29   32 2
    34   29   33 1
    35   29   34 1
    36   30   32 1
    37   31   33 2
    38   34   35 1
    39    5   36 1
    40    7   37 1
    41    9   38 1
    42   10   39 1
    43   14   40 1
    44   15   41 1
    45   17   42 1
    46   17   43 1
    47   24   44 1
    48   24   45 1
    49   25   46 1
    50   25   47 1
    51   26   48 1
    52   27   49 1
    53   30   50 1
    54   31   51 1
    55   32   52 1
    56   33   53 1
    57   35   54 1
    58   35   55 1
@<TRIPOS>PROPERTY_DATA
  Total_Score	| 10.1276
  Crash		| -1.5821
  Polar		| 6.8041
  FragIndex	| 1
  FragRMSD	| 0.883

