@<TRIPOS>MOLECULE
BindingDB_50386761
 57 60 0 0 0
SMALL
NO_CHARGES


@<TRIPOS>ATOM
1    N        55.0530  114.0744  -10.0444  N     
2    C        55.0248  114.3316  -11.3638  C     
3    C        53.7010  114.2361  -11.8081  C     
4    N        52.9298  113.9389  -10.7303  N     
5    C        56.1979  114.1919   -9.1756  C     
6    N        56.0542  114.5922  -12.2268  N     
7    C        53.7857  113.7697   -9.6987  C     
8    C        53.4737  114.4233  -13.1728  C     
9    N        54.4997  114.6693  -13.9955  N     
10   C        56.4122  115.6514   -8.7057  C     
11   C        55.7834  114.7508  -13.5484  C     
12   O        56.0483  113.3879   -7.9881  O     
13   P        52.4204  113.4064   -5.5563  P     
14   C        55.9780  114.2443   -6.8319  C     
15   C        55.6842  115.6653   -7.3539  C     
16   C        48.9148  120.0836   -6.4120  C     
17   C        54.9595  113.6984   -5.8004  C     
18   C        49.1304  118.8439   -7.2242  C     
19   O        53.6462  114.2506   -6.0321  O     
20   O        52.3560  114.3326  -13.6532  O     
21   O        51.7413  113.9132   -4.2684  O     
22   O        51.3261  113.4813   -6.6352  O     
23   O        52.7376  112.0158   -5.4025  O     
24   C        51.4996  113.7497  -10.6094  C     
25   N        56.7809  114.9704  -14.4189  N     
26   O        57.8046  115.9474   -8.5505  O     
27   F        47.9820  120.9592   -6.9317  F     
28   F        48.4872  119.7491   -5.1464  F     
29   F        50.0926  120.7880   -6.2935  F     
30   C        50.0600  117.8737   -6.7858  C     
31   C        48.4469  118.6122   -8.4455  C     
32   O        56.1558  116.6685   -6.4522  O     
33   C        49.6521  116.4922   -8.7817  C     
34   C        50.3209  116.7177   -7.5562  C     
35   C        48.7080  117.4526   -9.2073  C     
36   O        49.9448  115.4834   -9.6816  O     
37   C        50.8496  114.3990   -9.3517  C     
38   H        57.0847  113.8382   -9.7109  H     
39   H        53.5013  113.4711   -8.7676  H     
40   H        54.3431  114.7886  -14.9496  H     
41   H        55.9748  116.3868   -9.3912  H     
42   H        56.9727  114.2375   -6.3719  H     
43   H        54.6112  115.7991   -7.5198  H     
44   H        54.9613  112.6067   -5.8961  H     
45   H        55.3044  113.9654   -4.7959  H     
46   H        50.9822  114.1058  -11.5021  H     
47   H        51.3374  112.6643  -10.5692  H     
48   H        56.5794  115.0637  -15.3645  H     
49   H        57.6970  115.0143  -14.1091  H     
50   H        58.1828  115.9045   -9.4538  H     
51   H        50.5677  118.0240   -5.9091  H     
52   H        47.7649  119.2824   -8.8041  H     
53   H        55.9072  117.5226   -6.8632  H     
54   H        51.0345  116.0800   -7.2063  H     
55   H        48.2281  117.3233  -10.0967  H     
56   H        50.2824  113.6347   -8.8059  H     
57   H        51.6563  114.7472   -8.7096  H     
@<TRIPOS>BOND
     1    1    2 1
     2    5    1 1
     3    1    7 1
     4    2    3 2
     5    2    6 1
     6    3    4 1
     7    3    8 1
     8    4    7 2
     9    4   24 1
    10    5   10 1
    11    5   12 1
    12    6   11 2
    13    8    9 1
    14    8   20 2
    15    9   11 1
    16   10   15 1
    17   10   26 1
    18   11   25 1
    19   12   14 1
    20   13   19 1
    21   13   21 1
    22   13   22 1
    23   13   23 2
    24   14   15 1
    25   14   17 1
    26   15   32 1
    27   16   18 1
    28   16   27 1
    29   16   28 1
    30   16   29 1
    31   17   19 1
    32   18   30 2
    33   18   31 1
    34   24   37 1
    35   30   34 1
    36   31   35 2
    37   33   34 2
    38   33   35 1
    39   33   36 1
    40   36   37 1
    41    5   38 1
    42    7   39 1
    43    9   40 1
    44   10   41 1
    45   14   42 1
    46   15   43 1
    47   17   44 1
    48   17   45 1
    49   24   46 1
    50   24   47 1
    51   25   48 1
    52   25   49 1
    53   26   50 1
    54   30   51 1
    55   31   52 1
    56   32   53 1
    57   34   54 1
    58   35   55 1
    59   37   56 1
    60   37   57 1
@<TRIPOS>PROPERTY_DATA
  Total_Score	| 11.1425
  Crash		| -1.0149
  Polar		| 7.7375
  FragIndex	| 1
  FragRMSD	| 0.253

