@<TRIPOS>MOLECULE
BindingDB_50316307
 50 53 0 0 0
SMALL
NO_CHARGES


@<TRIPOS>ATOM
1    N        54.7084  114.9379   -9.9685  N     
2    C        54.8787  114.8772  -11.3013  C     
3    N        52.8009  114.2224  -10.8733  N     
4    C        53.6697  114.4572  -11.8756  C     
5    C        55.6041  115.4962   -8.9826  C     
6    N        55.9522  115.1848  -12.0989  N     
7    C        53.4526  114.5214   -9.7269  C     
8    C        53.5759  114.4171  -13.2600  C     
9    N        54.6296  114.7357  -14.0039  N     
10   C        56.8345  114.6199   -8.6108  C     
11   C        55.8247  115.1014  -13.4510  C     
12   O        54.9166  115.7637   -7.7420  O     
13   P        52.8350  113.7188   -5.0529  P     
14   C        55.3576  114.7896   -6.7712  C     
15   C        56.8734  114.7453   -7.0801  C     
16   C        51.4389  113.7653  -10.9373  C     
17   C        54.9349  115.1901   -5.3211  C     
18   O        54.2751  114.1233   -4.6087  O     
19   O        52.5335  114.1150  -13.8162  O     
20   O        52.3801  114.2011   -6.4461  O     
21   O        52.8457  112.1808   -5.1358  O     
22   O        51.8185  114.0186   -4.0687  O     
23   N        56.8497  115.3779  -14.2664  N     
24   O        58.0472  115.0739   -9.2220  O     
25   O        57.5620  113.6814   -6.4443  O     
26   C        51.4068  112.2770  -10.8836  C     
27   C        51.5326  109.4389  -10.7704  C     
28   Cl       51.6729  107.7638  -10.7027  Cl    
29   C        51.5158  111.5987   -9.6415  C     
30   C        51.3500  111.4975  -12.0665  C     
31   C        51.4056  110.0977  -12.0112  C     
32   C        51.5879  110.1988   -9.5837  C     
33   H        55.9505  116.4672   -9.3369  H     
34   H        53.0110  114.4742   -8.8041  H     
35   H        54.5501  114.7178  -14.9731  H     
36   H        56.6619  113.5781   -8.8979  H     
37   H        54.8917  113.8202   -6.9989  H     
38   H        57.3436  115.6965   -6.7830  H     
39   H        50.9448  114.1207  -11.8422  H     
40   H        50.8525  114.1745  -10.1034  H     
41   H        55.8399  115.4204   -4.7300  H     
42   H        54.3323  116.1046   -5.3126  H     
43   H        56.7349  115.3154  -15.2262  H     
44   H        57.7048  115.6346  -13.9004  H     
45   H        58.7019  114.3549   -9.0700  H     
46   H        57.1488  112.8456   -6.7603  H     
47   H        51.5695  112.1384   -8.7652  H     
48   H        51.2985  111.9595  -12.9841  H     
49   H        51.3808  109.5715  -12.8868  H     
50   H        51.7075  109.7382   -8.6819  H     
@<TRIPOS>BOND
     1    1    2 1
     2    5    1 1
     3    1    7 1
     4    2    4 2
     5    2    6 1
     6    3    7 2
     7    3   16 1
     8    3    4 1
     9    4    8 1
    10    5   10 1
    11    5   12 1
    12    6   11 2
    13    8    9 1
    14    8   19 2
    15    9   11 1
    16   10   15 1
    17   10   24 1
    18   11   23 1
    19   12   14 1
    20   13   18 1
    21   13   20 1
    22   13   21 1
    23   13   22 2
    24   14   17 1
    25   14   15 1
    26   15   25 1
    27   16   26 1
    28   17   18 1
    29   26   29 1
    30   26   30 2
    31   27   32 1
    32   27   28 1
    33   27   31 2
    34   29   32 2
    35   30   31 1
    36    5   33 1
    37    7   34 1
    38    9   35 1
    39   10   36 1
    40   14   37 1
    41   15   38 1
    42   16   39 1
    43   16   40 1
    44   17   41 1
    45   17   42 1
    46   23   43 1
    47   23   44 1
    48   24   45 1
    49   25   46 1
    50   29   47 1
    51   30   48 1
    52   31   49 1
    53   32   50 1
@<TRIPOS>PROPERTY_DATA
  Total_Score	| 9.6565
  Crash		| -1.0999
  Polar		| 7.3453
  FragIndex	| 1
  FragRMSD	| 1.339

