@<TRIPOS>MOLECULE
BindingDB_50386765
 54 57 0 0 0
SMALL
NO_CHARGES


@<TRIPOS>ATOM
1    N        54.7418  114.2202   -9.9673  N     
2    C        54.7798  114.4106  -11.2939  C     
3    C        53.4744  114.3229  -11.7919  C     
4    N        52.6513  114.0612  -10.7428  N     
5    C        55.8327  114.2953   -9.0355  C     
6    N        55.8456  114.6220  -12.1236  N     
7    C        53.4512  113.9902   -9.6572  C     
8    C        53.3071  114.4642  -13.1707  C     
9    N        54.3680  114.6643  -13.9581  N     
10   C        55.9763  115.7159   -8.4423  C     
11   C        55.6326  114.7428  -13.4597  C     
12   O        55.6054  113.3998   -7.9364  O     
13   P        52.5329  113.4019   -5.4827  P     
14   C        56.1114  113.9844   -6.7307  C     
15   C        56.3238  115.5008   -6.9573  C     
16   C        55.1194  113.6243   -5.5870  C     
17   O        53.8174  114.2194   -5.8552  O     
18   O        52.2050  114.3955  -13.6916  O     
19   O        51.7985  113.9571   -4.2463  O     
20   O        51.5304  113.5344   -6.6386  O     
21   O        52.7148  111.9935   -5.2612  O     
22   C        51.2317  113.7755  -10.7022  C     
23   N        56.6649  114.9286  -14.2935  N     
24   O        56.9502  116.4822   -9.1493  O     
25   O        57.6535  115.8884   -6.6254  O     
26   C        50.4783  114.2823   -9.4493  C     
27   O        49.8164  115.5346   -9.7260  O     
28   C        49.5658  116.4842   -8.7494  C     
29   C        48.7340  117.5585   -9.1387  C     
30   C        50.2028  116.5508   -7.4895  C     
31   C        50.0362  117.6770   -6.6544  C     
32   C        48.5552  118.6754   -8.3007  C     
33   C        49.2218  118.7396   -7.0697  C     
34   H        56.7722  113.9855   -9.5099  H     
35   H        53.1364  113.7807   -8.7110  H     
36   H        54.2593  114.7682  -14.9171  H     
37   H        55.0219  116.2458   -8.4943  H     
38   H        57.0743  113.5050   -6.5114  H     
39   H        55.6496  116.0956   -6.3282  H     
40   H        55.0804  112.5332   -5.5315  H     
41   H        55.4988  114.0173   -4.6311  H     
42   H        50.7293  114.1696  -11.5835  H     
43   H        51.1250  112.6878  -10.7486  H     
44   H        56.5090  115.0211  -15.2452  H     
45   H        57.5648  114.9850  -13.9446  H     
46   H        56.4937  116.7847   -9.9625  H     
47   H        57.6846  116.8592   -6.7812  H     
48   H        49.7190  113.5499   -9.1390  H     
49   H        51.2033  114.3791   -8.6465  H     
50   H        48.2867  117.5473  -10.0565  H     
51   H        50.8164  115.7995   -7.1591  H     
52   H        50.5154  117.7221   -5.7547  H     
53   H        47.9509  119.4407   -8.5993  H     
54   H        49.1059  119.5612   -6.4638  H     
@<TRIPOS>BOND
     1    1    2 1
     2    5    1 1
     3    1    7 1
     4    2    3 2
     5    2    6 1
     6    3    4 1
     7    3    8 1
     8    4    7 2
     9    4   22 1
    10    5   10 1
    11    5   12 1
    12    6   11 2
    13    8    9 1
    14    8   18 2
    15    9   11 1
    16   10   15 1
    17   10   24 1
    18   11   23 1
    19   12   14 1
    20   13   17 1
    21   13   19 1
    22   13   20 1
    23   13   21 2
    24   14   15 1
    25   14   16 1
    26   15   25 1
    27   16   17 1
    28   22   26 1
    29   26   27 1
    30   27   28 1
    31   28   29 2
    32   28   30 1
    33   29   32 1
    34   30   31 2
    35   31   33 1
    36   32   33 2
    37    5   34 1
    38    7   35 1
    39    9   36 1
    40   10   37 1
    41   14   38 1
    42   15   39 1
    43   16   40 1
    44   16   41 1
    45   22   42 1
    46   22   43 1
    47   23   44 1
    48   23   45 1
    49   24   46 1
    50   25   47 1
    51   26   48 1
    52   26   49 1
    53   29   50 1
    54   30   51 1
    55   31   52 1
    56   32   53 1
    57   33   54 1
@<TRIPOS>PROPERTY_DATA
  Total_Score	| 9.8888
  Crash		| -1.0688
  Polar		| 7.5229
  FragIndex	| 1
  FragRMSD	| 0.527

