@<TRIPOS>MOLECULE
BindingDB_50316309
 50 53 0 0 0
SMALL
NO_CHARGES


@<TRIPOS>ATOM
1    N        54.4983  114.5681   -9.8550  N     
2    C        54.7442  114.5920  -11.1796  C     
3    N        52.6393  113.9284  -10.8945  N     
4    C        53.5671  114.2178  -11.8335  C     
5    C        55.3008  114.9085   -8.7202  C     
6    N        55.8479  114.9620  -11.9004  N     
7    C        53.2049  114.2253   -9.7121  C     
8    C        53.5447  114.2831  -13.2261  C     
9    N        54.6289  114.6796  -13.8949  N     
10   C        56.8299  114.9476   -8.8374  C     
11   C        55.7857  114.9978  -13.2624  C     
12   O        55.1239  113.9219   -7.6889  O     
13   P        53.0903  113.6584   -5.1409  P     
14   C        56.0579  114.1924   -6.6376  C     
15   C        57.2534  114.8922   -7.3438  C     
16   C        51.3239  113.3651  -11.0353  C     
17   C        51.3459  111.8741  -10.8843  C     
18   C        55.3365  114.9503   -5.4865  C     
19   O        54.4746  114.1731   -4.6312  O     
20   O        52.5169  114.0901  -13.8513  O     
21   O        52.0241  113.8790   -4.0514  O     
22   O        52.5730  114.3953   -6.3996  O     
23   O        53.1400  112.2315   -5.3444  O     
24   C        51.4165  111.2081   -9.6258  C     
25   N        56.8477  115.3687  -14.0038  N     
26   O        57.2708  116.1119   -9.5262  O     
27   O        57.5470  116.2081   -6.8638  O     
28   Cl       51.4340  112.0287   -8.1373  Cl    
29   C        51.2972  111.0639  -12.0489  C     
30   C        51.4517  109.7977   -9.5504  C     
31   C        51.2977  109.6613  -11.9650  C     
32   C        51.3846  109.0239  -10.7193  C     
33   H        54.9479  115.8881   -8.3691  H     
34   H        52.7158  114.1703   -8.8154  H     
35   H        54.5804  114.7863  -14.8614  H     
36   H        57.1911  114.0596   -9.3731  H     
37   H        56.3982  113.2347   -6.2433  H     
38   H        58.1636  114.2928   -7.2453  H     
39   H        50.9215  113.6552  -12.0075  H     
40   H        50.6340  113.7957  -10.3041  H     
41   H        56.1072  115.3377   -4.8158  H     
42   H        54.8002  115.8186   -5.8810  H     
43   H        56.7712  115.4333  -14.9719  H     
44   H        57.6960  115.5723  -13.5753  H     
45   H        58.2367  116.0302   -9.5699  H     
46   H        58.0143  116.1002   -6.0018  H     
47   H        51.2712  111.4869  -12.9762  H     
48   H        51.5055  109.3235   -8.6414  H     
49   H        51.2453  109.1040  -12.8148  H     
50   H        51.3905  107.9997  -10.6578  H     
@<TRIPOS>BOND
     1    1    2 1
     2    5    1 1
     3    1    7 1
     4    2    4 2
     5    2    6 1
     6    3    7 2
     7    3   16 1
     8    3    4 1
     9    4    8 1
    10    5   10 1
    11    5   12 1
    12    6   11 2
    13    8    9 1
    14    8   20 2
    15    9   11 1
    16   10   15 1
    17   10   26 1
    18   11   25 1
    19   12   14 1
    20   13   19 1
    21   13   21 1
    22   13   22 1
    23   13   23 2
    24   14   18 1
    25   14   15 1
    26   15   27 1
    27   16   17 1
    28   17   24 1
    29   17   29 2
    30   18   19 1
    31   24   28 1
    32   24   30 2
    33   29   31 1
    34   30   32 1
    35   31   32 2
    36    5   33 1
    37    7   34 1
    38    9   35 1
    39   10   36 1
    40   14   37 1
    41   15   38 1
    42   16   39 1
    43   16   40 1
    44   18   41 1
    45   18   42 1
    46   25   43 1
    47   25   44 1
    48   26   45 1
    49   27   46 1
    50   29   47 1
    51   30   48 1
    52   31   49 1
    53   32   50 1
@<TRIPOS>PROPERTY_DATA
  Total_Score	| 8.0886
  Crash		| -1.2931
  Polar		| 6.3483
  FragIndex	| 1
  FragRMSD	| 0.843

