@<TRIPOS>MOLECULE
BindingDB_50316304
 40 42 0 0 0
SMALL
NO_CHARGES


@<TRIPOS>ATOM
1    N        54.9085  113.7979  -10.1749  N     
2    C        55.1689  114.0655  -11.4756  C     
3    C        53.9997  113.8185  -12.1997  C     
4    N        53.0742  113.3459  -11.3490  N     
5    C        55.6802  113.9784   -8.9695  C     
6    N        56.2822  114.4995  -12.1400  N     
7    C        53.6453  113.3101  -10.1326  C     
8    C        53.9706  114.1000  -13.5574  C     
9    N        55.0663  114.5507  -14.1616  N     
10   C        56.8243  115.0181   -8.8668  C     
11   C        56.2309  114.7466  -13.4800  C     
12   O        54.7679  114.3271   -7.8956  O     
13   P        53.2157  113.6490   -4.1621  P     
14   C        55.4119  115.2138   -6.9613  C     
15   C        56.9078  115.2103   -7.3405  C     
16   C        55.0368  114.7828   -5.5238  C     
17   O        53.8229  114.0091   -5.5497  O     
18   O        52.9434  113.9979  -14.2034  O     
19   O        51.6864  113.8339   -4.0625  O     
20   O        53.8752  114.4378   -3.0136  O     
21   O        53.4737  112.2554   -3.9363  O     
22   N        57.3047  115.2013  -14.1352  N     
23   C        51.7343  112.9634  -11.6523  C     
24   O        56.4996  116.2717   -9.4755  O     
25   O        57.5946  116.4002   -6.9393  O     
26   H        56.1039  112.9927   -8.7167  H     
27   H        53.1567  113.0089   -9.2826  H     
28   H        55.0226  114.7719  -15.1099  H     
29   H        57.7671  114.6366   -9.2675  H     
30   H        55.0111  116.2236   -7.1382  H     
31   H        57.4122  114.3543   -6.8827  H     
32   H        55.8597  114.2068   -5.0924  H     
33   H        54.8992  115.6959   -4.9346  H     
34   H        57.2363  115.3918  -15.0842  H     
35   H        58.1382  115.3680  -13.6657  H     
36   H        51.2035  112.5912  -10.7745  H     
37   H        51.7372  112.1825  -12.4131  H     
38   H        51.1903  113.8332  -12.0259  H     
39   H        56.4397  116.0856  -10.4391  H     
40   H        57.1403  117.1353   -7.4005  H     
@<TRIPOS>BOND
     1    1    2 1
     2    5    1 1
     3    1    7 1
     4    2    3 2
     5    2    6 1
     6    3    8 1
     7    3    4 1
     8    4    7 2
     9    4   23 1
    10    5   10 1
    11    5   12 1
    12    6   11 2
    13    8   18 2
    14    8    9 1
    15    9   11 1
    16   10   15 1
    17   10   24 1
    18   11   22 1
    19   12   14 1
    20   13   17 1
    21   13   19 1
    22   13   20 1
    23   13   21 2
    24   14   16 1
    25   14   15 1
    26   15   25 1
    27   16   17 1
    28    5   26 1
    29    7   27 1
    30    9   28 1
    31   10   29 1
    32   14   30 1
    33   15   31 1
    34   16   32 1
    35   16   33 1
    36   22   34 1
    37   22   35 1
    38   23   36 1
    39   23   37 1
    40   23   38 1
    41   24   39 1
    42   25   40 1
@<TRIPOS>PROPERTY_DATA
  Total_Score	| 7.3087
  Crash		| -0.9936
  Polar		| 6.9302
  FragIndex	| 1
  FragRMSD	| 1.091

