@<TRIPOS>MOLECULE
BindingDB_50386762
 54 57 0 0 0
SMALL
NO_CHARGES


@<TRIPOS>ATOM
1    N        54.7627  114.0171  -10.0384  N     
2    C        54.8479  114.2083  -11.3672  C     
3    C        53.5809  113.9822  -11.9108  C     
4    N        52.7546  113.5625  -10.9211  N     
5    C        55.7971  114.2383   -9.0626  C     
6    N        55.9012  114.5935  -12.1555  N     
7    C        53.4842  113.6419   -9.7777  C     
8    C        53.4181  114.1875  -13.2739  C     
9    N        54.4572  114.5613  -14.0168  N     
10   C        55.8177  115.7086   -8.5826  C     
11   C        55.6966  114.7509  -13.4891  C     
12   O        55.5744  113.4605   -7.8801  O     
13   P        53.3372  113.6855   -4.2804  P     
14   C        56.2751  114.1039   -6.8121  C     
15   C        56.3534  115.6219   -7.1361  C     
16   C        55.5658  113.7515   -5.4823  C     
17   O        54.1566  114.0909   -5.5473  O     
18   O        52.3195  114.1091  -13.7986  O     
19   O        51.8349  114.0347   -4.3835  O     
20   O        53.4058  112.1683   -4.0476  O     
21   O        53.8293  114.3387   -3.0917  O     
22   C        51.3698  113.1550  -11.0960  C     
23   N        56.6986  115.0980  -14.3057  N     
24   O        56.6044  116.5260   -9.4556  O     
25   O        57.7023  116.0907   -7.0006  O     
26   C        49.4800  116.8034   -8.0285  C     
27   C        49.5525  114.1202   -8.9249  C     
28   Br       49.4572  118.5816   -7.4845  Br    
29   C        50.3344  115.8778   -7.4003  C     
30   C        48.6286  116.3812   -9.0673  C     
31   C        50.3499  114.5307   -7.8283  C     
32   C        48.6767  115.0482   -9.5132  C     
33   O        49.5098  112.8220   -9.3405  O     
34   C        50.7048  112.2843   -9.9676  C     
35   H        56.7759  113.9676   -9.4791  H     
36   H        53.1267  113.4573   -8.8358  H     
37   H        54.3272  114.7094  -14.9665  H     
38   H        54.7939  116.1089   -8.5530  H     
39   H        57.2897  113.6806   -6.7769  H     
40   H        55.7231  116.2192   -6.4595  H     
41   H        55.7087  112.6770   -5.3105  H     
42   H        56.0665  114.2993   -4.6741  H     
43   H        50.7753  114.0739  -11.2435  H     
44   H        51.3170  112.5705  -12.0272  H     
45   H        56.5264  115.2196  -15.2482  H     
46   H        57.5908  115.2272  -13.9664  H     
47   H        56.4373  117.4468   -9.1634  H     
48   H        57.6551  117.0547   -7.2013  H     
49   H        50.9274  116.1852   -6.6191  H     
50   H        47.9851  117.0403   -9.5174  H     
51   H        50.9792  113.8737   -7.3532  H     
52   H        48.0635  114.7424  -10.2659  H     
53   H        50.3778  111.3462  -10.4162  H     
54   H        51.4398  112.0018   -9.1977  H     
@<TRIPOS>BOND
     1    1    2 1
     2    5    1 1
     3    1    7 1
     4    2    3 2
     5    2    6 1
     6    3    4 1
     7    3    8 1
     8    4    7 2
     9    4   22 1
    10    5   10 1
    11    5   12 1
    12    6   11 2
    13    8    9 1
    14    8   18 2
    15    9   11 1
    16   10   15 1
    17   10   24 1
    18   11   23 1
    19   12   14 1
    20   13   17 1
    21   13   19 1
    22   13   20 1
    23   13   21 2
    24   14   15 1
    25   14   16 1
    26   15   25 1
    27   16   17 1
    28   22   34 1
    29   26   28 1
    30   26   29 1
    31   26   30 2
    32   27   31 1
    33   27   32 2
    34   27   33 1
    35   29   31 2
    36   30   32 1
    37   33   34 1
    38    5   35 1
    39    7   36 1
    40    9   37 1
    41   10   38 1
    42   14   39 1
    43   15   40 1
    44   16   41 1
    45   16   42 1
    46   22   43 1
    47   22   44 1
    48   23   45 1
    49   23   46 1
    50   24   47 1
    51   25   48 1
    52   29   49 1
    53   30   50 1
    54   31   51 1
    55   32   52 1
    56   34   53 1
    57   34   54 1
@<TRIPOS>PROPERTY_DATA
  Total_Score	| 10.3925
  Crash		| -0.9875
  Polar		| 6.6870
  FragIndex	| 1
  FragRMSD	| 1.100

