@<TRIPOS>MOLECULE
BindingDB_50316305
 50 53 0 0 0
SMALL
NO_CHARGES


@<TRIPOS>ATOM
1    N        54.7735  115.1230   -9.9913  N     
2    C        54.9692  115.0151  -11.3199  C     
3    N        52.8953  114.3349  -10.9172  N     
4    C        53.7935  114.5286  -11.9035  C     
5    C        55.6877  115.6401   -8.9906  C     
6    N        56.0439  115.3332  -12.1025  N     
7    C        53.4907  114.7477   -9.7769  C     
8    C        53.7446  114.4150  -13.2903  C     
9    N        54.7987  114.7605  -14.0207  N     
10   C        56.9958  114.8526   -8.7460  C     
11   C        55.9538  115.2087  -13.4542  C     
12   O        55.1041  115.6971   -7.6790  O     
13   P        52.7890  113.6128   -5.0492  P     
14   C        55.2940  114.4162   -7.0601  C     
15   C        56.6586  113.9036   -7.5793  C     
16   C        51.5690  113.7805  -10.9925  C     
17   C        55.1592  114.5126   -5.5155  C     
18   O        53.8207  114.7771   -5.0497  O     
19   O        52.7352  114.0359  -13.8647  O     
20   O        53.3215  112.2950   -4.4604  O     
21   O        52.1997  113.3643   -6.4493  O     
22   O        51.6608  114.0059   -4.2340  O     
23   N        56.9888  115.5426  -14.2346  N     
24   O        57.5153  114.1489   -9.8673  O     
25   O        57.7006  113.9235   -6.6019  O     
26   C        51.5918  112.3024  -10.7906  C     
27   C        51.3478  111.4014  -11.8530  C     
28   C        51.8313  111.7668   -9.5016  C     
29   C        51.8231  110.3771   -9.2769  C     
30   C        51.3215  110.0118  -11.6301  C     
31   C        51.5595  109.4985  -10.3409  C     
32   H        55.9454  116.6632   -9.2844  H     
33   H        53.0155  114.7808   -8.8733  H     
34   H        54.7430  114.7186  -14.9899  H     
35   H        57.7713  115.5582   -8.4231  H     
36   H        54.5134  113.7317   -7.4124  H     
37   H        56.5419  112.8718   -7.9266  H     
38   H        51.1064  114.0475  -11.9444  H     
39   H        50.9345  114.2298  -10.2245  H     
40   H        55.5684  113.6084   -5.0482  H     
41   H        55.7807  115.3388   -5.1700  H     
42   H        56.9051  115.4897  -15.2026  H     
43   H        57.8115  115.8705  -13.8376  H     
44   H        57.7872  114.8382  -10.5053  H     
45   H        58.4384  113.4340   -7.0222  H     
46   H        51.1810  111.7490  -12.7988  H     
47   H        52.0094  112.3821   -8.7103  H     
48   H        52.0002  110.0101   -8.3394  H     
49   H        51.1258  109.3678  -12.4023  H     
50   H        51.5390  108.4883  -10.1751  H     
@<TRIPOS>BOND
     1    1    2 1
     2    5    1 1
     3    1    7 1
     4    2    4 2
     5    2    6 1
     6    3    7 2
     7    3   16 1
     8    3    4 1
     9    4    8 1
    10    5   10 1
    11    5   12 1
    12    6   11 2
    13    8    9 1
    14    8   19 2
    15    9   11 1
    16   10   15 1
    17   10   24 1
    18   11   23 1
    19   12   14 1
    20   13   18 1
    21   13   20 1
    22   13   21 1
    23   13   22 2
    24   14   17 1
    25   14   15 1
    26   15   25 1
    27   16   26 1
    28   17   18 1
    29   26   27 2
    30   26   28 1
    31   27   30 1
    32   28   29 2
    33   29   31 1
    34   30   31 2
    35    5   32 1
    36    7   33 1
    37    9   34 1
    38   10   35 1
    39   14   36 1
    40   15   37 1
    41   16   38 1
    42   16   39 1
    43   17   40 1
    44   17   41 1
    45   23   42 1
    46   23   43 1
    47   24   44 1
    48   25   45 1
    49   27   46 1
    50   28   47 1
    51   29   48 1
    52   30   49 1
    53   31   50 1
@<TRIPOS>PROPERTY_DATA
  Total_Score	| 9.6597
  Crash		| -1.0877
  Polar		| 7.0551
  FragIndex	| 1
  FragRMSD	| 1.360

