@<TRIPOS>MOLECULE
BindingDB_50386764
 56 59 0 0 0
SMALL
NO_CHARGES


@<TRIPOS>ATOM
1    N        55.0850  114.0809  -10.0798  N     
2    C        55.0575  114.1413  -11.4238  C     
3    C        53.7178  114.1181  -11.8374  C     
4    N        52.9456  113.9852  -10.7374  N     
5    C        56.2374  114.2238   -9.2175  C     
6    N        56.0749  114.3613  -12.3146  N     
7    C        53.7950  113.9740   -9.6856  C     
8    C        53.4573  114.3309  -13.1941  C     
9    N        54.4682  114.5399  -14.0398  N     
10   C        56.3322  115.6551   -8.6278  C     
11   C        55.7652  114.5665  -13.6264  C     
12   O        56.1695  113.3136   -8.1025  O     
13   P        53.4281  113.6901   -3.9745  P     
14   C        55.9888  114.0585   -6.8767  C     
15   C        55.6358  115.5116   -7.2725  C     
16   C        54.9669  113.3113   -5.9916  C     
17   O        54.1426  114.2492   -5.2560  O     
18   O        52.3168  114.3635  -13.6287  O     
19   O        54.0787  114.3624   -2.7488  O     
20   O        51.9262  114.0477   -3.8998  O     
21   O        53.5543  112.2717   -3.7528  O     
22   C        51.5141  114.0585  -10.6055  C     
23   N        56.7365  114.7923  -14.5210  N     
24   O        57.6985  116.0472   -8.4726  O     
25   O        56.0821  116.4765   -6.3206  O     
26   C        50.7467  117.3180   -6.9223  C     
27   C        50.0453  114.8248   -8.1029  C     
28   Cl       51.1840  118.8061   -6.2324  Cl    
29   C        51.4893  116.1552   -6.6201  C     
30   C        49.6455  117.2333   -7.7961  C     
31   C        51.1346  114.9262   -7.1961  C     
32   C        49.3080  116.0043   -8.3847  C     
33   C        50.8775  112.9922   -9.6599  C     
34   C        49.7245  113.5334   -8.7699  C     
35   H        57.1428  113.9858   -9.7775  H     
36   H        53.5034  113.9564   -8.7018  H     
37   H        54.2728  114.7318  -14.9710  H     
38   H        55.8313  116.3973   -9.2553  H     
39   H        56.9548  114.0679   -6.3611  H     
40   H        54.5584  115.6343   -7.3918  H     
41   H        54.3360  112.6598   -6.6142  H     
42   H        55.5492  112.6705   -5.3056  H     
43   H        51.3030  115.0603  -10.2258  H     
44   H        51.0189  113.9745  -11.5756  H     
45   H        56.5092  114.9816  -15.4479  H     
46   H        57.6685  114.8050  -14.2379  H     
47   H        58.0492  116.1440   -9.3843  H     
48   H        55.5708  116.3008   -5.5004  H     
49   H        52.3011  116.2103   -5.9891  H     
50   H        49.1046  118.0766   -8.0222  H     
51   H        51.6934  114.0993   -6.9777  H     
52   H        48.5202  115.9784   -9.0406  H     
53   H        50.4975  112.1673  -10.2577  H     
54   H        51.6193  112.5472   -8.9922  H     
55   H        49.5000  112.7993   -7.9798  H     
56   H        48.8203  113.6415   -9.3843  H     
@<TRIPOS>BOND
     1    1    2 1
     2    5    1 1
     3    1    7 1
     4    2    3 2
     5    2    6 1
     6    3    4 1
     7    3    8 1
     8    4    7 2
     9    4   22 1
    10    5   10 1
    11    5   12 1
    12    6   11 2
    13    8    9 1
    14    8   18 2
    15    9   11 1
    16   10   15 1
    17   10   24 1
    18   11   23 1
    19   12   14 1
    20   13   17 1
    21   13   19 1
    22   13   20 1
    23   13   21 2
    24   14   15 1
    25   14   16 1
    26   15   25 1
    27   16   17 1
    28   22   33 1
    29   26   28 1
    30   26   29 1
    31   26   30 2
    32   27   31 1
    33   27   32 2
    34   27   34 1
    35   29   31 2
    36   30   32 1
    37   33   34 1
    38    5   35 1
    39    7   36 1
    40    9   37 1
    41   10   38 1
    42   14   39 1
    43   15   40 1
    44   16   41 1
    45   16   42 1
    46   22   43 1
    47   22   44 1
    48   23   45 1
    49   23   46 1
    50   24   47 1
    51   25   48 1
    52   29   49 1
    53   30   50 1
    54   31   51 1
    55   32   52 1
    56   33   53 1
    57   33   54 1
    58   34   55 1
    59   34   56 1
@<TRIPOS>PROPERTY_DATA
  Total_Score	| 10.1835
  Crash		| -0.8716
  Polar		| 7.6568
  FragIndex	| 1
  FragRMSD	| 0.125

