@<TRIPOS>MOLECULE
BindingDB_50180116
 44 44 0 0 0
SMALL
NO_CHARGES


@<TRIPOS>ATOM
1    S        23.4859   89.5555    0.4445  S     
2    C        24.4959   90.6831    1.4480  C     
3    C        24.3092   90.1922    2.8074  C     
4    C        23.6084   89.0478    2.9547  C     
5    C        23.0827   88.6202    1.8043  C     
6    O        22.3137   87.5481    1.6232  O     
7    C        26.0152   90.6371    1.0471  C     
8    C        23.9117   92.1122    1.2826  C     
9    O        24.8322   90.7560    3.7623  O     
10   C        23.4971   88.3354    4.2244  C     
11   C        26.3833   90.5146   -0.4671  C     
12   C        26.3174   91.8282   -1.3097  C     
13   C        25.6997   91.6148   -2.7101  C     
14   C        26.2257   92.5379   -3.8436  C     
15   C        25.3443   93.7588   -4.2832  C     
16   C        24.1069   94.1452   -3.4346  C     
17   C        23.2780   95.3095   -4.0709  C     
18   C        24.0023   96.6769   -4.0715  C     
19   H        21.7641   87.4508    2.4313  H     
20   H        26.5143   91.5244    1.4454  H     
21   H        26.4668   89.7878    1.5682  H     
22   H        23.9100   92.4059    0.2333  H     
23   H        24.5059   92.8366    1.8357  H     
24   H        22.8845   92.1608    1.6557  H     
25   H        24.4965   88.1230    4.6165  H     
26   H        22.9726   87.3807    4.1423  H     
27   H        22.9598   88.9499    4.9507  H     
28   H        27.4126   90.1284   -0.5301  H     
29   H        25.7551   89.7414   -0.9193  H     
30   H        25.7591   92.5899   -0.7703  H     
31   H        27.3358   92.2118   -1.4313  H     
32   H        25.9239   90.5751   -2.9957  H     
33   H        24.6152   91.7083   -2.6453  H     
34   H        27.2148   92.9056   -3.5666  H     
35   H        26.3720   91.9206   -4.7324  H     
36   H        26.0064   94.6244   -4.3628  H     
37   H        24.9809   93.5580   -5.2966  H     
38   H        23.4741   93.2634   -3.3337  H     
39   H        24.3793   94.4464   -2.4292  H     
40   H        23.0180   95.0687   -5.1053  H     
41   H        22.3466   95.4364   -3.5173  H     
42   H        24.3189   96.9378   -3.0606  H     
43   H        23.3280   97.4603   -4.4302  H     
44   H        24.8757   96.6564   -4.7272  H     
@<TRIPOS>BOND
     1    1    2 1
     2    1    5 1
     3    2    3 1
     4    2    7 1
     5    2    8 1
     6    3    4 1
     7    3    9 2
     8    4    5 2
     9    4   10 1
    10    5    6 1
    11    7   11 1
    12   11   12 1
    13   12   13 1
    14   13   14 1
    15   14   15 1
    16   15   16 1
    17   16   17 1
    18   17   18 1
    19    6   19 1
    20    7   20 1
    21    7   21 1
    22    8   22 1
    23    8   23 1
    24    8   24 1
    25   10   25 1
    26   10   26 1
    27   10   27 1
    28   11   28 1
    29   11   29 1
    30   12   30 1
    31   12   31 1
    32   13   32 1
    33   13   33 1
    34   14   34 1
    35   14   35 1
    36   15   36 1
    37   15   37 1
    38   16   38 1
    39   16   39 1
    40   17   40 1
    41   17   41 1
    42   18   42 1
    43   18   43 1
    44   18   44 1
@<TRIPOS>PROPERTY_DATA
  Total_Score	| 5.3311
  Crash		| -3.5629
  Polar		| 2.0937
  FragIndex	| 1
  FragRMSD	| 0.241

