@<TRIPOS>MOLECULE
BindingDB_50180129
 47 47 0 0 0
SMALL
NO_CHARGES


@<TRIPOS>ATOM
1    S        22.9713   89.5063    0.7094  S     
2    C        23.8920   90.7476    1.6543  C     
3    C        24.4727   89.9809    2.7512  C     
4    C        23.9075   88.7734    2.9794  C     
5    C        23.0980   88.3959    1.9801  C     
6    O        22.3695   87.2880    1.9130  O     
7    C        24.9294   91.5406    0.7574  C     
8    C        22.8480   91.7287    2.2787  C     
9    O        25.1888   90.5314    3.5830  O     
10   C        23.9727   88.0662    4.2530  C     
11   C        26.1629   90.7433    0.2034  C     
12   C        26.0339   89.8425   -1.0680  C     
13   C        25.6698   90.5506   -2.4048  C     
14   C        26.8679   91.0995   -3.2346  C     
15   C        27.9634   91.8248   -2.4080  C     
16   C        24.2773   92.4410   -0.3424  C     
17   C        29.0149   90.9110   -1.7112  C     
18   C        30.5049   91.2595   -1.9498  C     
19   C        30.7672   92.4299   -2.9237  C     
20   H        22.0064   87.1434    2.8093  H     
21   H        25.3848   92.2631    1.4431  H     
22   H        22.1699   92.1408    1.5240  H     
23   H        23.3422   92.5631    2.7801  H     
24   H        22.2276   91.2213    3.0211  H     
25   H        24.9352   88.2259    4.7443  H     
26   H        23.8427   86.9861    4.1197  H     
27   H        23.1786   88.4380    4.9146  H     
28   H        26.9574   91.4763    0.0340  H     
29   H        26.5279   90.1033    1.0087  H     
30   H        26.9752   89.3168   -1.2216  H     
31   H        25.3109   89.0525   -0.8812  H     
32   H        25.1380   89.8304   -3.0261  H     
33   H        24.9692   91.3632   -2.2396  H     
34   H        27.3273   90.2864   -3.7995  H     
35   H        26.4654   91.8102   -3.9724  H     
36   H        28.4750   92.5391   -3.0494  H     
37   H        27.4686   92.4128   -1.6409  H     
38   H        23.7026   91.8394   -1.0530  H     
39   H        25.0455   92.9894   -0.8988  H     
40   H        23.6038   93.1861    0.0867  H     
41   H        28.8403   90.9368   -0.6377  H     
42   H        28.8633   89.8768   -2.0278  H     
43   H        30.9443   91.5212   -0.9827  H     
44   H        31.0250   90.3708   -2.3034  H     
45   H        30.4005   92.1952   -3.9191  H     
46   H        31.8383   92.6156   -3.0103  H     
47   H        30.2814   93.3405   -2.5713  H     
@<TRIPOS>BOND
     1    1    2 1
     2    1    5 1
     3    2    3 1
     4    2    7 1
     5    2    8 1
     6    3    4 1
     7    3    9 2
     8    4    5 2
     9    4   10 1
    10    5    6 1
    11    7   11 1
    12    7   16 1
    13   11   12 1
    14   12   13 1
    15   13   14 1
    16   14   15 1
    17   15   17 1
    18   17   18 1
    19   18   19 1
    20    6   20 1
    21    7   21 1
    22    8   22 1
    23    8   23 1
    24    8   24 1
    25   10   25 1
    26   10   26 1
    27   10   27 1
    28   11   28 1
    29   11   29 1
    30   12   30 1
    31   12   31 1
    32   13   32 1
    33   13   33 1
    34   14   34 1
    35   14   35 1
    36   15   36 1
    37   15   37 1
    38   16   38 1
    39   16   39 1
    40   16   40 1
    41   17   41 1
    42   17   42 1
    43   18   43 1
    44   18   44 1
    45   19   45 1
    46   19   46 1
    47   19   47 1
@<TRIPOS>PROPERTY_DATA
  Total_Score	| 4.0219
  Crash		| -6.3363
  Polar		| 1.8556
  FragIndex	| 1
  FragRMSD	| 0.809

