@<TRIPOS>MOLECULE
BindingDB_50180121
 41 41 0 0 0
SMALL
NO_CHARGES


@<TRIPOS>ATOM
1    S        23.4073   89.5277    0.3417  S     
2    C        24.4649   90.6454    1.2910  C     
3    C        24.3901   90.0979    2.6480  C     
4    C        23.6198   89.0080    2.8352  C     
5    C        23.0338   88.6040    1.7022  C     
6    O        22.2140   87.5673    1.5590  O     
7    C        25.9592   90.6351    0.7838  C     
8    C        23.8211   92.0702    1.2755  C     
9    O        24.9507   90.6618    3.5797  O     
10   C        23.4527   88.3491    4.1229  C     
11   C        26.3359   91.2799   -0.6071  C     
12   C        27.8718   91.5941   -0.7279  C     
13   C        28.8636   90.4392   -1.1008  C     
14   C        30.2513   90.9029   -1.6487  C     
15   C        30.2229   92.0195   -2.7258  C     
16   C        25.7587   90.5088   -1.8371  C     
17   C        26.2987   90.9134   -3.2331  C     
18   H        21.6139   87.5947    2.3289  H     
19   H        26.5525   91.1647    1.5342  H     
20   H        26.3338   89.6074    0.7726  H     
21   H        23.6313   92.4069    0.2544  H     
22   H        24.4769   92.7943    1.7630  H     
23   H        22.8595   92.0668    1.7944  H     
24   H        24.4217   88.0555    4.5248  H     
25   H        22.8383   87.4507    4.0521  H     
26   H        22.9715   89.0308    4.8227  H     
27   H        25.8724   92.2696   -0.6308  H     
28   H        27.9496   92.3796   -1.4808  H     
29   H        28.2174   92.0274    0.2105  H     
30   H        29.0326   89.8323   -0.2013  H     
31   H        28.4159   89.7924   -1.8540  H     
32   H        30.8925   91.2271   -0.8220  H     
33   H        30.7353   90.0293   -2.1048  H     
34   H        29.3715   91.8771   -3.3912  H     
35   H        31.1378   92.0118   -3.3225  H     
36   H        30.1371   93.0078   -2.2600  H     
37   H        25.9093   89.4349   -1.6796  H     
38   H        24.6857   90.6851   -1.8864  H     
39   H        26.2091   92.0017   -3.3561  H     
40   H        25.7134   90.4030   -4.0063  H     
41   H        27.3401   90.6279   -3.3699  H     
@<TRIPOS>BOND
     1    1    2 1
     2    1    5 1
     3    2    3 1
     4    2    7 1
     5    2    8 1
     6    3    4 1
     7    3    9 2
     8    4    5 2
     9    4   10 1
    10    5    6 1
    11    7   11 1
    12   11   12 1
    13   11   16 1
    14   12   13 1
    15   13   14 1
    16   14   15 1
    17   16   17 1
    18    6   18 1
    19    7   19 1
    20    7   20 1
    21    8   21 1
    22    8   22 1
    23    8   23 1
    24   10   24 1
    25   10   25 1
    26   10   26 1
    27   11   27 1
    28   12   28 1
    29   12   29 1
    30   13   30 1
    31   13   31 1
    32   14   32 1
    33   14   33 1
    34   15   34 1
    35   15   35 1
    36   15   36 1
    37   16   37 1
    38   16   38 1
    39   17   39 1
    40   17   40 1
    41   17   41 1
@<TRIPOS>PROPERTY_DATA
  Total_Score	| 6.6331
  Crash		| -3.2095
  Polar		| 2.1105
  FragIndex	| 1
  FragRMSD	| 0.163

