@<TRIPOS>MOLECULE
BindingDB_50180127
 59 59 0 0 0
SMALL
NO_CHARGES


@<TRIPOS>ATOM
1    S        23.4297   88.7761    1.0185  S     
2    C        24.2988   90.3107    1.4723  C     
3    C        24.4434   90.2321    2.9149  C     
4    C        24.0056   89.1022    3.4971  C     
5    C        23.4854   88.2388    2.6277  C     
6    O        23.0570   87.0169    2.9265  O     
7    C        25.6843   90.3919    0.7519  C     
8    C        23.4096   91.5376    1.0987  C     
9    O        24.9712   91.1365    3.5492  O     
10   C        24.1287   88.8520    4.9272  C     
11   C        25.7797   89.6350   -0.6165  C     
12   C        25.0714   90.3309   -1.7948  C     
13   C        25.7971   91.5981   -2.3113  C     
14   C        26.0880   91.5152   -3.8343  C     
15   C        26.9704   92.6937   -4.3486  C     
16   C        26.2297   93.9958   -4.7595  C     
17   C        24.7326   94.0676   -4.3266  C     
18   C        24.1535   95.4891   -4.0210  C     
19   C        23.4392   95.6648   -2.6415  C     
20   C        22.4709   94.5085   -2.2426  C     
21   C        22.0847   94.5041   -0.7361  C     
22   C        20.5443   94.3653   -0.4691  C     
23   C        20.1653   93.5866    0.8156  C     
24   H        22.1656   87.1399    3.3123  H     
25   H        25.9212   91.4483    0.6182  H     
26   H        26.4611   89.9824    1.4086  H     
27   H        23.2495   91.5725    0.0244  H     
28   H        23.8909   92.4675    1.3977  H     
29   H        22.4403   91.4798    1.5928  H     
30   H        25.1841   88.8784    5.2252  H     
31   H        23.7230   87.8780    5.2254  H     
32   H        23.5844   89.6164    5.4869  H     
33   H        26.8321   89.4704   -0.8665  H     
34   H        25.3254   88.6492   -0.5371  H     
35   H        25.0335   89.6091   -2.6171  H     
36   H        24.0497   90.5810   -1.4983  H     
37   H        25.2096   92.4979   -2.0975  H     
38   H        26.7443   91.7004   -1.7874  H     
39   H        26.6146   90.5769   -4.0120  H     
40   H        25.1485   91.4527   -4.3897  H     
41   H        27.7106   92.9559   -3.5916  H     
42   H        27.5317   92.3349   -5.2160  H     
43   H        26.7761   94.8449   -4.3403  H     
44   H        26.2951   94.0884   -5.8458  H     
45   H        24.1239   93.6425   -5.1353  H     
46   H        24.5546   93.4342   -3.4599  H     
47   H        24.9432   96.2391   -4.0937  H     
48   H        23.4324   95.7379   -4.8035  H     
49   H        24.1802   95.7657   -1.8449  H     
50   H        22.8586   96.5984   -2.6631  H     
51   H        21.5544   94.6205   -2.8330  H     
52   H        22.9391   93.5515   -2.4976  H     
53   H        22.6463   93.7092   -0.2284  H     
54   H        22.4147   95.4554   -0.3116  H     
55   H        20.0992   95.3682   -0.3802  H     
56   H        20.0559   93.8668   -1.3106  H     
57   H        20.5683   92.5712    0.7593  H     
58   H        19.0738   93.5215    0.9069  H     
59   H        20.5629   94.0914    1.7039  H     
@<TRIPOS>BOND
     1    1    2 1
     2    1    5 1
     3    2    3 1
     4    2    7 1
     5    2    8 1
     6    3    4 1
     7    3    9 2
     8    4    5 2
     9    4   10 1
    10    5    6 1
    11    7   11 1
    12   11   12 1
    13   12   13 1
    14   13   14 1
    15   14   15 1
    16   15   16 1
    17   16   17 1
    18   17   18 1
    19   18   19 1
    20   19   20 1
    21   20   21 1
    22   21   22 1
    23   22   23 1
    24    6   24 1
    25    7   25 1
    26    7   26 1
    27    8   27 1
    28    8   28 1
    29    8   29 1
    30   10   30 1
    31   10   31 1
    32   10   32 1
    33   11   33 1
    34   11   34 1
    35   12   35 1
    36   12   36 1
    37   13   37 1
    38   13   38 1
    39   14   39 1
    40   14   40 1
    41   15   41 1
    42   15   42 1
    43   16   43 1
    44   16   44 1
    45   17   45 1
    46   17   46 1
    47   18   47 1
    48   18   48 1
    49   19   49 1
    50   19   50 1
    51   20   51 1
    52   20   52 1
    53   21   53 1
    54   21   54 1
    55   22   55 1
    56   22   56 1
    57   23   57 1
    58   23   58 1
    59   23   59 1
@<TRIPOS>PROPERTY_DATA
  Total_Score	| 4.0657
  Crash		| -8.1403
  Polar		| 0.8076
  FragIndex	| 1
  FragRMSD	| 0.652

