@<TRIPOS>MOLECULE
BindingDB_50180130
 56 56 0 0 0
SMALL
NO_CHARGES


@<TRIPOS>ATOM
1    S        23.4485   88.6093    0.9172  S     
2    C        24.2346   90.2025    1.3331  C     
3    C        24.3032   90.1609    2.7985  C     
4    C        24.0322   88.9749    3.3935  C     
5    C        23.5943   88.0612    2.5202  C     
6    O        23.2537   86.8031    2.7902  O     
7    C        25.6713   90.3905    0.6960  C     
8    C        23.2670   91.3303    0.8699  C     
9    O        24.7498   91.1191    3.4206  O     
10   C        24.2946   88.6975    4.8042  C     
11   C        26.0051   89.8120   -0.7210  C     
12   C        25.7572   90.7007   -1.9805  C     
13   C        27.0477   91.3469   -2.5797  C     
14   C        26.9207   91.7296   -4.0865  C     
15   C        25.8399   92.8081   -4.4096  C     
16   C        26.3977   94.1869   -4.8649  C     
17   C        25.3005   95.1888   -5.3310  C     
18   C        24.1300   95.4060   -4.3175  C     
19   C        24.0507   96.8259   -3.6723  C     
20   C        23.2028   96.7735   -2.3669  C     
21   C        22.7853   98.1628   -1.8036  C     
22   C        23.9606   99.1110   -1.4413  C     
23   H        23.9967   86.4323    3.3206  H     
24   H        25.9366   91.4552    0.7045  H     
25   H        26.3809   89.9148    1.3789  H     
26   H        23.0513   91.2551   -0.1987  H     
27   H        23.7000   92.3166    1.0665  H     
28   H        22.3121   91.2712    1.4034  H     
29   H        25.3680   88.8054    4.9899  H     
30   H        23.9982   87.6815    5.0797  H     
31   H        23.7444   89.3991    5.4428  H     
32   H        27.0608   89.5273   -0.7081  H     
33   H        25.4692   88.8700   -0.8557  H     
34   H        25.2680   90.0787   -2.7398  H     
35   H        25.0558   91.4940   -1.7194  H     
36   H        27.3145   92.2348   -1.9936  H     
37   H        27.8837   90.6356   -2.5059  H     
38   H        27.8992   92.0835   -4.4282  H     
39   H        26.7113   90.8167   -4.6629  H     
40   H        25.2324   92.4241   -5.2315  H     
41   H        25.1651   92.9344   -3.5557  H     
42   H        27.0002   94.6396   -4.0677  H     
43   H        27.0488   94.0055   -5.7249  H     
44   H        25.7966   96.1368   -5.5771  H     
45   H        24.9082   94.7847   -6.2728  H     
46   H        23.1815   95.2183   -4.8504  H     
47   H        24.1960   94.6742   -3.5005  H     
48   H        25.0627   97.1835   -3.4279  H     
49   H        23.5798   97.5186   -4.3931  H     
50   H        22.2778   96.2036   -2.5532  H     
51   H        23.7718   96.2295   -1.6005  H     
52   H        22.1404   98.6693   -2.5323  H     
53   H        22.1928   98.0000   -0.8941  H     
54   H        24.6628   98.6041   -0.7678  H     
55   H        23.5672   99.9993   -0.9375  H     
56   H        24.4912   99.4298   -2.3445  H     
@<TRIPOS>BOND
     1    1    2 1
     2    1    5 1
     3    2    3 1
     4    2    7 1
     5    2    8 1
     6    3    4 1
     7    3    9 2
     8    4    5 2
     9    4   10 1
    10    5    6 1
    11    7   11 1
    12   11   12 1
    13   12   13 1
    14   13   14 1
    15   14   15 1
    16   15   16 1
    17   16   17 1
    18   17   18 1
    19   18   19 1
    20   19   20 1
    21   20   21 1
    22   21   22 1
    23    6   23 1
    24    7   24 1
    25    7   25 1
    26    8   26 1
    27    8   27 1
    28    8   28 1
    29   10   29 1
    30   10   30 1
    31   10   31 1
    32   11   32 1
    33   11   33 1
    34   12   34 1
    35   12   35 1
    36   13   36 1
    37   13   37 1
    38   14   38 1
    39   14   39 1
    40   15   40 1
    41   15   41 1
    42   16   42 1
    43   16   43 1
    44   17   44 1
    45   17   45 1
    46   18   46 1
    47   18   47 1
    48   19   48 1
    49   19   49 1
    50   20   50 1
    51   20   51 1
    52   21   52 1
    53   21   53 1
    54   22   54 1
    55   22   55 1
    56   22   56 1
@<TRIPOS>PROPERTY_DATA
  Total_Score	| 3.9507
  Crash		| -5.2438
  Polar		| 0.8633
  FragIndex	| 1
  FragRMSD	| 0.678

