@<TRIPOS>MOLECULE
BindingDB_50107743
 46 47 0 0 0
SMALL
NO_CHARGES


@<TRIPOS>ATOM
1    P        28.5595   11.2564   84.9784  P     
2    P        39.0823   12.1984   96.5938  P     
3    C        39.3646   10.7691   95.7831  C     
4    C        28.4137   10.5964   86.5049  C     
5    C        29.7287   10.5752   87.2229  C     
6    C        38.2926   10.4772   94.7769  C     
7    O        29.4983   10.4380   84.0702  O     
8    O        27.1998   11.2974   84.2579  O     
9    O        37.5888   12.4021   96.8880  O     
10   O        39.8395   12.2432   97.9372  O     
11   O        29.0642   12.6073   84.9785  O     
12   O        39.5324   13.3440   95.8272  O     
13   F        27.9031    9.3216   86.3806  F     
14   F        27.4419   11.3088   87.1757  F     
15   F        39.4835    9.7716   96.7250  F     
16   F        40.6097   10.8083   95.1953  F     
17   C        38.3325   11.0870   93.4997  C     
18   C        30.6237    9.4947   87.0337  C     
19   C        37.1640    9.6791   95.0973  C     
20   C        30.1312   11.6259   88.0822  C     
21   C        37.2747   10.9263   92.5880  C     
22   C        31.3824   11.6007   88.7278  C     
23   C        31.8823    9.4736   87.6632  C     
24   C        36.1105    9.5114   94.1824  C     
25   C        32.2833   10.5297   88.5197  C     
26   C        36.1433   10.1460   92.9222  C     
27   C        34.9715   10.0930   92.0000  C     
28   C        33.6396   10.5119   89.1444  C     
29   C        33.9911    9.1350   89.7883  C     
30   C        35.1842    9.1497   90.7871  C     
31   H        39.1229   11.6755   93.2326  H     
32   H        30.3718    8.7147   86.4259  H     
33   H        37.0935    9.2266   96.0123  H     
34   H        29.5194   12.4246   88.2395  H     
35   H        37.3196   11.4121   91.6870  H     
36   H        31.6452   12.3787   89.3412  H     
37   H        32.5086    8.6910   87.4894  H     
38   H        35.3096    8.9363   94.4446  H     
39   H        34.0678    9.7574   92.5314  H     
40   H        34.7855   11.1133   91.6684  H     
41   H        34.3771   10.7550   88.3787  H     
42   H        33.6951   11.2975   89.8915  H     
43   H        33.1068    8.7308   90.2950  H     
44   H        34.2614    8.4400   88.9836  H     
45   H        36.1005    9.4095   90.2525  H     
46   H        35.2953    8.1284   91.1800  H     
@<TRIPOS>BOND
     1    1    4 1
     2    1    7 1
     3    1    8 1
     4    1   11 2
     5    2    3 1
     6    2    9 1
     7    2   10 1
     8    2   12 2
     9    3    6 1
    10    3   15 1
    11    3   16 1
    12    4    5 1
    13    4   13 1
    14    4   14 1
    15    5   18 1
    16    5   20 2
    17    6   17 1
    18    6   19 2
    19   17   21 2
    20   18   23 2
    21   19   24 1
    22   20   22 1
    23   21   26 1
    24   22   25 2
    25   23   25 1
    26   24   26 2
    27   25   28 1
    28   26   27 1
    29   27   30 1
    30   28   29 1
    31   29   30 1
    32   17   31 1
    33   18   32 1
    34   19   33 1
    35   20   34 1
    36   21   35 1
    37   22   36 1
    38   23   37 1
    39   24   38 1
    40   27   39 1
    41   27   40 1
    42   28   41 1
    43   28   42 1
    44   29   43 1
    45   29   44 1
    46   30   45 1
    47   30   46 1
@<TRIPOS>PROPERTY_DATA
  Total_Score	| 11.8975
  Crash		| -0.8861
  Polar		| 6.6559
  FragIndex	| 1
  FragRMSD	| 0.935

