@<TRIPOS>MOLECULE
BindingDB_50142308
 51 52 0 0 0
SMALL
NO_CHARGES


@<TRIPOS>ATOM
1    C        33.7063    9.7846   91.1249  C     
2    P        28.5906   11.2005   85.1864  P     
3    P        38.5989   12.1507   96.4460  P     
4    C        28.5102   10.6367   86.7589  C     
5    C        38.8918   10.6902   95.7016  C     
6    C        32.7259    8.6487   91.1872  C     
7    C        33.3604   10.8284   92.1598  C     
8    C        37.8875   10.4005   94.6259  C     
9    C        29.8230   10.6284   87.4889  C     
10   C        35.1914    9.2201   91.4087  C     
11   C        33.6268   10.4061   89.6582  C     
12   O        29.0841   12.5520   85.0987  O     
13   O        37.3049   12.1483   97.0794  O     
14   O        31.4111    8.8711   91.4518  O     
15   O        32.4751   10.5777   93.1659  O     
16   F        38.9142    9.7136   96.6749  F     
17   F        40.1719   10.7032   95.1932  F     
18   F        27.9972    9.3558   86.7178  F     
19   F        27.5460   11.3876   87.4009  F     
20   O        29.4628   10.3522   84.2425  O     
21   O        27.2027   11.2488   84.5122  O     
22   O        39.6546   12.4303   97.5353  O     
23   O        38.6456   13.3057   95.4343  O     
24   C        30.1896   11.6270   88.4304  C     
25   C        38.0838   10.8679   93.3015  C     
26   C        30.7317    9.5574   87.2902  C     
27   C        36.7144    9.6509   94.8891  C     
28   C        32.3070   10.4850   88.9416  C     
29   C        36.0489    9.7352   92.5257  C     
30   O        32.9579    7.5136   90.4818  O     
31   O        34.1426   11.9353   92.2511  O     
32   C        31.4047   11.5546   89.1472  C     
33   C        37.1896   10.5341   92.2684  C     
34   C        31.9456    9.4882   88.0002  C     
35   C        35.8117    9.3229   93.8592  C     
36   C        34.1023   12.9375   93.2836  C     
37   H        35.1601    8.1386   91.5764  H     
38   H        35.7906    9.2873   90.4975  H     
39   H        34.0533   11.4128   89.6427  H     
40   H        34.2892    9.8249   89.0071  H     
41   H        29.5732   12.4279   88.5985  H     
42   H        38.8993   11.4383   93.0720  H     
43   H        30.5101    8.8015   86.6313  H     
44   H        36.5097    9.3256   95.8315  H     
45   H        31.6361   12.2970   89.8114  H     
46   H        37.3927   10.8498   91.3206  H     
47   H        32.5692    8.6956   87.8190  H     
48   H        35.0006    8.7351   94.0743  H     
49   H        33.1238   13.4224   93.3179  H     
50   H        34.8589   13.6972   93.0790  H     
51   H        34.3235   12.4862   94.2591  H     
@<TRIPOS>BOND
     1    1    6 1
     2    1    7 1
     3    1   10 1
     4    1   11 1
     5    2    4 1
     6    2   12 2
     7    2   20 1
     8    2   21 1
     9    3    5 1
    10    3   13 2
    11    3   22 1
    12    3   23 1
    13    4    9 1
    14    4   18 1
    15    4   19 1
    16    5    8 1
    17    5   16 1
    18    5   17 1
    19    6   14 2
    20    6   30 1
    21    7   15 2
    22    7   31 1
    23    8   25 1
    24    8   27 2
    25    9   24 1
    26    9   26 2
    27   10   29 1
    28   11   28 1
    29   24   32 2
    30   25   33 2
    31   26   34 1
    32   27   35 1
    33   28   32 1
    34   28   34 2
    35   29   33 1
    36   29   35 2
    37   31   36 1
    38   10   37 1
    39   10   38 1
    40   11   39 1
    41   11   40 1
    42   24   41 1
    43   25   42 1
    44   26   43 1
    45   27   44 1
    46   32   45 1
    47   33   46 1
    48   34   47 1
    49   35   48 1
    50   36   49 1
    51   36   50 1
    52   36   51 1
@<TRIPOS>PROPERTY_DATA
  Total_Score	| 10.2799
  Crash		| -1.1851
  Polar		| 6.3902
  FragIndex	| 1
  FragRMSD	| 0.362

