@<TRIPOS>MOLECULE
BindingDB_50142309
 61 64 0 0 0
SMALL
NO_CHARGES


@<TRIPOS>ATOM
1    P        28.5567   11.2843   85.0254  P     
2    C        28.4532   10.6902   86.5817  C     
3    C        33.5184    9.3625   90.8414  C     
4    C        33.9307   10.4196   91.8316  C     
5    C        33.1335    3.0690   88.5146  C     
6    C        29.7840   10.5910   87.2755  C     
7    C        33.5562   10.0953   89.4124  C     
8    C        34.5778    8.1585   90.8625  C     
9    O        29.0458   12.6381   84.9667  O     
10   C        32.1443    8.7630   91.1969  C     
11   C        33.5338    4.2981   89.0763  C     
12   O        33.2336   11.4260   91.9443  O     
13   C        34.9374   10.3218   92.7974  C     
14   F        27.8643    9.4498   86.5411  F     
15   F        27.5506   11.4816   87.2520  F     
16   O        32.4727    3.0172   87.3277  O     
17   O        29.4703   10.4561   84.1039  O     
18   O        27.1843   11.2866   84.3304  O     
19   C        30.2186   11.5489   88.2243  C     
20   C        30.6387    9.4950   87.0160  C     
21   C        33.6715    5.4520   88.2674  C     
22   C        33.8518    4.4070   90.4523  C     
23   C        34.2767    6.8255   90.2244  C     
24   C        32.2803   10.2935   88.6529  C     
25   O        33.4284    1.8843   89.1095  O     
26   C        31.4454   11.4055   88.8985  C     
27   C        34.0625    6.6832   88.8308  C     
28   C        34.1999    5.6501   91.0152  C     
29   C        31.8716    9.3627   87.6691  C     
30   C        31.5477    7.7795   90.3562  C     
31   C        31.4020    9.0986   92.3711  C     
32   C        36.2950   10.1603   92.4291  C     
33   C        34.6164   10.3230   94.1779  C     
34   C        30.2060    8.4478   92.7215  C     
35   C        30.3615    7.1075   90.7063  C     
36   C        35.6028   10.0799   95.1510  C     
37   C        37.2828    9.9211   93.4041  C     
38   C        36.9324    9.8597   94.7622  C     
39   C        29.6953    7.4283   91.9013  C     
40   H        34.0278   11.0842   89.4716  H     
41   H        34.2398    9.5626   88.7635  H     
42   H        35.5127    8.5089   90.4206  H     
43   H        34.8319    7.9334   91.9060  H     
44   H        29.6412   12.3658   88.4441  H     
45   H        30.3626    8.7677   86.3487  H     
46   H        33.4725    5.4114   87.2619  H     
47   H        33.7920    3.5854   91.0676  H     
48   H        31.7242   12.1218   89.5745  H     
49   H        34.1913    7.4654   88.1964  H     
50   H        34.3519    5.6954   92.0239  H     
51   H        32.4572    8.5529   87.4474  H     
52   H        31.9889    7.5191   89.4715  H     
53   H        31.7232    9.8235   93.0079  H     
54   H        36.5762   10.1932   91.4451  H     
55   H        33.6572   10.4656   94.4952  H     
56   H        29.7185    8.7050   93.5862  H     
57   H        29.9749    6.3870   90.0936  H     
58   H        35.3449   10.0507   96.1393  H     
59   H        38.2521    9.7747   93.1240  H     
60   H        37.6471    9.6749   95.4702  H     
61   H        28.8298    6.9440   92.1627  H     
@<TRIPOS>BOND
     1    1    2 1
     2    1    9 2
     3    1   17 1
     4    1   18 1
     5    2    6 1
     6    2   14 1
     7    2   15 1
     8    3    4 1
     9    3    7 1
    10    3    8 1
    11    3   10 1
    12    4   12 2
    13    4   13 1
    14    5   11 1
    15    5   16 2
    16    5   25 1
    17    6   19 1
    18    6   20 2
    19    7   24 1
    20    8   23 1
    21   10   30 1
    22   10   31 2
    23   11   21 1
    24   11   22 2
    25   13   32 1
    26   13   33 2
    27   19   26 2
    28   20   29 1
    29   21   27 2
    30   22   28 1
    31   23   27 1
    32   23   28 2
    33   24   26 1
    34   24   29 2
    35   30   35 2
    36   31   34 1
    37   32   37 2
    38   33   36 1
    39   34   39 2
    40   35   39 1
    41   36   38 2
    42   37   38 1
    43    7   40 1
    44    7   41 1
    45    8   42 1
    46    8   43 1
    47   19   44 1
    48   20   45 1
    49   21   46 1
    50   22   47 1
    51   26   48 1
    52   27   49 1
    53   28   50 1
    54   29   51 1
    55   30   52 1
    56   31   53 1
    57   32   54 1
    58   33   55 1
    59   34   56 1
    60   35   57 1
    61   36   58 1
    62   37   59 1
    63   38   60 1
    64   39   61 1
@<TRIPOS>PROPERTY_DATA
  Total_Score	| 12.7751
  Crash		| -1.7662
  Polar		| 9.6734
  FragIndex	| 1
  FragRMSD	| 0.181

