@<TRIPOS>MOLECULE
BindingDB_50224551
 43 45 0 0 0
SMALL
NO_CHARGES


@<TRIPOS>ATOM
1    C        32.5741   10.3182   88.3673  C     
2    C        32.3639    9.0925   87.7133  C     
3    C        33.1573    7.9764   88.0364  C     
4    C        34.1853    8.0962   88.9922  C     
5    C        34.4177    9.3329   89.6506  C     
6    C        33.5888   10.4358   89.3355  C     
7    C        35.4057    9.4552   90.6181  C     
8    C        35.0681    9.5494   92.0656  C     
9    O        36.5674    9.2887   90.2467  O     
10   C        34.3452    8.2593   92.3957  C     
11   C        35.0692    7.1067   92.7680  C     
12   C        34.4110    5.9274   93.1470  C     
13   C        33.0093    5.8896   93.1757  C     
14   C        32.2655    7.0246   92.7974  C     
15   C        32.9256    8.2065   92.4138  C     
16   C        36.1951    9.8971   93.0237  C     
17   C        37.2721   10.7424   92.6420  C     
18   C        38.3109   11.0362   93.5238  C     
19   C        38.3304   10.5176   94.8342  C     
20   C        37.2055    9.7721   95.2612  C     
21   C        36.1637    9.4931   94.3887  C     
22   C        39.4422   10.8087   95.7976  C     
23   P        39.1651   12.2220   96.6350  P     
24   F        39.6295    9.8021   96.7145  F     
25   F        40.6466   10.8880   95.1381  F     
26   O        37.8700   12.2167   97.2826  O     
27   O        40.2339   12.4327   97.7342  O     
28   O        39.2163   13.4458   95.6847  O     
29   H        31.9898   11.1265   88.1427  H     
30   H        31.6305    9.0150   87.0022  H     
31   H        32.9827    7.0776   87.5842  H     
32   H        34.7400    7.2663   89.2287  H     
33   H        33.7232   11.3388   89.7988  H     
34   H        34.3889   10.3952   92.1600  H     
35   H        36.0894    7.1309   92.7828  H     
36   H        34.9546    5.1070   93.4112  H     
37   H        32.5301    5.0370   93.4592  H     
38   H        31.2450    6.9891   92.8091  H     
39   H        32.3676    9.0241   92.1550  H     
40   H        37.3031   11.1498   91.7050  H     
41   H        39.0734   11.6404   93.1983  H     
42   H        37.1349    9.4352   96.2256  H     
43   H        35.3587    8.9809   94.7736  H     
@<TRIPOS>BOND
     1    1    2 2
     2    1    6 1
     3    2    3 1
     4    3    4 2
     5    4    5 1
     6    5    6 2
     7    5    7 1
     8    7    8 1
     9    7    9 2
    10    8   10 1
    11    8   16 1
    12   10   11 2
    13   10   15 1
    14   11   12 1
    15   12   13 2
    16   13   14 1
    17   14   15 2
    18   16   17 2
    19   16   21 1
    20   17   18 1
    21   18   19 2
    22   19   20 1
    23   19   22 1
    24   20   21 2
    25   22   23 1
    26   22   24 1
    27   22   25 1
    28   23   26 2
    29   23   27 1
    30   23   28 1
    31    1   29 1
    32    2   30 1
    33    3   31 1
    34    4   32 1
    35    6   33 1
    36    8   34 1
    37   11   35 1
    38   12   36 1
    39   13   37 1
    40   14   38 1
    41   15   39 1
    42   17   40 1
    43   18   41 1
    44   20   42 1
    45   21   43 1
@<TRIPOS>PROPERTY_DATA
  Total_Score	| 2.1979
  Crash		| -1.0807
  Polar		| 0.4282
  FragIndex	| 1
  FragRMSD	| 0.289

