@<TRIPOS>MOLECULE
BindingDB_50142313
 67 68 0 0 0
SMALL
NO_CHARGES


@<TRIPOS>ATOM
1    C        33.7691    9.8227   90.7419  C     
2    P        28.5693   11.2670   84.9960  P     
3    P        34.2818    2.6798   87.5349  P     
4    C        28.3687   10.6436   86.5258  C     
5    C        35.5367    3.5492   88.2171  C     
6    C        33.0494   10.5602   91.8555  C     
7    C        35.2623    9.8545   90.9821  C     
8    C        35.0615    4.7943   88.8970  C     
9    C        29.6616   10.6079   87.2831  C     
10   C        33.2641    8.3151   90.8070  C     
11   C        33.5086   10.5652   89.3601  C     
12   O        35.8189   10.5130   92.0457  O     
13   O        32.1056   11.5194   91.6087  O     
14   O        29.0734   12.6154   85.0062  O     
15   O        33.1352    3.4918   87.2168  O     
16   O        36.1115    9.3210   90.0681  O     
17   O        33.2577   10.1909   93.1541  O     
18   F        36.4493    3.8367   87.2240  F     
19   F        36.2222    2.7318   89.0893  F     
20   F        27.8269    9.3783   86.4138  F     
21   F        27.4159   11.3869   87.1885  F     
22   O        29.5283   10.4370   84.1250  O     
23   O        27.2189   11.3025   84.2582  O     
24   O        34.7509    2.0137   86.2259  O     
25   O        33.8243    1.5200   88.4406  O     
26   C        30.5753    9.5346   87.1201  C     
27   C        34.8517    5.9933   88.1687  C     
28   C        30.0479   11.6755   88.1382  C     
29   C        34.7325    4.8098   90.2794  C     
30   C        32.1533   10.5371   88.7079  C     
31   C        33.9862    7.1587   90.1582  C     
32   C        31.2695   11.6434   88.8338  C     
33   C        34.2127    5.9597   90.8907  C     
34   C        31.7887    9.4947   87.8223  C     
35   C        34.3283    7.1413   88.7857  C     
36   C        31.3106   12.2308   92.5731  C     
37   C        37.1970   10.6572   92.4096  C     
38   C        30.4360   13.2783   91.8391  C     
39   C        30.4341   11.2538   93.4031  C     
40   C        37.4789   12.1378   92.7711  C     
41   C        37.4765    9.7235   93.6180  C     
42   H        33.1550    8.0493   91.8657  H     
43   H        32.2405    8.2782   90.4203  H     
44   H        33.7907   11.6165   89.5180  H     
45   H        34.2132   10.2197   88.6029  H     
46   H        30.3630    8.7662   86.4755  H     
47   H        35.0567    6.0295   87.1648  H     
48   H        29.4520   12.5041   88.2401  H     
49   H        34.8327    3.9533   90.8368  H     
50   H        31.5228   12.4451   89.4222  H     
51   H        33.9642    5.9115   91.8876  H     
52   H        32.4144    8.7085   87.6673  H     
53   H        34.1908    7.9649   88.2057  H     
54   H        31.9749   12.7743   93.2522  H     
55   H        37.8614   10.3685   91.5879  H     
56   H        31.0668   13.9509   91.2596  H     
57   H        29.8746   13.8769   92.5548  H     
58   H        29.7254   12.7986   91.1621  H     
59   H        29.7979   10.6592   92.7454  H     
60   H        29.7996   11.8039   94.1039  H     
61   H        31.0602   10.5713   93.9795  H     
62   H        37.3082   12.7720   91.8972  H     
63   H        38.5241   12.2596   93.0925  H     
64   H        36.8209   12.4750   93.5781  H     
65   H        36.8547   10.0069   94.4779  H     
66   H        38.5330    9.7787   93.9154  H     
67   H        37.2372    8.6868   93.3435  H     
@<TRIPOS>BOND
     1    1    6 1
     2    1    7 1
     3    1   10 1
     4    1   11 1
     5    2    4 1
     6    2   14 2
     7    2   22 1
     8    2   23 1
     9    3    5 1
    10    3   15 2
    11    3   24 1
    12    3   25 1
    13    4    9 1
    14    4   20 1
    15    4   21 1
    16    5    8 1
    17    5   18 1
    18    5   19 1
    19    6   13 1
    20    6   17 2
    21    7   12 1
    22    7   16 2
    23    8   27 2
    24    8   29 1
    25    9   26 2
    26    9   28 1
    27   10   31 1
    28   11   30 1
    29   12   37 1
    30   13   36 1
    31   26   34 1
    32   27   35 1
    33   28   32 2
    34   29   33 2
    35   30   32 1
    36   30   34 2
    37   31   33 1
    38   31   35 2
    39   36   38 1
    40   36   39 1
    41   37   40 1
    42   37   41 1
    43   10   42 1
    44   10   43 1
    45   11   44 1
    46   11   45 1
    47   26   46 1
    48   27   47 1
    49   28   48 1
    50   29   49 1
    51   32   50 1
    52   33   51 1
    53   34   52 1
    54   35   53 1
    55   36   54 1
    56   37   55 1
    57   38   56 1
    58   38   57 1
    59   38   58 1
    60   39   59 1
    61   39   60 1
    62   39   61 1
    63   40   62 1
    64   40   63 1
    65   40   64 1
    66   41   65 1
    67   41   66 1
    68   41   67 1
@<TRIPOS>PROPERTY_DATA
  Total_Score	| 15.0945
  Crash		| -1.7816
  Polar		| 9.9936
  FragIndex	| 1
  FragRMSD	| 0.090

