@<TRIPOS>MOLECULE
BindingDB_50075305
 30 31 0 0 0
SMALL
NO_CHARGES


@<TRIPOS>ATOM
1    P        28.5040   11.2115   85.0113  P     
2    C        28.3874   10.6204   86.5753  C     
3    C        33.1508   10.5662   89.5911  C     
4    C        34.0452   10.5107   90.3868  C     
5    C        29.6917   10.6661   87.3077  C     
6    O        27.2288   11.2795   84.3296  O     
7    F        27.9043    9.3315   86.5041  F     
8    F        27.3850   11.3114   87.2083  F     
9    O        29.0646   12.6441   84.9357  O     
10   O        29.4115   10.3400   84.1130  O     
11   C        32.1205   10.6299   88.7983  C     
12   C        30.6065    9.5885   87.1905  C     
13   C        30.0462   11.7514   88.1424  C     
14   C        34.9826   10.4549   91.2827  C     
15   C        31.2531   11.7359   88.8687  C     
16   C        31.8107    9.5739   87.9156  C     
17   C        34.8223   11.1046   92.5315  C     
18   C        36.1852    9.7588   91.0071  C     
19   C        37.2185    9.7277   91.9651  C     
20   C        35.8516   11.0502   93.4952  C     
21   C        37.0563   10.3739   93.2048  C     
22   H        30.3949    8.7881   86.5862  H     
23   H        29.4236   12.5588   88.2278  H     
24   H        31.4598   12.5154   89.4879  H     
25   H        32.4307    8.7638   87.8331  H     
26   H        33.9589   11.6117   92.7588  H     
27   H        36.3202    9.2748   90.1168  H     
28   H        38.0915    9.2374   91.7630  H     
29   H        35.7325   11.5133   94.4013  H     
30   H        37.8096   10.3495   93.8994  H     
@<TRIPOS>BOND
     1    1    2 1
     2    1    6 2
     3    1    9 1
     4    1   10 1
     5    2    5 1
     6    2    7 1
     7    2    8 1
     8    3    4 3
     9    3   11 1
    10    4   14 1
    11    5   12 2
    12    5   13 1
    13   11   15 1
    14   11   16 2
    15   12   16 1
    16   13   15 2
    17   14   17 2
    18   14   18 1
    19   17   20 1
    20   18   19 2
    21   19   21 1
    22   20   21 2
    23   12   22 1
    24   13   23 1
    25   15   24 1
    26   16   25 1
    27   17   26 1
    28   18   27 1
    29   19   28 1
    30   20   29 1
    31   21   30 1
@<TRIPOS>PROPERTY_DATA
  Total_Score	| 10.4103
  Crash		| -0.8475
  Polar		| 6.6493
  FragIndex	| 1
  FragRMSD	| 0.941

