@<TRIPOS>MOLECULE
BindingDB_50379185
 29 29 0 0 0
SMALL
NO_CHARGES


@<TRIPOS>ATOM
1    N        34.1542    7.8916   89.9627  N     
2    C        33.6498    9.1755   90.4993  C     
3    C        32.3621    8.9981   91.2052  C     
4    O        31.8837   10.0015   91.9756  O     
5    O        31.5045    8.0024   90.8796  O     
6    C        33.6062   10.3118   89.4254  C     
7    C        32.3344   10.4275   88.6500  C     
8    C        31.4828   11.5440   88.8152  C     
9    C        31.9382    9.4270   87.7325  C     
10   C        30.2597   11.6376   88.1222  C     
11   C        30.7128    9.5186   87.0442  C     
12   C        29.8230   10.6052   87.2588  C     
13   C        28.4929   10.6667   86.5653  C     
14   F        27.9135    9.4203   86.5012  F     
15   F        27.5831   11.4309   87.2629  F     
16   P        28.5966   11.2833   85.0227  P     
17   O        29.0800   12.6357   84.9819  O     
18   O        29.5163   10.4414   84.1206  O     
19   O        27.2132   11.2936   84.3442  O     
20   H        33.9972    7.1519   90.6580  H     
21   H        35.1604    7.9542   89.7838  H     
22   H        33.6692    7.6485   89.0979  H     
23   H        34.3825    9.4639   91.2620  H     
24   H        33.8032   11.2516   89.9485  H     
25   H        34.4391   10.1797   88.7226  H     
26   H        31.7409   12.3022   89.4518  H     
27   H        32.5404    8.6229   87.5582  H     
28   H        29.6722   12.4569   88.2830  H     
29   H        30.4565    8.7603   86.4052  H     
@<TRIPOS>BOND
     1    2    1 1
     2    2    3 1
     3    2    6 1
     4    3    4 2
     5    3    5 1
     6    6    7 1
     7    7    8 2
     8    7    9 1
     9    8   10 1
    10    9   11 2
    11   10   12 2
    12   11   12 1
    13   12   13 1
    14   13   14 1
    15   13   15 1
    16   13   16 1
    17   16   17 2
    18   16   18 1
    19   16   19 1
    20    1   20 1
    21    1   21 1
    22    1   22 1
    23    2   23 1
    24    6   24 1
    25    6   25 1
    26    8   26 1
    27    9   27 1
    28   10   28 1
    29   11   29 1
@<TRIPOS>PROPERTY_DATA
  Total_Score	| 10.9761
  Crash		| -0.4811
  Polar		| 8.1417
  FragIndex	| 1
  FragRMSD	| 0.113

