@<TRIPOS>MOLECULE
BindingDB_50142311
 65 68 0 0 0
SMALL
NO_CHARGES


@<TRIPOS>ATOM
1    P        34.0313    2.5302   87.4186  P     
2    P        28.5627   11.3143   84.9412  P     
3    C        28.3339   10.7142   86.4764  C     
4    C        34.9883    3.3117   88.5448  C     
5    C        33.1938    9.4986   91.0437  C     
6    C        32.3292   10.3099   91.9590  C     
7    C        34.3571    4.5595   89.0896  C     
8    C        29.6128   10.6363   87.2554  C     
9    C        33.2385   10.2719   89.6472  C     
10   C        32.4853    8.0857   90.8746  C     
11   O        33.0458    3.3931   86.8086  O     
12   O        29.0739   12.6641   84.9185  O     
13   C        34.6047    9.3358   91.6389  C     
14   O        31.1389   10.4385   91.6975  O     
15   C        32.6997   10.8531   93.1837  C     
16   F        36.2106    3.5620   87.9613  F     
17   F        27.7443    9.4711   86.3762  F     
18   F        27.3871   11.4973   87.1043  F     
19   F        35.2689    2.4439   89.5751  F     
20   O        34.8778    1.9308   86.2676  O     
21   O        33.2843    1.3190   88.0330  O     
22   O        29.5269   10.4579   84.0996  O     
23   O        27.2229   11.3376   84.1901  O     
24   C        29.9986   11.6620   88.1530  C     
25   C        30.4717    9.5188   87.1168  C     
26   C        33.2180    4.4696   89.9247  C     
27   C        34.8631    5.8536   88.8082  C     
28   C        31.9923   10.4011   88.8278  C     
29   C        33.1574    6.9142   90.2258  C     
30   C        32.6281    5.6254   90.4676  C     
31   C        31.1683   11.5475   88.9246  C     
32   C        31.6383    9.4044   87.8905  C     
33   C        34.2788    7.0113   89.3668  C     
34   C        35.6497   10.2736   91.4025  C     
35   C        34.9273    8.2699   92.5327  C     
36   C        32.2565   10.2638   94.3948  C     
37   C        33.4893   12.0257   93.2451  C     
38   C        33.8452   12.5861   94.4857  C     
39   C        32.6119   10.8252   95.6350  C     
40   C        36.2198    8.1052   93.0633  C     
41   C        36.9390   10.1269   91.9472  C     
42   C        33.4085   11.9843   95.6810  C     
43   C        37.2330    9.0302   92.7650  C     
44   H        33.5949   11.2956   89.8139  H     
45   H        33.9941    9.7908   89.0132  H     
46   H        32.2167    7.7522   91.8798  H     
47   H        31.5368    8.2002   90.3647  H     
48   H        29.4226   12.5037   88.2560  H     
49   H        30.2470    8.7685   86.4599  H     
50   H        32.8051    3.5601   90.1522  H     
51   H        35.6701    5.9646   88.1891  H     
52   H        31.8076    5.5129   91.0720  H     
53   H        31.4050   12.3039   89.5691  H     
54   H        32.2216    8.5727   87.7775  H     
55   H        34.6889    7.9244   89.1323  H     
56   H        35.4929   11.1037   90.8367  H     
57   H        34.2274    7.5812   92.8016  H     
58   H        31.6702    9.4239   94.3797  H     
59   H        33.7949   12.4911   92.3851  H     
60   H        34.4060   13.4356   94.5186  H     
61   H        32.2902   10.3933   96.5019  H     
62   H        36.4297    7.3021   93.6727  H     
63   H        37.6664   10.8195   91.7409  H     
64   H        33.6620   12.3938   96.5803  H     
65   H        38.1700    8.9182   93.1532  H     
@<TRIPOS>BOND
     1    1    4 1
     2    1   11 2
     3    1   20 1
     4    1   21 1
     5    2    3 1
     6    2   12 2
     7    2   22 1
     8    2   23 1
     9    3    8 1
    10    3   17 1
    11    3   18 1
    12    4    7 1
    13    4   16 1
    14    4   19 1
    15    5    6 1
    16    5    9 1
    17    5   10 1
    18    5   13 1
    19    6   14 2
    20    6   15 1
    21    7   26 2
    22    7   27 1
    23    8   24 2
    24    8   25 1
    25    9   28 1
    26   10   29 1
    27   13   34 1
    28   13   35 2
    29   15   36 1
    30   15   37 2
    31   24   31 1
    32   25   32 2
    33   26   30 1
    34   27   33 2
    35   28   31 2
    36   28   32 1
    37   29   30 2
    38   29   33 1
    39   34   41 2
    40   35   40 1
    41   36   39 2
    42   37   38 1
    43   38   42 2
    44   39   42 1
    45   40   43 2
    46   41   43 1
    47    9   44 1
    48    9   45 1
    49   10   46 1
    50   10   47 1
    51   24   48 1
    52   25   49 1
    53   26   50 1
    54   27   51 1
    55   30   52 1
    56   31   53 1
    57   32   54 1
    58   33   55 1
    59   34   56 1
    60   35   57 1
    61   36   58 1
    62   37   59 1
    63   38   60 1
    64   39   61 1
    65   40   62 1
    66   41   63 1
    67   42   64 1
    68   43   65 1
@<TRIPOS>PROPERTY_DATA
  Total_Score	| 13.7746
  Crash		| -1.6602
  Polar		| 10.6715
  FragIndex	| 1
  FragRMSD	| 0.208

