@<TRIPOS>MOLECULE
BindingDB_50142314
 46 48 0 0 0
SMALL
NO_CHARGES


@<TRIPOS>ATOM
1    P        28.4595   11.2299   84.9963  P     
2    C        28.2943   10.6380   86.5467  C     
3    C        33.3959    8.2098   90.1285  C     
4    C        33.4408    9.6004   90.5931  C     
5    C        29.5954   10.6557   87.2873  C     
6    O        27.1976   11.3020   84.3073  O     
7    C        33.3881   10.6568   89.4396  C     
8    O        34.1518    7.8164   89.2474  O     
9    C        32.5256    7.2713   90.6478  C     
10   F        27.7876    9.3590   86.4927  F     
11   F        27.3190   11.3702   87.1827  F     
12   C        34.6174    9.8369   91.4983  C     
13   O        29.0508   12.6498   84.9481  O     
14   O        29.3839   10.3797   84.1085  O     
15   C        30.5760    9.6606   87.0521  C     
16   C        29.9105   11.6778   88.2175  C     
17   C        32.1030   10.6798   88.6817  C     
18   C        31.1392   11.6906   88.9034  C     
19   C        31.8162    9.6857   87.7175  C     
20   C        31.2051    7.1596   90.1503  C     
21   C        32.9682    6.3704   91.6446  C     
22   C        35.9501    9.6144   91.0645  C     
23   C        34.4300   10.3281   92.8177  C     
24   C        35.5236   10.5568   93.6752  C     
25   C        30.3417    6.1632   90.6418  C     
26   C        32.0999    5.3786   92.1386  C     
27   C        37.0435    9.8260   91.9267  C     
28   C        36.8312   10.2972   93.2327  C     
29   C        30.7875    5.2771   91.6384  C     
30   H        32.5331    9.7734   91.1754  H     
31   H        33.5428   11.6415   89.8873  H     
32   H        34.2138   10.5025   88.7411  H     
33   H        30.3965    8.9087   86.3847  H     
34   H        29.2474   12.4356   88.4021  H     
35   H        31.3200   12.4400   89.5778  H     
36   H        32.5028    8.9560   87.5106  H     
37   H        30.8666    7.7848   89.4184  H     
38   H        33.9221    6.4169   92.0069  H     
39   H        36.1355    9.2910   90.1163  H     
40   H        33.4922   10.5305   93.1697  H     
41   H        35.3702   10.9116   94.6245  H     
42   H        29.3923    6.0826   90.2664  H     
43   H        32.4253    4.7281   92.8626  H     
44   H        37.9955    9.6377   91.6042  H     
45   H        37.6285   10.4529   93.8571  H     
46   H        30.1573    4.5584   91.9989  H     
@<TRIPOS>BOND
     1    1    2 1
     2    1    6 2
     3    1   13 1
     4    1   14 1
     5    2    5 1
     6    2   10 1
     7    2   11 1
     8    3    4 1
     9    3    8 2
    10    3    9 1
    11    4    7 1
    12    4   12 1
    13    5   15 1
    14    5   16 2
    15    7   17 1
    16    9   20 2
    17    9   21 1
    18   12   22 2
    19   12   23 1
    20   15   19 2
    21   16   18 1
    22   17   18 2
    23   17   19 1
    24   20   25 1
    25   21   26 2
    26   22   27 1
    27   23   24 2
    28   24   28 1
    29   25   29 2
    30   26   29 1
    31   27   28 2
    32    4   30 1
    33    7   31 1
    34    7   32 1
    35   15   33 1
    36   16   34 1
    37   18   35 1
    38   19   36 1
    39   20   37 1
    40   21   38 1
    41   22   39 1
    42   23   40 1
    43   24   41 1
    44   25   42 1
    45   26   43 1
    46   27   44 1
    47   28   45 1
    48   29   46 1
@<TRIPOS>PROPERTY_DATA
  Total_Score	| 11.4630
  Crash		| -0.8588
  Polar		| 6.6546
  FragIndex	| 1
  FragRMSD	| 0.917

