@<TRIPOS>MOLECULE
BindingDB_50075308
 28 29 0 0 0
SMALL
NO_CHARGES


@<TRIPOS>ATOM
1    P        38.9658   12.1996   96.5499  P     
2    C        39.0833   10.7772   95.6900  C     
3    C        38.0411   10.6518   94.6207  C     
4    O        39.1910   13.3661   95.7336  O     
5    C        36.0688   10.4652   92.5591  C     
6    F        39.0268    9.7592   96.6133  F     
7    F        40.3397   10.6934   95.1306  F     
8    O        37.5681   12.3456   97.1756  O     
9    O        39.9967   12.2343   97.6976  O     
10   C        38.1495   11.4093   93.4242  C     
11   C        36.9183    9.7955   94.7528  C     
12   C        37.1800   11.3204   92.4088  C     
13   C        35.9490    9.6963   93.7351  C     
14   C        35.1020   10.3628   91.5313  C     
15   C        33.9927   11.2392   91.4938  C     
16   C        35.2473    9.3901   90.5165  C     
17   C        34.2902    9.2828   89.4912  C     
18   C        33.0455   11.1435   90.4548  C     
19   C        33.1939   10.1649   89.4537  C     
20   H        38.9448   12.0353   93.2771  H     
21   H        36.7924    9.2362   95.6000  H     
22   H        37.2876   11.8874   91.5611  H     
23   H        35.1533    9.0639   93.8620  H     
24   H        33.8700   11.9568   92.2148  H     
25   H        36.0463    8.7525   90.5269  H     
26   H        34.3927    8.5621   88.7730  H     
27   H        32.2475   11.7821   90.4274  H     
28   H        32.5028   10.0861   88.7057  H     
@<TRIPOS>BOND
     1    1    2 1
     2    1    4 2
     3    1    8 1
     4    1    9 1
     5    2    3 1
     6    2    6 1
     7    2    7 1
     8    3   10 2
     9    3   11 1
    10    5   12 2
    11    5   13 1
    12    5   14 1
    13   10   12 1
    14   11   13 2
    15   14   15 2
    16   14   16 1
    17   15   18 1
    18   16   17 2
    19   17   19 1
    20   18   19 2
    21   10   20 1
    22   11   21 1
    23   12   22 1
    24   13   23 1
    25   15   24 1
    26   16   25 1
    27   17   26 1
    28   18   27 1
    29   19   28 1
@<TRIPOS>PROPERTY_DATA
  Total_Score	| 1.1154
  Crash		| -0.7786
  Polar		| 0.0000
  FragIndex	| 1
  FragRMSD	| 1.005

