@<TRIPOS>MOLECULE
BindingDB_50075313
 20 20 0 0 0
SMALL
NO_CHARGES


@<TRIPOS>ATOM
1    P        28.6014   11.2947   85.0434  P     
2    C        28.4865   10.7400   86.6145  C     
3    C        33.4651   10.4433   89.3033  C     
4    C        29.8080   10.6908   87.3303  C     
5    C        34.5024   10.3275   89.8794  C     
6    O        29.0908   12.6494   84.9487  O     
7    F        27.9145    9.4873   86.5994  F     
8    F        27.5542   11.5310   87.2488  F     
9    O        29.5233   10.4424   84.1543  O     
10   O        27.2292   11.2825   84.3429  O     
11   C        30.6829    9.5899   87.1419  C     
12   C        30.2293   11.7093   88.2184  C     
13   C        32.3283   10.5396   88.6730  C     
14   C        31.9218    9.5172   87.7958  C     
15   C        31.4751   11.6418   88.8838  C     
16   H        35.3051   10.2316   90.3252  H     
17   H        30.4150    8.8209   86.5211  H     
18   H        29.6369   12.5243   88.3944  H     
19   H        32.5249    8.6992   87.6321  H     
20   H        31.7422   12.3962   89.5243  H     
@<TRIPOS>BOND
     1    1    2 1
     2    1    6 2
     3    1    9 1
     4    1   10 1
     5    2    4 1
     6    2    7 1
     7    2    8 1
     8    3    5 3
     9    3   13 1
    10    4   11 2
    11    4   12 1
    12   11   14 1
    13   12   15 2
    14   13   14 2
    15   13   15 1
    16    5   16 1
    17   11   17 1
    18   12   18 1
    19   14   19 1
    20   15   20 1
@<TRIPOS>PROPERTY_DATA
  Total_Score	| 9.9310
  Crash		| -0.3183
  Polar		| 6.7375
  FragIndex	| 1
  FragRMSD	| 0.691

