@<TRIPOS>MOLECULE
BindingDB_50345231
 17 18 0 0 0
SMALL
NO_CHARGES


@<TRIPOS>ATOM
1    C        17.3323  -35.9733    1.8705  C     
2    O        17.8371  -35.8751    0.6098  O     
3    C        18.0169  -36.9705    2.5692  C     
4    C        18.9654  -37.4827    1.6955  C     
5    C        16.3037  -35.1570    2.3453  C     
6    C        18.8286  -36.7923    0.4920  C     
7    C        19.9401  -38.4869    1.8480  C     
8    O        15.8175  -35.2861    3.6038  O     
9    C        19.6527  -37.0781   -0.6086  C     
10   C        20.7683  -38.7888    0.7452  C     
11   O        15.7482  -34.2440    1.5205  O     
12   C        20.6305  -38.0860   -0.4720  C     
13   Br       22.0411  -40.1349    0.8887  Br    
14   H        17.8592  -37.2642    3.5363  H     
15   H        20.0355  -38.9879    2.7326  H     
16   H        19.5451  -36.5639   -1.4833  H     
17   H        21.2375  -38.3078   -1.2629  H     
@<TRIPOS>BOND
     1    1    2 1
     2    1    3 2
     3    1    5 1
     4    2    6 1
     5    3    4 1
     6    4    6 2
     7    4    7 1
     8    5    8 1
     9    5   11 2
    10    6    9 1
    11    7   10 2
    12    9   12 2
    13   10   12 1
    14   10   13 1
    15    3   14 1
    16    7   15 1
    17    9   16 1
    18   12   17 1
@<TRIPOS>PROPERTY_DATA
  Total_Score	| 3.4388
  Crash		| -0.2706
  Polar		| 1.5429
  FragIndex	| 1
  FragRMSD	| 0.068

