@<TRIPOS>MOLECULE
BindingDB_50345255
 40 42 0 0 0
SMALL
NO_CHARGES


@<TRIPOS>ATOM
1    C        20.7510  -38.7978    0.9301  C     
2    C        20.7625  -38.0650   -0.2705  C     
3    C        19.8142  -37.0488   -0.5285  C     
4    C        19.8267  -38.4866    1.9424  C     
5    C        18.8914  -37.4690    1.6858  C     
6    C        18.8340  -36.7885    0.4758  C     
7    O        17.7691  -35.9184    0.4735  O     
8    C        17.3288  -36.0074    1.7497  C     
9    C        17.9339  -36.9529    2.4636  C     
10   C        16.3660  -35.1670    2.2530  C     
11   O        15.8563  -35.2903    3.5112  O     
12   O        15.8586  -34.1887    1.4695  O     
13   Br       21.9593  -40.1961    1.1454  Br    
14   N        19.9265  -36.4284   -1.7383  N     
15   C        19.1700  -35.5449   -2.3545  C     
16   O        18.1760  -35.0681   -1.7964  O     
17   C        19.4753  -35.2055   -3.7394  C     
18   C        18.8443  -36.0889   -4.8841  C     
19   C        18.5668  -37.5761   -4.5006  C     
20   C        17.2292  -37.7592   -3.7390  C     
21   N        16.1094  -37.1859   -4.5156  N     
22   C        16.2676  -35.7427   -4.8018  C     
23   C        17.5836  -35.4772   -5.5777  C     
24   H        21.4660  -38.2891   -0.9775  H     
25   H        19.8290  -38.9942    2.8309  H     
26   H        17.7718  -37.1936    3.4192  H     
27   H        20.6849  -36.7229   -2.2670  H     
28   H        19.2272  -34.1516   -3.9252  H     
29   H        20.5708  -35.2508   -3.8587  H     
30   H        19.6118  -36.1238   -5.6714  H     
31   H        18.5166  -38.1722   -5.4186  H     
32   H        19.3867  -37.9729   -3.8920  H     
33   H        17.0370  -38.8283   -3.6194  H     
34   H        17.2785  -37.2962   -2.7460  H     
35   H        16.0529  -37.6921   -5.4036  H     
36   H        15.2346  -37.3324   -4.0062  H     
37   H        15.4175  -35.4158   -5.4084  H     
38   H        16.2530  -35.1794   -3.8618  H     
39   H        17.7066  -34.4015   -5.7254  H     
40   H        17.4837  -35.9309   -6.5691  H     
@<TRIPOS>BOND
     1    1    2 2
     2    1    4 1
     3    1   13 1
     4    2    3 1
     5    3    6 2
     6    3   14 1
     7    4    5 2
     8    5    6 1
     9    5    9 1
    10    6    7 1
    11    7    8 1
    12    8    9 2
    13    8   10 1
    14   10   11 1
    15   10   12 2
    16   14   15 am
    17   15   16 2
    18   15   17 1
    19   17   18 1
    20   18   19 1
    21   18   23 1
    22   19   20 1
    23   20   21 1
    24   21   22 1
    25   22   23 1
    26    2   24 1
    27    4   25 1
    28    9   26 1
    29   14   27 1
    30   17   28 1
    31   17   29 1
    32   18   30 1
    33   19   31 1
    34   19   32 1
    35   20   33 1
    36   20   34 1
    37   21   35 1
    38   21   36 1
    39   22   37 1
    40   22   38 1
    41   23   39 1
    42   23   40 1
@<TRIPOS>PROPERTY_DATA
  Total_Score	| 8.1642
  Crash		| -0.9205
  Polar		| 4.3049
  FragIndex	| 1
  FragRMSD	| 1.060

