@<TRIPOS>MOLECULE
BindingDB_50345251
 40 42 0 0 0
SMALL
NO_CHARGES


@<TRIPOS>ATOM
1    C        20.6982  -38.8288    0.8963  C     
2    C        20.5821  -38.1417   -0.3312  C     
3    C        19.6070  -37.1250   -0.5156  C     
4    C        19.8478  -38.5114    1.9728  C     
5    C        18.8901  -37.4991    1.7880  C     
6    C        18.7673  -36.8288    0.5780  C     
7    O        17.7816  -35.8841    0.6307  O     
8    C        17.3278  -36.0059    1.8930  C     
9    C        17.9570  -36.9628    2.5913  C     
10   C        16.3312  -35.1895    2.3701  C     
11   O        15.7773  -34.2647    1.5591  O     
12   O        15.8345  -35.2971    3.6213  O     
13   Br       21.9645  -40.1773    1.0659  Br    
14   O        19.3637  -36.3832   -1.6528  O     
15   C        20.4273  -36.1208   -2.5953  C     
16   C        19.8666  -35.4857   -3.8811  C     
17   C        18.7917  -36.2624   -4.7088  C     
18   C        19.1008  -37.7793   -4.9296  C     
19   C        18.5027  -38.7274   -3.8528  C     
20   N        17.0614  -38.4723   -3.6776  N     
21   C        16.7232  -37.0836   -3.2974  C     
22   C        17.2986  -36.0424   -4.2948  C     
23   H        21.2258  -38.3922   -1.0832  H     
24   H        19.9189  -39.0079    2.8667  H     
25   H        17.7876  -37.2218    3.5338  H     
26   H        21.1365  -35.4335   -2.1230  H     
27   H        20.9732  -37.0296   -2.8715  H     
28   H        19.4743  -34.4943   -3.6228  H     
29   H        20.7278  -35.3211   -4.5374  H     
30   H        18.8721  -35.8063   -5.7027  H     
31   H        18.6641  -38.0776   -5.8916  H     
32   H        20.1782  -37.9426   -5.0060  H     
33   H        18.6369  -39.7613   -4.1773  H     
34   H        19.0144  -38.6216   -2.8882  H     
35   H        16.5997  -38.7016   -4.5642  H     
36   H        16.7049  -39.1077   -2.9614  H     
37   H        15.6298  -36.9885   -3.2825  H     
38   H        17.0713  -36.8969   -2.2842  H     
39   H        17.1670  -35.0392   -3.8874  H     
40   H        16.6793  -36.0993   -5.1987  H     
@<TRIPOS>BOND
     1    1    2 2
     2    1    4 1
     3    1   13 1
     4    2    3 1
     5    3    6 2
     6    3   14 1
     7    4    5 2
     8    5    6 1
     9    5    9 1
    10    6    7 1
    11    7    8 1
    12    8    9 2
    13    8   10 1
    14   10   11 1
    15   10   12 2
    16   14   15 1
    17   15   16 1
    18   16   17 1
    19   17   18 1
    20   17   22 1
    21   18   19 1
    22   19   20 1
    23   20   21 1
    24   21   22 1
    25    2   23 1
    26    4   24 1
    27    9   25 1
    28   15   26 1
    29   15   27 1
    30   16   28 1
    31   16   29 1
    32   17   30 1
    33   18   31 1
    34   18   32 1
    35   19   33 1
    36   19   34 1
    37   20   35 1
    38   20   36 1
    39   21   37 1
    40   21   38 1
    41   22   39 1
    42   22   40 1
@<TRIPOS>PROPERTY_DATA
  Total_Score	| 8.3848
  Crash		| -0.8673
  Polar		| 3.4268
  FragIndex	| 1
  FragRMSD	| 0.911

