@<TRIPOS>MOLECULE
BindingDB_50345259
 38 40 0 0 0
SMALL
NO_CHARGES


@<TRIPOS>ATOM
1    C        20.7451  -38.8588    0.6945  C     
2    C        20.9214  -37.9707   -0.3890  C     
3    C        20.0663  -36.8584   -0.5714  C     
4    C        19.7268  -38.6329    1.6396  C     
5    C        18.9227  -37.4940    1.4919  C     
6    C        19.1099  -36.5939    0.4417  C     
7    O        18.3145  -35.5061    0.5941  O     
8    C        17.5364  -35.8587    1.6445  C     
9    C        17.9017  -37.0127    2.2150  C     
10   C        16.4646  -35.0960    2.0265  C     
11   O        15.6403  -35.4774    3.0299  O     
12   O        16.1253  -33.9995    1.3155  O     
13   Br       21.8277  -40.3604    0.8370  Br    
14   N        20.2643  -36.1664   -1.7180  N     
15   C        19.3866  -35.8814   -2.8315  C     
16   C        17.8685  -35.6579   -2.5106  C     
17   C        16.9808  -35.5584   -3.7778  C     
18   C        17.1027  -36.8343   -4.6494  C     
19   C        18.5884  -37.0914   -5.0278  C     
20   C        19.5291  -37.1127   -3.7944  C     
21   N        16.5059  -37.9789   -3.9356  N     
22   H        21.6411  -38.1865   -1.0845  H     
23   H        19.5770  -39.2839    2.4136  H     
24   H        17.4757  -37.4695    2.9924  H     
25   H        21.2046  -36.0385   -1.9425  H     
26   H        19.7707  -34.9905   -3.3440  H     
27   H        17.5021  -36.4717   -1.8782  H     
28   H        17.7049  -34.7296   -1.9812  H     
29   H        15.9323  -35.4216   -3.4801  H     
30   H        17.2788  -34.6876   -4.3751  H     
31   H        16.5221  -36.6888   -5.5661  H     
32   H        18.6591  -38.0586   -5.5516  H     
33   H        18.9212  -36.3119   -5.7267  H     
34   H        20.5657  -37.1647   -4.1596  H     
35   H        19.3346  -38.0407   -3.2322  H     
36   H        17.0441  -38.1972   -3.0952  H     
37   H        16.4933  -38.7926   -4.5411  H     
38   H        15.5392  -37.7580   -3.6677  H     
@<TRIPOS>BOND
     1    1    2 2
     2    1    4 1
     3    1   13 1
     4    2    3 1
     5    3    6 2
     6    3   14 1
     7    4    5 2
     8    5    6 1
     9    5    9 1
    10    6    7 1
    11    7    8 1
    12    8    9 2
    13    8   10 1
    14   10   11 1
    15   10   12 2
    16   15   14 1
    17   15   16 1
    18   15   20 1
    19   16   17 1
    20   17   18 1
    21   18   19 1
    22   18   21 1
    23   19   20 1
    24    2   22 1
    25    4   23 1
    26    9   24 1
    27   14   25 1
    28   15   26 1
    29   16   27 1
    30   16   28 1
    31   17   29 1
    32   17   30 1
    33   18   31 1
    34   19   32 1
    35   19   33 1
    36   20   34 1
    37   20   35 1
    38   21   36 1
    39   21   37 1
    40   21   38 1
@<TRIPOS>PROPERTY_DATA
  Total_Score	| 7.6988
  Crash		| -1.1941
  Polar		| 4.4702
  FragIndex	| 1
  FragRMSD	| 0.943

