@<TRIPOS>MOLECULE
BindingDB_50345249
 37 39 0 0 0
SMALL
NO_CHARGES


@<TRIPOS>ATOM
1    C        20.7371  -38.8163    0.8651  C     
2    C        20.7517  -38.0144   -0.3032  C     
3    C        19.7640  -37.0291   -0.5235  C     
4    C        19.7988  -38.5694    1.8719  C     
5    C        18.8740  -37.5269    1.6847  C     
6    C        18.8448  -36.7678    0.5248  C     
7    O        17.8698  -35.8097    0.5831  O     
8    C        17.3450  -36.0122    1.8106  C     
9    C        17.9074  -37.0342    2.4698  C     
10   C        16.3513  -35.2046    2.3179  C     
11   O        15.8517  -34.1959    1.5741  O     
12   O        15.7995  -35.4038    3.5343  O     
13   Br       21.9623  -40.1986    0.9894  Br    
14   O        19.6869  -36.2776   -1.6794  O     
15   C        19.8704  -36.9219   -2.9714  C     
16   C        18.6276  -36.8159   -3.8759  C     
17   C        17.3888  -37.4981   -3.2297  C     
18   N        16.2371  -37.4306   -4.1519  N     
19   C        15.8681  -36.0550   -4.5616  C     
20   C        17.0667  -35.3147   -5.2114  C     
21   C        18.3101  -35.3535   -4.2857  C     
22   H        21.4758  -38.1951   -1.0032  H     
23   H        19.7886  -39.1283    2.7240  H     
24   H        17.6895  -37.3466    3.3862  H     
25   H        20.7226  -36.4197   -3.4360  H     
26   H        20.1089  -37.9936   -2.9585  H     
27   H        18.8657  -37.3615   -4.7951  H     
28   H        17.6012  -38.5488   -3.0272  H     
29   H        17.1236  -37.0195   -2.2837  H     
30   H        16.4611  -37.9763   -4.9886  H     
31   H        15.4315  -37.8637   -3.7020  H     
32   H        15.0452  -36.1184   -5.2789  H     
33   H        15.5160  -35.4947   -3.6903  H     
34   H        17.3083  -35.7976   -6.1638  H     
35   H        16.7924  -34.2765   -5.4164  H     
36   H        18.1245  -34.7385   -3.4009  H     
37   H        19.1631  -34.9297   -4.8207  H     
@<TRIPOS>BOND
     1    1    2 2
     2    1    4 1
     3    1   13 1
     4    2    3 1
     5    3    6 2
     6    3   14 1
     7    4    5 2
     8    5    6 1
     9    5    9 1
    10    6    7 1
    11    7    8 1
    12    8    9 2
    13    8   10 1
    14   10   11 1
    15   10   12 2
    16   14   15 1
    17   15   16 1
    18   16   17 1
    19   16   21 1
    20   17   18 1
    21   18   19 1
    22   19   20 1
    23   20   21 1
    24    2   22 1
    25    4   23 1
    26    9   24 1
    27   15   25 1
    28   15   26 1
    29   16   27 1
    30   17   28 1
    31   17   29 1
    32   18   30 1
    33   18   31 1
    34   19   32 1
    35   19   33 1
    36   20   34 1
    37   20   35 1
    38   21   36 1
    39   21   37 1
@<TRIPOS>PROPERTY_DATA
  Total_Score	| 8.0158
  Crash		| -0.5513
  Polar		| 4.6982
  FragIndex	| 1
  FragRMSD	| 0.914

