@<TRIPOS>MOLECULE
BindingDB_50345253
 41 43 0 0 0
SMALL
NO_CHARGES


@<TRIPOS>ATOM
1    C        20.6956  -38.8196    0.9511  C     
2    C        20.6598  -38.0655   -0.2419  C     
3    C        19.6796  -37.0625   -0.4346  C     
4    C        19.7722  -38.5632    1.9892  C     
5    C        18.8217  -37.5457    1.7991  C     
6    C        18.7695  -36.8245    0.6150  C     
7    O        17.8008  -35.8674    0.6583  O     
8    C        17.2920  -36.0225    1.8960  C     
9    C        17.8535  -37.0252    2.5781  C     
10   C        16.3079  -35.1773    2.3552  C     
11   O        15.8097  -35.2713    3.6096  O     
12   O        15.7924  -34.2360    1.5383  O     
13   Br       21.9379  -40.1945    1.1099  Br    
14   N        19.5450  -36.3007   -1.5451  N     
15   C        20.4808  -36.1196   -2.5997  C     
16   C        19.8262  -35.4365   -3.8255  C     
17   C        18.7735  -36.1907   -4.7145  C     
18   C        19.1228  -37.6892   -4.9884  C     
19   C        18.5667  -38.6444   -3.8957  C     
20   N        17.1102  -38.4720   -3.7410  N     
21   C        16.6890  -37.1027   -3.3795  C     
22   C        17.2627  -36.0188   -4.3309  C     
23   H        21.3507  -38.2613   -0.9672  H     
24   H        19.7954  -39.1061    2.8558  H     
25   H        17.6341  -37.3227    3.5004  H     
26   H        18.7540  -35.7435   -1.5856  H     
27   H        21.2563  -35.4704   -2.2002  H     
28   H        20.9761  -37.0438   -2.9050  H     
29   H        19.3719  -34.5089   -3.4713  H     
30   H        20.6517  -35.1489   -4.4756  H     
31   H        18.8542  -35.6929   -5.6940  H     
32   H        18.6813  -37.9848   -5.9455  H     
33   H        20.2015  -37.8223   -5.0804  H     
34   H        18.7876  -39.6736   -4.1738  H     
35   H        19.0277  -38.4821   -2.9181  H     
36   H        16.6533  -38.7518   -4.6086  H     
37   H        16.8039  -39.1061   -2.9969  H     
38   H        15.5994  -37.0759   -3.4276  H     
39   H        16.9601  -36.9071   -2.3512  H     
40   H        17.1014  -35.0315   -3.8882  H     
41   H        16.6668  -36.0605   -5.2461  H     
@<TRIPOS>BOND
     1    1    2 2
     2    1    4 1
     3    1   13 1
     4    2    3 1
     5    3    6 2
     6    3   14 1
     7    4    5 2
     8    5    6 1
     9    5    9 1
    10    6    7 1
    11    7    8 1
    12    8    9 2
    13    8   10 1
    14   10   11 1
    15   10   12 2
    16   14   15 1
    17   15   16 1
    18   16   17 1
    19   17   18 1
    20   17   22 1
    21   18   19 1
    22   19   20 1
    23   20   21 1
    24   21   22 1
    25    2   23 1
    26    4   24 1
    27    9   25 1
    28   14   26 1
    29   15   27 1
    30   15   28 1
    31   16   29 1
    32   16   30 1
    33   17   31 1
    34   18   32 1
    35   18   33 1
    36   19   34 1
    37   19   35 1
    38   20   36 1
    39   20   37 1
    40   21   38 1
    41   21   39 1
    42   22   40 1
    43   22   41 1
@<TRIPOS>PROPERTY_DATA
  Total_Score	| 8.2741
  Crash		| -1.1122
  Polar		| 3.4310
  FragIndex	| 1
  FragRMSD	| 0.547

