@<TRIPOS>MOLECULE
BindingDB_50345247
 37 39 0 0 0
SMALL
NO_CHARGES


@<TRIPOS>ATOM
1    C        20.7105  -38.7719    0.7068  C     
2    C        20.7332  -37.9100   -0.4132  C     
3    C        19.8153  -36.8340   -0.5213  C     
4    C        19.7851  -38.5734    1.7518  C     
5    C        18.8776  -37.5130    1.6386  C     
6    C        18.9070  -36.6435    0.5333  C     
7    O        17.9773  -35.6662    0.6657  O     
8    C        17.3679  -35.9851    1.8400  C     
9    C        17.9058  -37.0486    2.4401  C     
10   C        16.3394  -35.2110    2.3184  C     
11   O        15.8159  -34.2229    1.5593  O     
12   O        15.7634  -35.4497    3.5243  O     
13   Br       21.9415  -40.1610    0.8154  Br    
14   O        19.9380  -35.9330   -1.5540  O     
15   C        18.7528  -35.5002   -2.2583  C     
16   C        18.6870  -36.0350   -3.7259  C     
17   C        18.8621  -37.5766   -3.8500  C     
18   C        17.6261  -38.3437   -3.3228  C     
19   N        16.3970  -37.8857   -4.0151  N     
20   C        16.1405  -36.4274   -3.9620  C     
21   C        17.3651  -35.6028   -4.4399  C     
22   H        21.4275  -38.0581   -1.1504  H     
23   H        19.7775  -39.1817    2.5720  H     
24   H        17.6540  -37.4401    3.3218  H     
25   H        17.8292  -35.7438   -1.7158  H     
26   H        18.7987  -34.4094   -2.3101  H     
27   H        19.5176  -35.5574   -4.2515  H     
28   H        18.9983  -37.8313   -4.9095  H     
29   H        19.7618  -37.9151   -3.3293  H     
30   H        17.7654  -39.4062   -3.5235  H     
31   H        17.5400  -38.2056   -2.2455  H     
32   H        16.4849  -38.1581   -4.9967  H     
33   H        15.5895  -38.3764   -3.6257  H     
34   H        15.2818  -36.2121   -4.6075  H     
35   H        15.8772  -36.1417   -2.9449  H     
36   H        17.1635  -34.5410   -4.2791  H     
37   H        17.4737  -35.7496   -5.5223  H     
@<TRIPOS>BOND
     1    1    2 2
     2    1    4 1
     3    1   13 1
     4    2    3 1
     5    3    6 2
     6    3   14 1
     7    4    5 2
     8    5    6 1
     9    5    9 1
    10    6    7 1
    11    7    8 1
    12    8    9 2
    13    8   10 1
    14   10   11 1
    15   10   12 2
    16   14   15 1
    17   15   16 1
    18   16   17 1
    19   16   21 1
    20   17   18 1
    21   18   19 1
    22   19   20 1
    23   20   21 1
    24    2   22 1
    25    4   23 1
    26    9   24 1
    27   15   25 1
    28   15   26 1
    29   16   27 1
    30   17   28 1
    31   17   29 1
    32   18   30 1
    33   18   31 1
    34   19   32 1
    35   19   33 1
    36   20   34 1
    37   20   35 1
    38   21   36 1
    39   21   37 1
@<TRIPOS>PROPERTY_DATA
  Total_Score	| 8.2138
  Crash		| -0.7858
  Polar		| 4.4429
  FragIndex	| 1
  FragRMSD	| 0.930

