@<TRIPOS>MOLECULE
BindingDB_50345262
 36 38 0 0 0
SMALL
NO_CHARGES


@<TRIPOS>ATOM
1    C        20.8119  -38.7713    0.7346  C     
2    C        20.8232  -37.9460   -0.4132  C     
3    C        19.8392  -36.9510   -0.6231  C     
4    C        19.8393  -38.5676    1.7352  C     
5    C        18.8929  -37.5459    1.5460  C     
6    C        18.8754  -36.7622    0.3992  C     
7    O        17.9073  -35.8059    0.4894  O     
8    C        17.3561  -36.0417    1.6950  C     
9    C        17.8956  -37.0861    2.3262  C     
10   C        16.3624  -35.2246    2.1853  C     
11   O        15.7826  -35.4599    3.3835  O     
12   O        15.9510  -34.1508    1.4751  O     
13   Br       22.0497  -40.1486    0.9014  Br    
14   N        19.8899  -36.3003   -1.8158  N     
15   C        18.7823  -35.7794   -2.5687  C     
16   C        19.2607  -35.1635   -3.9193  C     
17   C        19.7301  -36.2303   -4.9488  C     
18   C        18.6793  -37.3592   -5.1530  C     
19   C        18.2643  -37.9985   -3.7989  C     
20   C        17.7445  -36.9212   -2.8065  C     
21   O        17.5287  -36.8453   -5.8341  O     
22   H        21.5356  -38.1150   -1.1232  H     
23   H        19.8321  -39.1451    2.5766  H     
24   H        17.6705  -37.4249    3.2307  H     
25   H        20.7158  -36.4284   -2.3374  H     
26   H        18.2715  -34.9784   -2.0247  H     
27   H        18.4236  -34.6043   -4.3612  H     
28   H        20.0762  -34.4555   -3.7377  H     
29   H        19.9136  -35.7371   -5.9094  H     
30   H        20.6793  -36.6692   -4.6156  H     
31   H        19.1258  -38.1324   -5.7888  H     
32   H        17.4774  -38.7429   -3.9663  H     
33   H        19.1291  -38.5157   -3.3617  H     
34   H        17.5035  -37.4052   -1.8527  H     
35   H        16.8111  -36.4931   -3.1981  H     
36   H        16.9644  -37.6313   -6.0025  H     
@<TRIPOS>BOND
     1    1    2 2
     2    1    4 1
     3    1   13 1
     4    2    3 1
     5    3    6 2
     6    3   14 1
     7    4    5 2
     8    5    6 1
     9    5    9 1
    10    6    7 1
    11    7    8 1
    12    8    9 2
    13    8   10 1
    14   10   11 1
    15   10   12 2
    16   15   14 1
    17   15   16 1
    18   15   20 1
    19   16   17 1
    20   17   18 1
    21   18   19 1
    22   18   21 1
    23   19   20 1
    24    2   22 1
    25    4   23 1
    26    9   24 1
    27   14   25 1
    28   15   26 1
    29   16   27 1
    30   16   28 1
    31   17   29 1
    32   17   30 1
    33   18   31 1
    34   19   32 1
    35   19   33 1
    36   20   34 1
    37   20   35 1
    38   21   36 1
@<TRIPOS>PROPERTY_DATA
  Total_Score	| 6.9766
  Crash		| -0.8300
  Polar		| 3.1229
  FragIndex	| 1
  FragRMSD	| 0.824

