@<TRIPOS>MOLECULE
BindingDB_50345257
 37 39 0 0 0
SMALL
NO_CHARGES


@<TRIPOS>ATOM
1    C        20.5141  -38.8429    1.6001  C     
2    C        20.6697  -38.2372    0.3364  C     
3    C        19.8284  -37.1734   -0.0910  C     
4    C        19.5260  -38.3937    2.4946  C     
5    C        18.6919  -37.3548    2.0677  C     
6    C        18.8138  -36.7616    0.8112  C     
7    O        17.8843  -35.7704    0.6709  O     
8    C        17.2405  -35.7830    1.8555  C     
9    C        17.6944  -36.7183    2.6924  C     
10   C        16.2410  -34.8783    2.1442  C     
11   O        15.7996  -34.0074    1.2130  O     
12   O        15.6966  -34.8188    3.3825  O     
13   Br       21.6008  -40.2760    2.0355  Br    
14   C        20.0224  -36.6179   -1.3508  C     
15   N        19.0439  -35.9276   -1.9497  N     
16   O        21.0517  -36.8694   -2.0094  O     
17   C        18.9890  -35.3546   -3.2647  C     
18   C        19.7365  -36.1329   -4.3985  C     
19   C        19.0672  -37.4697   -4.7636  C     
20   N        17.6340  -37.2675   -5.0774  N     
21   C        16.8691  -36.6300   -3.9856  C     
22   C        17.4759  -35.2427   -3.6437  C     
23   H        21.4027  -38.5980   -0.2791  H     
24   H        19.4002  -38.8030    3.4263  H     
25   H        17.3677  -36.8927    3.6179  H     
26   H        18.2527  -35.7693   -1.3982  H     
27   H        19.4114  -34.3423   -3.2008  H     
28   H        19.7732  -35.4973   -5.2823  H     
29   H        20.7772  -36.3163   -4.1753  H     
30   H        19.5541  -37.8908   -5.6474  H     
31   H        19.2076  -38.1565   -3.9228  H     
32   H        17.5627  -36.6660   -5.9054  H     
33   H        17.2124  -38.1695   -5.3015  H     
34   H        15.8367  -36.4945   -4.3192  H     
35   H        16.8615  -37.2779   -3.1035  H     
36   H        16.9202  -34.8000   -2.8130  H     
37   H        17.3744  -34.5869   -4.5126  H     
@<TRIPOS>BOND
     1    1    2 2
     2    1    4 1
     3    1   13 1
     4    2    3 1
     5    3    6 2
     6    3   14 1
     7    4    5 2
     8    5    6 1
     9    5    9 1
    10    6    7 1
    11    7    8 1
    12    8    9 2
    13    8   10 1
    14   10   11 1
    15   10   12 2
    16   14   15 am
    17   14   16 2
    18   15   17 1
    19   17   18 1
    20   17   22 1
    21   18   19 1
    22   19   20 1
    23   20   21 1
    24   21   22 1
    25    2   23 1
    26    4   24 1
    27    9   25 1
    28   15   26 1
    29   17   27 1
    30   18   28 1
    31   18   29 1
    32   19   30 1
    33   19   31 1
    34   20   32 1
    35   20   33 1
    36   21   34 1
    37   21   35 1
    38   22   36 1
    39   22   37 1
@<TRIPOS>PROPERTY_DATA
  Total_Score	| 5.9487
  Crash		| -2.0005
  Polar		| 3.0314
  FragIndex	| 1
  FragRMSD	| 1.427

