@<TRIPOS>MOLECULE
BindingDB_50345261
 36 38 0 0 0
SMALL
NO_CHARGES


@<TRIPOS>ATOM
1    C        20.7211  -38.7962    0.8672  C     
2    C        20.6553  -38.0847   -0.3486  C     
3    C        19.6917  -37.0606   -0.5437  C     
4    C        19.8310  -38.4921    1.9211  C     
5    C        18.8894  -37.4713    1.7266  C     
6    C        18.8262  -36.7677    0.5306  C     
7    O        17.8492  -35.8192    0.5729  O     
8    C        17.3364  -35.9713    1.8093  C     
9    C        17.9272  -36.9457    2.5087  C     
10   C        16.3149  -35.1575    2.2488  C     
11   O        15.8160  -35.2439    3.5053  O     
12   O        15.8031  -34.2133    1.4246  O     
13   Br       21.9600  -40.1749    1.0529  Br    
14   N        19.5557  -36.3217   -1.6717  N     
15   C        20.0722  -36.5995   -2.9800  C     
16   C        19.7296  -35.4272   -3.9433  C     
17   C        18.2200  -35.3697   -4.3197  C     
18   C        17.7227  -36.7255   -4.8919  C     
19   C        18.0320  -37.8950   -3.9150  C     
20   C        19.5439  -37.9502   -3.5595  C     
21   O        16.3196  -36.6421   -5.1487  O     
22   H        21.3190  -38.3244   -1.0811  H     
23   H        19.8605  -39.0022    2.8100  H     
24   H        17.7097  -37.2227    3.4365  H     
25   H        19.0498  -35.4942   -1.5894  H     
26   H        21.1652  -36.6559   -2.9219  H     
27   H        20.0212  -34.4697   -3.4872  H     
28   H        20.3201  -35.5389   -4.8626  H     
29   H        17.6319  -35.0989   -3.4364  H     
30   H        18.0578  -34.5859   -5.0580  H     
31   H        18.2271  -36.9027   -5.8490  H     
32   H        17.4406  -37.7792   -2.9935  H     
33   H        17.7446  -38.8347   -4.3928  H     
34   H        20.1147  -38.1878   -4.4624  H     
35   H        19.7047  -38.7677   -2.8554  H     
36   H        16.0955  -37.4850   -5.6084  H     
@<TRIPOS>BOND
     1    1    2 2
     2    1    4 1
     3    1   13 1
     4    2    3 1
     5    3    6 2
     6    3   14 1
     7    4    5 2
     8    5    6 1
     9    5    9 1
    10    6    7 1
    11    7    8 1
    12    8    9 2
    13    8   10 1
    14   10   11 1
    15   10   12 2
    16   15   14 1
    17   15   16 1
    18   15   20 1
    19   16   17 1
    20   17   18 1
    21   18   19 1
    22   18   21 1
    23   19   20 1
    24    2   22 1
    25    4   23 1
    26    9   24 1
    27   14   25 1
    28   15   26 1
    29   16   27 1
    30   16   28 1
    31   17   29 1
    32   17   30 1
    33   18   31 1
    34   19   32 1
    35   19   33 1
    36   20   34 1
    37   20   35 1
    38   21   36 1
@<TRIPOS>PROPERTY_DATA
  Total_Score	| 6.8649
  Crash		| -0.6886
  Polar		| 3.0565
  FragIndex	| 1
  FragRMSD	| 0.099

