@<TRIPOS>MOLECULE
BindingDB_50345260
 38 40 0 0 0
SMALL
NO_CHARGES


@<TRIPOS>ATOM
1    C        20.8132  -38.7774    0.7225  C     
2    C        20.8353  -37.9635   -0.4315  C     
3    C        19.8641  -36.9543   -0.6348  C     
4    C        19.8532  -38.5582    1.7268  C     
5    C        18.9086  -37.5375    1.5353  C     
6    C        18.8996  -36.7527    0.3866  C     
7    O        17.9209  -35.8098    0.4650  O     
8    C        17.3715  -36.0341    1.6715  C     
9    C        17.9190  -37.0705    2.3133  C     
10   C        16.3779  -35.2188    2.1737  C     
11   O        15.9393  -34.1575    1.4643  O     
12   O        15.7927  -35.4536    3.3701  O     
13   Br       22.0371  -40.1652    0.8999  Br    
14   N        19.9203  -36.2873   -1.8168  N     
15   C        18.8478  -35.6577   -2.5311  C     
16   C        19.3361  -35.1289   -3.9130  C     
17   C        19.6701  -36.2692   -4.9153  C     
18   C        18.5248  -37.3109   -5.0742  C     
19   C        18.0285  -37.8212   -3.6970  C     
20   C        17.6608  -36.6521   -2.7462  C     
21   N        17.4031  -36.7679   -5.8574  N     
22   H        21.5456  -38.1474   -1.1497  H     
23   H        19.8354  -39.1305    2.5712  H     
24   H        17.6885  -37.4067    3.2194  H     
25   H        20.7731  -36.3157   -2.2821  H     
26   H        18.4918  -34.7902   -1.9642  H     
27   H        18.5610  -34.4897   -4.3535  H     
28   H        20.2265  -34.5036   -3.7700  H     
29   H        19.9060  -35.8346   -5.8868  H     
30   H        20.5724  -36.7864   -4.5692  H     
31   H        18.9138  -38.1614   -5.6423  H     
32   H        17.1549  -38.4626   -3.8359  H     
33   H        18.8085  -38.4348   -3.2342  H     
34   H        17.3412  -37.0724   -1.7958  H     
35   H        16.8028  -36.1093   -3.1491  H     
36   H        16.9685  -35.9909   -5.3534  H     
37   H        16.7147  -37.5123   -6.0065  H     
38   H        17.7424  -36.4410   -6.7641  H     
@<TRIPOS>BOND
     1    1    2 2
     2    1    4 1
     3    1   13 1
     4    2    3 1
     5    3    6 2
     6    3   14 1
     7    4    5 2
     8    5    6 1
     9    5    9 1
    10    6    7 1
    11    7    8 1
    12    8    9 2
    13    8   10 1
    14   10   11 1
    15   10   12 2
    16   15   14 1
    17   15   16 1
    18   15   20 1
    19   16   17 1
    20   17   18 1
    21   18   19 1
    22   18   21 1
    23   19   20 1
    24    2   22 1
    25    4   23 1
    26    9   24 1
    27   14   25 1
    28   15   26 1
    29   16   27 1
    30   16   28 1
    31   17   29 1
    32   17   30 1
    33   18   31 1
    34   19   32 1
    35   19   33 1
    36   20   34 1
    37   20   35 1
    38   21   36 1
    39   21   37 1
    40   21   38 1
@<TRIPOS>PROPERTY_DATA
  Total_Score	| 7.5421
  Crash		| -0.7271
  Polar		| 3.3501
  FragIndex	| 1
  FragRMSD	| 1.121

