@<TRIPOS>MOLECULE
BindingDB_50345232
 21 22 0 0 0
SMALL
NO_CHARGES


@<TRIPOS>ATOM
1    O        17.7841  -35.8438    0.6230  O     
2    C        17.3469  -35.9726    1.8931  C     
3    C        17.9993  -36.9174    2.5824  C     
4    C        18.9182  -37.4449    1.7509  C     
5    C        18.7764  -36.7747    0.5450  C     
6    C        19.5700  -37.0977   -0.5732  C     
7    C        20.5163  -38.1496   -0.4304  C     
8    C        20.6757  -38.8192    0.8043  C     
9    C        19.8744  -38.4623    1.9108  C     
10   Br       21.9504  -40.1672    0.9436  Br    
11   O        19.3472  -36.3674   -1.7147  O     
12   C        20.4753  -36.0890   -2.5716  C     
13   C        16.3308  -35.1643    2.3664  C     
14   O        15.7264  -34.2783    1.5406  O     
15   O        15.8423  -35.2842    3.6207  O     
16   H        17.8522  -37.1801    3.5339  H     
17   H        21.0875  -38.4230   -1.2334  H     
18   H        19.9814  -38.9456    2.8027  H     
19   H        21.3013  -35.6902   -1.9840  H     
20   H        20.1933  -35.3408   -3.3188  H     
21   H        20.8041  -36.9881   -3.1091  H     
@<TRIPOS>BOND
     1    1    2 1
     2    1    5 1
     3    2    3 2
     4    2   13 1
     5    3    4 1
     6    4    5 1
     7    4    9 2
     8    5    6 2
     9    6    7 1
    10    6   11 1
    11    7    8 2
    12    8    9 1
    13    8   10 1
    14   11   12 1
    15   13   14 2
    16   13   15 1
    17    3   16 1
    18    7   17 1
    19    9   18 1
    20   12   19 1
    21   12   20 1
    22   12   21 1
@<TRIPOS>PROPERTY_DATA
  Total_Score	| 4.3485
  Crash		| -0.4689
  Polar		| 1.5431
  FragIndex	| 1
  FragRMSD	| 0.072

