@<TRIPOS>MOLECULE
BindingDB_50345250
 38 40 0 0 0
SMALL
NO_CHARGES


@<TRIPOS>ATOM
1    C        20.7224  -38.7898    0.8746  C     
2    C        20.6122  -38.1268   -0.3678  C     
3    C        19.6320  -37.1282   -0.5886  C     
4    C        19.8544  -38.4664    1.9370  C     
5    C        18.8783  -37.4853    1.7132  C     
6    C        18.7619  -36.8354    0.4881  C     
7    O        17.7644  -35.9139    0.5168  O     
8    C        17.3079  -36.0046    1.7815  C     
9    C        17.9298  -36.9491    2.5019  C     
10   C        16.3194  -35.1558    2.2389  C     
11   O        15.8219  -34.2067    1.4124  O     
12   O        15.8548  -35.2036    3.5098  O     
13   Br       22.0048  -40.1223    1.0732  Br    
14   N        19.4205  -36.4635   -1.7591  N     
15   C        20.1877  -36.4930   -2.9684  C     
16   C        19.4498  -37.1803   -4.1553  C     
17   C        18.7814  -38.5510   -3.7931  C     
18   C        17.3502  -38.3943   -3.2115  C     
19   N        16.5065  -37.5758   -4.1088  N     
20   C        17.0359  -36.2138   -4.3297  C     
21   C        18.4536  -36.2707   -4.9433  C     
22   H        21.2511  -38.4110   -1.1118  H     
23   H        19.9334  -38.9553    2.8337  H     
24   H        17.7703  -37.1654    3.4647  H     
25   H        18.6604  -35.8481   -1.7595  H     
26   H        20.4353  -35.4537   -3.2380  H     
27   H        21.1511  -36.9910   -2.8297  H     
28   H        20.2487  -37.4176   -4.8692  H     
29   H        18.7210  -39.1565   -4.7001  H     
30   H        19.4126  -39.1052   -3.0793  H     
31   H        16.8817  -39.3867   -3.1376  H     
32   H        17.3906  -37.9343   -2.2084  H     
33   H        16.4325  -38.0447   -5.0157  H     
34   H        15.5634  -37.5232   -3.7184  H     
35   H        16.3677  -35.6866   -5.0125  H     
36   H        17.0638  -35.6584   -3.3910  H     
37   H        18.8663  -35.2583   -5.0302  H     
38   H        18.3614  -36.6666   -5.9586  H     
@<TRIPOS>BOND
     1    1    2 2
     2    1    4 1
     3    1   13 1
     4    2    3 1
     5    3    6 2
     6    3   14 1
     7    4    5 2
     8    5    6 1
     9    5    9 1
    10    6    7 1
    11    7    8 1
    12    8    9 2
    13    8   10 1
    14   10   11 1
    15   10   12 2
    16   14   15 1
    17   15   16 1
    18   16   17 1
    19   16   21 1
    20   17   18 1
    21   18   19 1
    22   19   20 1
    23   20   21 1
    24    2   22 1
    25    4   23 1
    26    9   24 1
    27   14   25 1
    28   15   26 1
    29   15   27 1
    30   16   28 1
    31   17   29 1
    32   17   30 1
    33   18   31 1
    34   18   32 1
    35   19   33 1
    36   19   34 1
    37   20   35 1
    38   20   36 1
    39   21   37 1
    40   21   38 1
@<TRIPOS>PROPERTY_DATA
  Total_Score	| 8.3072
  Crash		| -0.7140
  Polar		| 4.5929
  FragIndex	| 1
  FragRMSD	| 1.000

