@<TRIPOS>MOLECULE
BindingDB_50345254
 37 39 0 0 0
SMALL
NO_CHARGES


@<TRIPOS>ATOM
1    C        20.6801  -38.8459    1.0127  C     
2    C        20.5287  -38.2066   -0.2370  C     
3    C        19.5469  -37.2035   -0.4230  C     
4    C        19.8589  -38.4928    2.1030  C     
5    C        18.8842  -37.5030    1.9039  C     
6    C        18.7183  -36.8811    0.6739  C     
7    O        17.7343  -35.9414    0.7209  O     
8    C        17.3255  -36.0183    1.9983  C     
9    C        17.9753  -36.9414    2.7125  C     
10   C        16.3423  -35.1762    2.4734  C     
11   O        15.7558  -34.2851    1.6416  O     
12   O        15.9512  -35.1881    3.7659  O     
13   Br       21.9517  -40.1876    1.2068  Br    
14   N        19.3370  -36.5563   -1.6067  N     
15   C        20.1138  -36.5658   -2.6861  C     
16   O        21.2290  -37.0792   -2.6249  O     
17   C        19.7459  -35.9059   -3.9392  C     
18   C        19.9234  -36.8666   -5.1633  C     
19   C        18.7718  -37.8992   -5.2588  C     
20   N        17.4614  -37.2045   -5.3091  N     
21   C        17.1917  -36.3108   -4.1646  C     
22   C        18.3211  -35.2589   -4.0165  C     
23   H        21.1207  -38.5010   -1.0157  H     
24   H        19.9658  -38.9508    3.0106  H     
25   H        17.8380  -37.1538    3.6716  H     
26   H        18.5510  -35.9844   -1.6374  H     
27   H        20.4616  -35.0855   -4.0663  H     
28   H        19.9337  -36.2761   -6.0857  H     
29   H        20.8756  -37.3970   -5.1168  H     
30   H        18.8862  -38.4935   -6.1677  H     
31   H        18.7952  -38.5836   -4.4056  H     
32   H        17.4294  -36.6547   -6.1705  H     
33   H        16.7221  -37.9098   -5.3473  H     
34   H        16.2419  -35.8055   -4.3397  H     
35   H        17.0899  -36.9067   -3.2564  H     
36   H        18.1357  -34.6364   -3.1359  H     
37   H        18.2799  -34.5902   -4.8886  H     
@<TRIPOS>BOND
     1    1    2 2
     2    1    4 1
     3    1   13 1
     4    2    3 1
     5    3    6 2
     6    3   14 1
     7    4    5 2
     8    5    6 1
     9    5    9 1
    10    6    7 1
    11    7    8 1
    12    8    9 2
    13    8   10 1
    14   10   11 1
    15   10   12 2
    16   14   15 am
    17   15   16 2
    18   15   17 1
    19   17   18 1
    20   17   22 1
    21   18   19 1
    22   19   20 1
    23   20   21 1
    24   21   22 1
    25    2   23 1
    26    4   24 1
    27    9   25 1
    28   14   26 1
    29   17   27 1
    30   18   28 1
    31   18   29 1
    32   19   30 1
    33   19   31 1
    34   20   32 1
    35   20   33 1
    36   21   34 1
    37   21   35 1
    38   22   36 1
    39   22   37 1
@<TRIPOS>PROPERTY_DATA
  Total_Score	| 6.1460
  Crash		| -1.1035
  Polar		| 2.8308
  FragIndex	| 1
  FragRMSD	| 1.162

