@<TRIPOS>MOLECULE
BindingDB_17054
 63 70 0 0 0
SMALL
NO_CHARGES


@<TRIPOS>ATOM
1    C         9.5125  112.4659   49.8723  C     
2    C         9.8255  114.1189   51.4122  C     
3    N        10.3983  113.2192   50.4805  N     
4    O         9.8565  111.5930   49.0961  O     
5    O        10.3014  113.8210   52.7206  O     
6    C         8.2520  112.7842   50.2994  C     
7    C         8.4001  113.7997   51.2532  C     
8    C         5.9835  113.7981   51.7001  C     
9    C         7.2737  114.2920   51.9521  C     
10   C         6.9598  112.2742   50.0186  C     
11   C         5.8398  112.8003   50.6978  C     
12   C         5.8109  115.1726   53.4052  C     
13   C         7.1537  115.1946   52.9956  C     
14   C         8.1194  116.0001   53.6347  C     
15   C         5.4552  115.9312   54.5486  C     
16   C         6.4128  116.7241   55.2113  C     
17   C         7.7385  116.7735   54.7460  C     
18   C         6.4822  111.2421   49.2057  C     
19   C         5.1012  111.1682   49.4326  C     
20   C         7.0940  110.3398   48.3065  C     
21   C         6.3126  109.3696   47.6472  C     
22   C         4.9256  109.3015   47.8763  C     
23   C         4.3125  110.2040   48.7658  C     
24   N         4.7374  112.1141   50.3325  N     
25   N         5.0929  114.3542   52.5707  N     
26   C         2.9018  111.3061   51.8342  C     
27   O         3.2004  113.6904   51.2475  O     
28   C         3.6463  114.1221   52.5531  C     
29   C         2.8460  115.4667   52.6312  C     
30   C         3.4046  112.3464   50.8011  C     
31   C         3.1317  113.1215   53.6548  C     
32   C         3.3078  111.6026   53.3061  C     
33   O         3.7157  113.4631   54.9276  O     
34   C         2.8748  113.3943   56.0895  C     
35   N         4.5131  110.8481   53.7652  N     
36   C         5.5178  111.3703   54.7182  C     
37   H        10.0363  115.1535   51.1354  H     
38   H        11.3567  113.1375   50.3336  H     
39   H        11.1359  114.3303   52.8087  H     
40   H         9.0821  116.0440   53.3030  H     
41   H         4.5217  115.8943   54.9457  H     
42   H         6.1464  117.2587   56.0410  H     
43   H         8.4268  117.3594   55.2236  H     
44   H         8.0865  110.3744   48.1051  H     
45   H         6.7533  108.7165   46.9949  H     
46   H         4.3628  108.5962   47.3949  H     
47   H         3.3055  110.1469   48.9247  H     
48   H         1.8077  111.3095   51.7809  H     
49   H         3.2229  110.3015   51.5495  H     
50   H         2.7910  115.8617   53.6420  H     
51   H         1.8094  115.3297   52.3109  H     
52   H         3.2983  116.2204   51.9828  H     
53   H         2.7495  112.2784   49.9272  H     
54   H         2.0475  113.2844   53.7192  H     
55   H         2.5301  111.0972   53.8890  H     
56   H         2.0347  114.0870   56.0018  H     
57   H         3.4705  113.6885   56.9523  H     
58   H         2.4996  112.3826   56.2526  H     
59   H         4.1731  109.9716   54.1712  H     
60   H         5.0244  110.5760   52.9234  H     
61   H         6.1935  112.0869   54.2434  H     
62   H         6.1220  110.5284   55.0545  H     
63   H         5.0606  111.8130   55.5975  H     
@<TRIPOS>BOND
     1    1    3 1
     2    1    4 2
     3    1    6 1
     4    2    3 1
     5    2    5 1
     6    2    7 1
     7    6    7 2
     8    6   10 1
     9    7    9 1
    10    8    9 2
    11    8   11 1
    12    8   25 1
    13    9   13 1
    14   10   11 2
    15   10   18 1
    16   11   24 1
    17   12   13 2
    18   12   15 1
    19   12   25 1
    20   13   14 1
    21   14   17 2
    22   15   16 2
    23   16   17 1
    24   18   19 2
    25   18   20 1
    26   19   23 1
    27   19   24 1
    28   20   21 2
    29   21   22 1
    30   22   23 2
    31   24   30 1
    32   25   28 1
    33   26   30 1
    34   26   32 1
    35   27   28 1
    36   27   30 1
    37   28   29 1
    38   28   31 1
    39   31   32 1
    40   31   33 1
    41   32   35 1
    42   33   34 1
    43   35   36 1
    44    2   37 1
    45    3   38 1
    46    5   39 1
    47   14   40 1
    48   15   41 1
    49   16   42 1
    50   17   43 1
    51   20   44 1
    52   21   45 1
    53   22   46 1
    54   23   47 1
    55   26   48 1
    56   26   49 1
    57   29   50 1
    58   29   51 1
    59   29   52 1
    60   30   53 1
    61   31   54 1
    62   32   55 1
    63   34   56 1
    64   34   57 1
    65   34   58 1
    66   35   59 1
    67   35   60 1
    68   36   61 1
    69   36   62 1
    70   36   63 1
@<TRIPOS>PROPERTY_DATA
  Total_Score	| 10.7895
  Crash		| -1.4158
  Polar		| 3.7029
  FragIndex	| 1
  FragRMSD	| 0.881

