@<TRIPOS>MOLECULE
BindingDB_17140
 45 52 0 0 0
SMALL
NO_CHARGES


@<TRIPOS>ATOM
1    C         9.9743  113.7861   51.5292  C     
2    C         9.6561  112.3047   49.9939  C     
3    N        10.5492  112.9890   50.6643  N     
4    O         9.9619  111.4919   49.1388  O     
5    O        10.6196  114.4555   52.3201  O     
6    C         8.6198  113.6474   51.4142  C     
7    C         8.4129  112.6610   50.4331  C     
8    C         7.1035  112.2265   50.1135  C     
9    C         6.0118  112.8149   50.7721  C     
10   C         6.5553  111.2635   49.2595  C     
11   C         5.1618  111.3114   49.4325  C     
12   C         4.3208  110.4265   48.7208  C     
13   C         4.8912  109.4976   47.8302  C     
14   C         6.2895  109.4506   47.6498  C     
15   C         7.1259  110.3299   48.3675  C     
16   C         6.2190  113.8148   51.7451  C     
17   C         7.5154  114.2436   52.0676  C     
18   N         5.3060  114.4667   52.4981  N     
19   N         4.8489  112.2799   50.3387  N     
20   C         3.8799  114.2641   52.4169  C     
21   C         3.4178  112.9986   53.1771  C     
22   C         3.0768  111.9888   52.0691  C     
23   C         3.5288  112.6827   50.7684  C     
24   O         3.4547  114.0865   51.0561  O     
25   C         7.3613  115.2088   53.0679  C     
26   C         5.9857  115.2912   53.3404  C     
27   C         5.5126  116.1134   54.3871  C     
28   C         8.2748  116.0157   53.7782  C     
29   C         7.8078  116.8456   54.8165  C     
30   C         6.4342  116.8734   55.1332  C     
31   H        11.5074  112.8963   50.5481  H     
32   H         3.3056  110.4512   48.8438  H     
33   H         4.2925  108.8584   47.3004  H     
34   H         6.6977  108.7752   46.9958  H     
35   H         8.1284  110.2731   48.2211  H     
36   H         3.3542  115.1420   52.8000  H     
37   H         4.1987  112.6106   53.8345  H     
38   H         2.5310  113.2146   53.7832  H     
39   H         3.5821  111.0315   52.2211  H     
40   H         1.9974  111.8144   52.0410  H     
41   H         2.8054  112.4866   49.9717  H     
42   H         4.5173  116.1456   54.6186  H     
43   H         9.2671  116.0159   53.5627  H     
44   H         8.4698  117.4196   55.3497  H     
45   H         6.1034  117.4537   55.9094  H     
@<TRIPOS>BOND
     1    1    3 1
     2    1    5 2
     3    1    6 1
     4    2    3 1
     5    2    4 2
     6    2    7 1
     7    6    7 1
     8    6   17 2
     9    7    8 2
    10    8    9 1
    11    8   10 1
    12    9   16 2
    13    9   19 1
    14   10   11 2
    15   10   15 1
    16   11   12 1
    17   11   19 1
    18   12   13 2
    19   13   14 1
    20   14   15 2
    21   16   17 1
    22   16   18 1
    23   17   25 1
    24   18   20 1
    25   18   26 1
    26   19   23 1
    27   20   21 1
    28   20   24 1
    29   21   22 1
    30   22   23 1
    31   23   24 1
    32   25   26 2
    33   25   28 1
    34   26   27 1
    35   27   30 2
    36   28   29 2
    37   29   30 1
    38    3   31 1
    39   12   32 1
    40   13   33 1
    41   14   34 1
    42   15   35 1
    43   20   36 1
    44   21   37 1
    45   21   38 1
    46   22   39 1
    47   22   40 1
    48   23   41 1
    49   27   42 1
    50   28   43 1
    51   29   44 1
    52   30   45 1
@<TRIPOS>PROPERTY_DATA
  Total_Score	| 7.6486
  Crash		| -0.3206
  Polar		| 2.2877
  FragIndex	| 1
  FragRMSD	| 0.491

