@<TRIPOS>MOLECULE
BindingDB_50327823
 47 48 0 0 0
SMALL
NO_CHARGES


@<TRIPOS>ATOM
1    N       -43.4284 -113.3902  -30.1896  N     
2    C       -44.4917 -114.1629  -30.3736  C     
3    N       -44.9131 -114.2763  -31.6196  N     
4    O       -44.9891 -114.8045  -29.4530  O     
5    C       -45.8396 -115.2317  -32.1713  C     
6    C       -47.0580 -114.5173  -32.8390  C     
7    C       -47.5609 -115.1920  -34.1504  C     
8    N       -47.4081 -116.6394  -34.1505  N     
9    C       -46.0851 -117.1607  -33.8177  C     
10   C       -45.1009 -116.1152  -33.2169  C     
11   C       -48.4310 -117.4658  -34.4584  C     
12   C       -48.3734 -118.9215  -34.5860  C     
13   O       -49.5566 -117.0021  -34.6293  O     
14   C       -42.6665 -113.1380  -28.9928  C     
15   C       -41.1501 -112.9952  -29.3758  C     
16   C       -40.1345 -113.1272  -28.1951  C     
17   C       -40.7759 -112.7756  -26.8283  C     
18   C       -42.0294 -113.6605  -26.5316  C     
19   C       -42.7827 -114.1555  -27.8111  C     
20   C       -49.1565 -119.6280  -33.4556  C     
21   H       -43.1354 -112.9176  -30.9857  H     
22   H       -44.5167 -113.6642  -32.2557  H     
23   H       -46.2109 -115.8907  -31.3774  H     
24   H       -47.8823 -114.4883  -32.1243  H     
25   H       -46.8073 -113.4797  -33.0781  H     
26   H       -48.5824 -114.8524  -34.3327  H     
27   H       -46.9691 -114.8107  -34.9871  H     
28   H       -45.6307 -117.6104  -34.7050  H     
29   H       -46.1870 -117.9487  -33.0664  H     
30   H       -44.2530 -116.6247  -32.7534  H     
31   H       -44.7046 -115.4834  -34.0183  H     
32   H       -47.3499 -119.2976  -34.5750  H     
33   H       -48.8055 -119.2229  -35.5465  H     
34   H       -43.0123 -112.1701  -28.6092  H     
35   H       -40.8934 -113.7664  -30.1061  H     
36   H       -41.0043 -112.0298  -29.8592  H     
37   H       -39.7645 -114.1587  -28.1415  H     
38   H       -39.2656 -112.4862  -28.3668  H     
39   H       -40.0366 -112.8995  -26.0250  H     
40   H       -41.0580 -111.7188  -26.8534  H     
41   H       -41.7120 -114.5345  -25.9502  H     
42   H       -42.7149 -113.0887  -25.8919  H     
43   H       -42.3566 -115.1088  -28.1242  H     
44   H       -43.8251 -114.3447  -27.5523  H     
45   H       -48.7204 -119.3799  -32.4846  H     
46   H       -50.2034 -119.3157  -33.4578  H     
47   H       -49.1177 -120.7120  -33.5851  H     
@<TRIPOS>BOND
     1    9   10 1
     2    5    6 1
     3    8   11 am
     4    2    3 am
     5   11   12 1
     6    1    2 am
     7   11   13 2
     8    2    4 2
     9    1   14 1
    10   14   15 1
    11    3    5 1
    12    5   10 1
    13    6    7 1
    14    7    8 1
    15   14   19 1
    16   15   16 1
    17   16   17 1
    18   17   18 1
    19   18   19 1
    20    8    9 1
    21   12   20 1
    22    1   21 1
    23    3   22 1
    24    5   23 1
    25    6   24 1
    26    6   25 1
    27    7   26 1
    28    7   27 1
    29    9   28 1
    30    9   29 1
    31   10   30 1
    32   10   31 1
    33   12   32 1
    34   12   33 1
    35   14   34 1
    36   15   35 1
    37   15   36 1
    38   16   37 1
    39   16   38 1
    40   17   39 1
    41   17   40 1
    42   18   41 1
    43   18   42 1
    44   19   43 1
    45   19   44 1
    46   20   45 1
    47   20   46 1
    48   20   47 1
@<TRIPOS>PROPERTY_DATA
  Total_Score	| 9.7893
  Crash		| -1.3614
  Polar		| 5.5140
  FragIndex	| 1
  FragRMSD	| 0.440

