@<TRIPOS>MOLECULE
BindingDB_50124656
 57 57 0 0 0
SMALL
NO_CHARGES


@<TRIPOS>ATOM
1    C       -44.4774 -114.1363  -30.3206  C     
2    N       -43.4357 -113.3316  -30.2158  N     
3    O       -44.9080 -114.8078  -29.3846  O     
4    N       -45.0413 -114.1901  -31.5219  N     
5    C       -42.6634 -112.9703  -29.0391  C     
6    C       -46.1993 -114.9476  -31.8986  C     
7    C       -42.6272 -113.9627  -27.8588  C     
8    C       -41.1722 -112.7921  -29.3931  C     
9    C       -46.5790 -114.5689  -33.3523  C     
10   C       -55.2487 -118.6903  -35.9775  C     
11   C       -55.1728 -117.9903  -34.5669  C     
12   C       -51.5542 -116.2712  -34.2486  C     
13   C       -52.6150 -117.3991  -34.5117  C     
14   C       -54.0817 -116.9030  -34.3685  C     
15   C       -47.9845 -115.0180  -33.8439  C     
16   C       -48.1910 -116.5345  -34.1760  C     
17   C       -49.1966 -116.8260  -35.3389  C     
18   C       -50.5270 -116.0270  -35.4026  C     
19   C       -55.1904 -117.7506  -37.1997  C     
20   C       -40.4202 -112.8293  -28.0449  C     
21   C       -41.2915 -113.6510  -27.0757  C     
22   H       -43.2042 -112.8116  -31.0086  H     
23   H       -44.6563 -113.6008  -32.1926  H     
24   H       -43.0483 -112.0137  -28.6735  H     
25   H       -45.9734 -116.0172  -31.8379  H     
26   H       -47.0239 -114.7114  -31.2210  H     
27   H       -43.4685 -113.8402  -27.1873  H     
28   H       -42.5748 -114.9888  -28.2019  H     
29   H       -40.8349 -113.6271  -30.0152  H     
30   H       -40.9884 -111.8574  -29.9255  H     
31   H       -46.5638 -113.4737  -33.4296  H     
32   H       -45.8145 -114.9511  -34.0347  H     
33   H       -54.4371 -119.4207  -36.0422  H     
34   H       -56.1943 -119.2453  -36.0068  H     
35   H       -56.1431 -117.5323  -34.3773  H     
36   H       -55.0278 -118.7707  -33.8106  H     
37   H       -52.0669 -115.3141  -34.0745  H     
38   H       -51.0093 -116.4968  -33.3195  H     
39   H       -52.4841 -117.8089  -35.5293  H     
40   H       -52.4383 -118.2275  -33.8082  H     
41   H       -54.2559 -116.0826  -35.0903  H     
42   H       -54.2037 -116.4982  -33.3444  H     
43   H       -48.7299 -114.7256  -33.1044  H     
44   H       -48.1727 -114.4348  -34.7458  H     
45   H       -47.2298 -116.9719  -34.4603  H     
46   H       -48.5298 -117.0424  -33.2650  H     
47   H       -48.6562 -116.6247  -36.2752  H     
48   H       -49.4323 -117.9017  -35.3392  H     
49   H       -51.0109 -116.2513  -36.3645  H     
50   H       -50.2822 -114.9596  -35.4472  H     
51   H       -55.9470 -116.9649  -37.1272  H     
52   H       -55.3815 -118.3386  -38.1217  H     
53   H       -54.1964 -117.2909  -37.2906  H     
54   H       -39.4219 -113.2796  -28.1707  H     
55   H       -40.2823 -111.8044  -27.6644  H     
56   H       -41.5101 -113.0720  -26.1854  H     
57   H       -40.7964 -114.5764  -26.7916  H     
@<TRIPOS>BOND
     1    1    2 am
     2    1    3 2
     3    1    4 am
     4    2    5 1
     5    4    6 1
     6    5    7 1
     7    5    8 1
     8    6    9 1
     9    7   21 1
    10    8   20 1
    11    9   15 1
    12   10   11 1
    13   10   19 1
    14   11   14 1
    15   12   13 1
    16   12   18 1
    17   13   14 1
    18   15   16 1
    19   16   17 1
    20   17   18 1
    21   20   21 1
    22    2   22 1
    23    4   23 1
    24    5   24 1
    25    6   25 1
    26    6   26 1
    27    7   27 1
    28    7   28 1
    29    8   29 1
    30    8   30 1
    31    9   31 1
    32    9   32 1
    33   10   33 1
    34   10   34 1
    35   11   35 1
    36   11   36 1
    37   12   37 1
    38   12   38 1
    39   13   39 1
    40   13   40 1
    41   14   41 1
    42   14   42 1
    43   15   43 1
    44   15   44 1
    45   16   45 1
    46   16   46 1
    47   17   47 1
    48   17   48 1
    49   18   49 1
    50   18   50 1
    51   19   51 1
    52   19   52 1
    53   19   53 1
    54   20   54 1
    55   20   55 1
    56   21   56 1
    57   21   57 1
@<TRIPOS>PROPERTY_DATA
  Total_Score	| 10.7307
  Crash		| -1.3009
  Polar		| 5.4352
  FragIndex	| 1
  FragRMSD	| 0.536

