@<TRIPOS>MOLECULE
BindingDB_50196665
 75 77 0 0 0
SMALL
NO_CHARGES


@<TRIPOS>ATOM
1    C       -39.4640 -113.4959  -28.0727  C     
2    C       -40.6383 -112.5591  -27.6405  C     
3    C       -40.0270 -114.9202  -28.3929  C     
4    C       -41.7042 -112.4895  -28.7777  C     
5    C       -41.0939 -114.8364  -29.5269  C     
6    C       -42.2818 -113.9135  -29.1021  C     
7    C       -40.6765 -115.4978  -27.0918  C     
8    C       -41.8441 -114.5614  -26.6348  C     
9    C       -41.2966 -113.1343  -26.3464  C     
10   C       -42.9096 -114.4797  -27.7733  C     
11   N       -43.2217 -113.7511  -30.1929  N     
12   C       -44.3675 -114.3787  -30.4326  C     
13   N       -44.9299 -114.1095  -31.5935  N     
14   O       -44.8378 -115.1956  -29.6500  O     
15   C       -46.0859 -114.7186  -32.1716  C     
16   C       -45.6963 -115.4764  -33.4844  C     
17   C       -46.6530 -115.3083  -34.7024  C     
18   C       -47.9173 -116.2221  -34.7214  C     
19   C       -49.2146 -115.5663  -34.1923  C     
20   C       -50.3410 -116.5955  -33.8654  C     
21   C       -51.7334 -116.2608  -34.4410  C     
22   C       -52.7482 -117.4197  -34.2632  C     
23   C       -54.2320 -117.0018  -34.3970  C     
24   C       -55.1848 -118.2149  -34.6276  C     
25   C       -55.6643 -118.4033  -36.0972  C     
26   C       -54.6372 -118.7842  -37.0471  C     
27   N       -54.6750 -118.3301  -38.2964  N     
28   O       -53.7670 -119.5665  -36.6758  O     
29   C       -53.7501 -118.6317  -39.3303  C     
30   C       -52.3048 -118.1684  -38.9903  C     
31   H       -38.9668 -113.0875  -28.9534  H     
32   H       -38.7171 -113.5519  -27.2767  H     
33   H       -40.2492 -111.5541  -27.4319  H     
34   H       -39.1949 -115.5595  -28.7100  H     
35   H       -42.5131 -111.8161  -28.4711  H     
36   H       -41.2439 -112.0517  -29.6720  H     
37   H       -40.6288 -114.4485  -30.4331  H     
38   H       -41.4618 -115.8374  -29.7530  H     
39   H       -41.0511 -116.5084  -27.2818  H     
40   H       -39.9226 -115.5740  -26.3026  H     
41   H       -42.3010 -114.9775  -25.7268  H     
42   H       -40.5638 -113.1636  -25.5355  H     
43   H       -42.1205 -112.4879  -26.0419  H     
44   H       -43.7493 -113.8558  -27.4421  H     
45   H       -43.2928 -115.4934  -27.9216  H     
46   H       -42.9232 -113.1529  -30.8978  H     
47   H       -44.4609 -113.4716  -32.1501  H     
48   H       -46.5703 -115.4186  -31.4791  H     
49   H       -46.7831 -113.9121  -32.3917  H     
50   H       -44.6969 -115.1456  -33.8173  H     
51   H       -45.6049 -116.5534  -33.2425  H     
52   H       -46.9538 -114.2596  -34.8043  H     
53   H       -46.0710 -115.5568  -35.5962  H     
54   H       -48.1065 -116.5214  -35.7632  H     
55   H       -47.7012 -117.1468  -34.1646  H     
56   H       -48.9938 -114.9960  -33.2925  H     
57   H       -49.5654 -114.8498  -34.9380  H     
58   H       -50.0494 -117.6032  -34.2057  H     
59   H       -50.4260 -116.6794  -32.7760  H     
60   H       -52.1219 -115.3594  -33.9648  H     
61   H       -51.6458 -116.0555  -35.5123  H     
62   H       -52.5116 -118.1880  -35.0121  H     
63   H       -52.6008 -117.8712  -33.2778  H     
64   H       -54.5213 -116.4697  -33.4811  H     
65   H       -54.3258 -116.2747  -35.2110  H     
66   H       -54.7142 -119.1500  -34.2962  H     
67   H       -56.0735 -118.0969  -34.0005  H     
68   H       -56.4327 -119.1728  -36.1103  H     
69   H       -56.1326 -117.4630  -36.4059  H     
70   H       -55.4311 -117.7711  -38.5445  H     
71   H       -53.7491 -119.7079  -39.5617  H     
72   H       -54.0659 -118.1008  -40.2264  H     
73   H       -52.3135 -117.1154  -38.6801  H     
74   H       -51.6636 -118.2716  -39.8664  H     
75   H       -51.8945 -118.7770  -38.1834  H     
@<TRIPOS>BOND
     1    1    2 1
     2    1    3 1
     3    2    4 1
     4    2    9 1
     5    3    5 1
     6    3    7 1
     7    4    6 1
     8    5    6 1
     9    6   10 1
    10    6   11 1
    11    7    8 1
    12    8    9 1
    13    8   10 1
    14   11   12 am
    15   12   13 am
    16   12   14 2
    17   13   15 1
    18   15   16 1
    19   16   17 1
    20   17   18 1
    21   18   19 1
    22   19   20 1
    23   20   21 1
    24   21   22 1
    25   22   23 1
    26   23   24 1
    27   24   25 1
    28   25   26 1
    29   26   27 am
    30   26   28 2
    31   27   29 1
    32   29   30 1
    33    1   31 1
    34    1   32 1
    35    2   33 1
    36    3   34 1
    37    4   35 1
    38    4   36 1
    39    5   37 1
    40    5   38 1
    41    7   39 1
    42    7   40 1
    43    8   41 1
    44    9   42 1
    45    9   43 1
    46   10   44 1
    47   10   45 1
    48   11   46 1
    49   13   47 1
    50   15   48 1
    51   15   49 1
    52   16   50 1
    53   16   51 1
    54   17   52 1
    55   17   53 1
    56   18   54 1
    57   18   55 1
    58   19   56 1
    59   19   57 1
    60   20   58 1
    61   20   59 1
    62   21   60 1
    63   21   61 1
    64   22   62 1
    65   22   63 1
    66   23   64 1
    67   23   65 1
    68   24   66 1
    69   24   67 1
    70   25   68 1
    71   25   69 1
    72   27   70 1
    73   29   71 1
    74   29   72 1
    75   30   73 1
    76   30   74 1
    77   30   75 1
@<TRIPOS>PROPERTY_DATA
  Total_Score	| 11.0419
  Crash		| -3.3566
  Polar		| 5.3392
  FragIndex	| 1
  FragRMSD	| 0.781

