@<TRIPOS>MOLECULE
BindingDB_50192966
 41 41 0 0 0
SMALL
NO_CHARGES


@<TRIPOS>ATOM
1    C       -47.7670 -114.8649  -33.7880  C     
2    C       -48.4406 -116.2543  -33.9722  C     
3    C       -48.5634 -116.7666  -35.4363  C     
4    C       -49.7270 -116.2861  -36.2092  C     
5    O       -50.8131 -115.7353  -35.6097  O     
6    O       -49.8049 -116.5636  -37.5283  O     
7    C       -46.2126 -114.8577  -33.9623  C     
8    C       -45.3970 -114.0795  -32.8879  C     
9    N       -45.5514 -114.6119  -31.5666  N     
10   C       -44.7220 -114.5240  -30.5337  C     
11   N       -43.5335 -113.9395  -30.5620  N     
12   O       -45.1056 -115.0787  -29.5112  O     
13   C       -42.5016 -113.9197  -29.5486  C     
14   C       -42.2217 -112.4481  -29.1398  C     
15   C       -41.0631 -112.3346  -28.1114  C     
16   C       -41.3555 -113.1843  -26.8517  C     
17   C       -41.5892 -114.6706  -27.2178  C     
18   C       -42.7068 -114.8430  -28.2967  C     
19   H       -48.2095 -114.1523  -34.4836  H     
20   H       -48.0155 -114.5174  -32.7858  H     
21   H       -47.8699 -116.9911  -33.4038  H     
22   H       -49.4394 -116.2257  -33.5287  H     
23   H       -47.6595 -116.4972  -35.9889  H     
24   H       -48.6263 -117.8601  -35.4190  H     
25   H       -45.8366 -115.8823  -33.9732  H     
26   H       -45.9804 -114.4307  -34.9438  H     
27   H       -44.3453 -114.1181  -33.1834  H     
28   H       -45.7116 -113.0328  -32.8876  H     
29   H       -46.3755 -115.0988  -31.4090  H     
30   H       -43.3283 -113.4517  -31.3723  H     
31   H       -41.6054 -114.2928  -30.0525  H     
32   H       -41.9589 -111.8698  -30.0305  H     
33   H       -43.1295 -112.0073  -28.7105  H     
34   H       -40.1300 -112.6718  -28.5757  H     
35   H       -40.9347 -111.2900  -27.8205  H     
36   H       -40.5185 -113.0995  -26.1561  H     
37   H       -42.2475 -112.7931  -26.3541  H     
38   H       -40.6554 -115.1028  -27.5854  H     
39   H       -41.8748 -115.2165  -26.3131  H     
40   H       -43.6591 -114.6379  -27.8112  H     
41   H       -42.7274 -115.8841  -28.6196  H     
@<TRIPOS>BOND
     1    1    2 1
     2    1    7 1
     3    2    3 1
     4    3    4 1
     5    4    5 1
     6    4    6 2
     7    7    8 1
     8    8    9 1
     9    9   10 am
    10   10   11 am
    11   10   12 2
    12   11   13 1
    13   13   14 1
    14   13   18 1
    15   14   15 1
    16   15   16 1
    17   16   17 1
    18   17   18 1
    19    1   19 1
    20    1   20 1
    21    2   21 1
    22    2   22 1
    23    3   23 1
    24    3   24 1
    25    7   25 1
    26    7   26 1
    27    8   27 1
    28    8   28 1
    29    9   29 1
    30   11   30 1
    31   13   31 1
    32   14   32 1
    33   14   33 1
    34   15   34 1
    35   15   35 1
    36   16   36 1
    37   16   37 1
    38   17   38 1
    39   17   39 1
    40   18   40 1
    41   18   41 1
@<TRIPOS>PROPERTY_DATA
  Total_Score	| 6.6442
  Crash		| -1.3065
  Polar		| 3.5370
  FragIndex	| 1
  FragRMSD	| 0.848

