@<TRIPOS>MOLECULE
BindingDB_50143925
 54 54 0 0 0
SMALL
NO_CHARGES


@<TRIPOS>ATOM
1    C       -44.8025 -114.4559  -30.4768  C     
2    N       -43.5873 -113.9327  -30.6284  N     
3    O       -45.1386 -115.0137  -29.4488  O     
4    N       -45.7424 -114.4406  -31.4047  N     
5    C       -42.4478 -113.9000  -29.7377  C     
6    C       -45.6500 -113.9171  -32.7295  C     
7    C       -42.2466 -112.4417  -29.2322  C     
8    C       -42.3747 -114.8889  -28.5272  C     
9    C       -46.8901 -114.3115  -33.5733  C     
10   C       -54.3035 -117.2809  -35.0424  C     
11   C       -53.1143 -117.0707  -34.0734  C     
12   C       -49.3227 -116.1345  -34.7417  C     
13   C       -50.5786 -116.6608  -33.9970  C     
14   C       -51.8993 -116.3928  -34.7602  C     
15   C       -46.7888 -115.6978  -34.2907  C     
16   C       -48.0106 -116.6303  -34.0724  C     
17   C       -55.5385 -117.8812  -34.3361  C     
18   C       -41.0522 -114.7408  -27.7322  C     
19   C       -40.9535 -112.2650  -28.3857  C     
20   C       -40.8710 -113.2883  -27.2223  C     
21   H       -43.4388 -113.4913  -31.4792  H     
22   H       -46.5905 -114.8471  -31.1621  H     
23   H       -41.5905 -114.1359  -30.3763  H     
24   H       -45.5882 -112.8300  -32.6683  H     
25   H       -44.7440 -114.2874  -33.2191  H     
26   H       -42.1941 -111.7677  -30.0898  H     
27   H       -43.1102 -112.1375  -28.6324  H     
28   H       -43.2073 -114.7144  -27.8353  H     
29   H       -42.4510 -115.9165  -28.8954  H     
30   H       -47.7667 -114.2812  -32.9229  H     
31   H       -47.0352 -113.5427  -34.3338  H     
32   H       -54.5869 -116.3243  -35.4895  H     
33   H       -53.9986 -117.9561  -35.8477  H     
34   H       -53.4398 -116.4533  -33.2305  H     
35   H       -52.8136 -118.0478  -33.6834  H     
36   H       -49.3368 -116.4726  -35.7818  H     
37   H       -49.3498 -115.0439  -34.7437  H     
38   H       -50.4750 -117.7374  -33.8403  H     
39   H       -50.6311 -116.1763  -33.0172  H     
40   H       -51.8041 -116.7782  -35.7780  H     
41   H       -52.0718 -115.3147  -34.8155  H     
42   H       -46.6509 -115.5415  -35.3651  H     
43   H       -45.9001 -116.2310  -33.9416  H     
44   H       -48.1639 -116.7605  -32.9982  H     
45   H       -47.7725 -117.6120  -34.4898  H     
46   H       -55.2889 -118.8350  -33.8658  H     
47   H       -56.3353 -118.0472  -35.0638  H     
48   H       -55.9019 -117.1950  -33.5696  H     
49   H       -41.0568 -115.4288  -26.8797  H     
50   H       -40.2048 -115.0091  -28.3764  H     
51   H       -40.0807 -112.3814  -29.0345  H     
52   H       -40.9219 -111.2562  -27.9705  H     
53   H       -41.6496 -113.0626  -26.4884  H     
54   H       -39.9048 -113.1914  -26.7198  H     
@<TRIPOS>BOND
     1    1    2 am
     2    1    3 2
     3    1    4 am
     4    2    5 1
     5    4    6 1
     6    5    7 1
     7    5    8 1
     8    6    9 1
     9    7   19 1
    10    8   18 1
    11    9   15 1
    12   10   11 1
    13   10   17 1
    14   11   14 1
    15   12   13 1
    16   12   16 1
    17   13   14 1
    18   15   16 1
    19   18   20 1
    20   19   20 1
    21    2   21 1
    22    4   22 1
    23    5   23 1
    24    6   24 1
    25    6   25 1
    26    7   26 1
    27    7   27 1
    28    8   28 1
    29    8   29 1
    30    9   30 1
    31    9   31 1
    32   10   32 1
    33   10   33 1
    34   11   34 1
    35   11   35 1
    36   12   36 1
    37   12   37 1
    38   13   38 1
    39   13   39 1
    40   14   40 1
    41   14   41 1
    42   15   42 1
    43   15   43 1
    44   16   44 1
    45   16   45 1
    46   17   46 1
    47   17   47 1
    48   17   48 1
    49   18   49 1
    50   18   50 1
    51   19   51 1
    52   19   52 1
    53   20   53 1
    54   20   54 1
@<TRIPOS>PROPERTY_DATA
  Total_Score	| 7.6099
  Crash		| -1.5417
  Polar		| 3.4355
  FragIndex	| 1
  FragRMSD	| 0.887

