@<TRIPOS>MOLECULE
BindingDB_50192936
 35 35 0 0 0
SMALL
NO_CHARGES


@<TRIPOS>ATOM
1    C       -40.7700 -113.2662  -26.8388  C     
2    C       -42.2770 -113.4115  -26.5122  C     
3    C       -43.0674 -113.9856  -27.7175  C     
4    C       -42.8812 -113.1602  -29.0362  C     
5    C       -41.3612 -112.9799  -29.3251  C     
6    C       -40.5625 -112.4171  -28.1162  C     
7    N       -43.4934 -113.6761  -30.2428  N     
8    C       -44.4951 -114.5402  -30.3692  C     
9    O       -45.0662 -115.0083  -29.4035  O     
10   N       -44.9551 -115.0011  -31.5170  N     
11   C       -44.5568 -114.6885  -32.8538  C     
12   C       -45.6815 -113.9142  -33.5897  C     
13   C       -47.0792 -114.6048  -33.6260  C     
14   C       -47.0662 -115.9587  -34.2106  C     
15   O       -46.8523 -117.0315  -33.4167  O     
16   O       -46.8821 -116.1072  -35.5427  O     
17   H       -40.2624 -112.7842  -25.9963  H     
18   H       -40.3288 -114.2570  -26.9791  H     
19   H       -42.3958 -114.0722  -25.6470  H     
20   H       -42.6876 -112.4333  -26.2414  H     
21   H       -42.7746 -115.0236  -27.8880  H     
22   H       -44.1131 -113.9739  -27.4177  H     
23   H       -43.2989 -112.1641  -28.8696  H     
24   H       -40.9262 -113.9435  -29.6136  H     
25   H       -41.2314 -112.2901  -30.1642  H     
26   H       -40.8777 -111.3862  -27.9184  H     
27   H       -39.4960 -112.4033  -28.3621  H     
28   H       -43.1626 -113.2911  -31.0757  H     
29   H       -45.6830 -115.6427  -31.4458  H     
30   H       -43.6316 -114.1101  -32.8822  H     
31   H       -44.3605 -115.6268  -33.3787  H     
32   H       -45.8009 -112.9437  -33.0972  H     
33   H       -45.3616 -113.7178  -34.6198  H     
34   H       -47.4864 -114.6558  -32.6094  H     
35   H       -47.7597 -113.9870  -34.2122  H     
@<TRIPOS>BOND
     1    1    2 1
     2    1    6 1
     3    2    3 1
     4    3    4 1
     5    4    5 1
     6    4    7 1
     7    5    6 1
     8    7    8 am
     9    8    9 2
    10    8   10 am
    11   10   11 1
    12   11   12 1
    13   12   13 1
    14   13   14 1
    15   14   15 1
    16   14   16 2
    17    1   17 1
    18    1   18 1
    19    2   19 1
    20    2   20 1
    21    3   21 1
    22    3   22 1
    23    4   23 1
    24    5   24 1
    25    5   25 1
    26    6   26 1
    27    6   27 1
    28    7   28 1
    29   10   29 1
    30   11   30 1
    31   11   31 1
    32   12   32 1
    33   12   33 1
    34   13   34 1
    35   13   35 1
@<TRIPOS>PROPERTY_DATA
  Total_Score	| 5.8274
  Crash		| -1.9329
  Polar		| 3.7999
  FragIndex	| 1
  FragRMSD	| 0.712

