@<TRIPOS>MOLECULE
BindingDB_50143914
 29 29 0 0 0
SMALL
NO_CHARGES


@<TRIPOS>ATOM
1    C       -44.4868 -114.1481  -30.4095  C     
2    N       -43.4527 -113.3426  -30.1901  N     
3    C       -46.7267 -114.6431  -33.1784  C     
4    N       -44.9130 -114.2272  -31.6564  N     
5    O       -44.9757 -114.8339  -29.5186  O     
6    O       -48.0677 -114.7285  -32.9489  O     
7    C       -45.7794 -115.2246  -32.2149  C     
8    O       -46.3079 -114.2175  -34.4017  O     
9    C       -42.7717 -113.0859  -28.9472  C     
10   C       -42.8554 -114.2014  -27.8507  C     
11   C       -41.2601 -112.8251  -29.2492  C     
12   C       -42.1100 -113.7770  -26.5478  C     
13   C       -40.4430 -112.4425  -27.9844  C     
14   C       -40.6169 -113.4556  -26.8243  C     
15   H       -43.1472 -112.8265  -30.9524  H     
16   H       -44.5352 -113.6035  -32.2867  H     
17   H       -46.3263 -115.7668  -31.4352  H     
18   H       -45.1637 -115.9540  -32.7507  H     
19   H       -43.2063 -112.1644  -28.5271  H     
20   H       -43.8921 -114.4103  -27.5846  H     
21   H       -42.4216 -115.1343  -28.2239  H     
22   H       -40.8266 -113.7249  -29.6885  H     
23   H       -41.1679 -112.0216  -29.9813  H     
24   H       -42.5917 -112.8911  -26.1170  H     
25   H       -42.1669 -114.5788  -25.8070  H     
26   H       -39.3802 -112.3976  -28.2477  H     
27   H       -40.7514 -111.4472  -27.6433  H     
28   H       -40.1596 -113.0475  -25.9189  H     
29   H       -40.0859 -114.3847  -27.0682  H     
@<TRIPOS>BOND
     1    1    2 am
     2    1    4 am
     3    1    5 2
     4    2    9 1
     5    3    6 2
     6    3    7 1
     7    3    8 1
     8    4    7 1
     9    9   10 1
    10    9   11 1
    11   10   12 1
    12   11   13 1
    13   12   14 1
    14   13   14 1
    15    2   15 1
    16    4   16 1
    17    7   17 1
    18    7   18 1
    19    9   19 1
    20   10   20 1
    21   10   21 1
    22   11   22 1
    23   11   23 1
    24   12   24 1
    25   12   25 1
    26   13   26 1
    27   13   27 1
    28   14   28 1
    29   14   29 1
@<TRIPOS>PROPERTY_DATA
  Total_Score	| 7.6195
  Crash		| -0.7453
  Polar		| 5.4982
  FragIndex	| 1
  FragRMSD	| 0.227

