@<TRIPOS>MOLECULE
BindingDB_50143911
 34 34 0 0 0
SMALL
NO_CHARGES


@<TRIPOS>ATOM
1    C       -44.4177 -114.4702  -30.0118  C     
2    N       -43.2883 -114.3776  -29.3227  N     
3    O       -45.3421 -114.9978  -29.4145  O     
4    N       -44.5874 -113.9941  -31.2351  N     
5    C       -42.0434 -113.8095  -29.7382  C     
6    C       -45.8699 -115.1676  -33.0244  C     
7    O       -44.9728 -114.1110  -35.0413  O     
8    C       -45.7993 -113.9942  -31.9985  C     
9    C       -46.1447 -114.7085  -34.4793  C     
10   C       -41.9166 -112.3448  -29.2297  C     
11   C       -40.8591 -114.6678  -29.2277  C     
12   C       -41.7220 -112.2584  -27.6946  C     
13   C       -40.6568 -114.5897  -27.6913  C     
14   C       -40.5312 -113.1155  -27.2101  C     
15   H       -43.3264 -114.6963  -28.4020  H     
16   H       -43.8383 -113.5408  -31.6494  H     
17   H       -41.9812 -113.8029  -30.8335  H     
18   H       -44.9372 -115.7373  -33.0254  H     
19   H       -46.6639 -115.8534  -32.7245  H     
20   H       -44.5564 -113.5940  -34.3169  H     
21   H       -46.6792 -114.0186  -31.3485  H     
22   H       -45.8261 -113.0317  -32.5079  H     
23   H       -46.4053 -115.5697  -35.0989  H     
24   H       -46.9759 -114.0060  -34.5051  H     
25   H       -41.0602 -111.8786  -29.7257  H     
26   H       -42.8113 -111.7807  -29.5176  H     
27   H       -41.0057 -115.7077  -29.5251  H     
28   H       -39.9413 -114.3173  -29.7116  H     
29   H       -41.5491 -111.2163  -27.4093  H     
30   H       -42.6373 -112.5911  -27.1927  H     
31   H       -41.4942 -115.0699  -27.1794  H     
32   H       -39.7439 -115.1308  -27.4221  H     
33   H       -39.6000 -112.6862  -27.5949  H     
34   H       -40.4836 -113.0936  -26.1188  H     
@<TRIPOS>BOND
     1    1    2 am
     2    1    3 2
     3    1    4 am
     4    2    5 1
     5    4    8 1
     6    5   10 1
     7    5   11 1
     8    6    8 1
     9    6    9 1
    10    7    9 1
    11   10   12 1
    12   11   13 1
    13   12   14 1
    14   13   14 1
    15    2   15 1
    16    4   16 1
    17    5   17 1
    18    6   18 1
    19    6   19 1
    20    7   20 1
    21    8   21 1
    22    8   22 1
    23    9   23 1
    24    9   24 1
    25   10   25 1
    26   10   26 1
    27   11   27 1
    28   11   28 1
    29   12   29 1
    30   12   30 1
    31   13   31 1
    32   13   32 1
    33   14   33 1
    34   14   34 1
@<TRIPOS>PROPERTY_DATA
  Total_Score	| 6.4467
  Crash		| -1.5952
  Polar		| 3.8336
  FragIndex	| 1
  FragRMSD	| 1.324

