@<TRIPOS>MOLECULE
BindingDB_50196667
 78 80 0 0 0
SMALL
NO_CHARGES


@<TRIPOS>ATOM
1    C       -39.9325 -112.7355  -28.5400  C     
2    C       -41.2726 -112.2293  -27.9179  C     
3    C       -40.0313 -114.2590  -28.8583  C     
4    C       -42.4066 -112.4216  -28.9753  C     
5    C       -41.1630 -114.4666  -29.9179  C     
6    C       -42.5452 -113.9319  -29.3879  C     
7    C       -40.3675 -115.0514  -27.5522  C     
8    C       -41.7439 -114.5646  -26.9962  C     
9    C       -41.6068 -113.0544  -26.6350  C     
10   C       -42.8643 -114.7464  -28.0764  C     
11   N       -43.4984 -113.9817  -30.4932  N     
12   C       -44.6714 -114.5953  -30.5947  C     
13   N       -45.4674 -114.6042  -31.6573  N     
14   O       -45.1058 -115.2118  -29.6358  O     
15   C       -45.2463 -114.0392  -32.9621  C     
16   C       -46.0376 -114.7940  -34.0736  C     
17   C       -47.5838 -114.9141  -33.8874  C     
18   C       -48.1393 -116.1695  -34.6491  C     
19   C       -49.6549 -116.1761  -34.9719  C     
20   C       -50.6047 -116.7268  -33.8646  C     
21   C       -51.8018 -117.5852  -34.3736  C     
22   C       -52.5780 -117.0443  -35.6209  C     
23   C       -54.0471 -116.5983  -35.3522  C     
24   C       -55.1651 -117.6682  -35.6033  C     
25   C       -55.6337 -118.4418  -34.3387  C     
26   C       -54.9357 -119.6884  -34.1210  C     
27   N       -55.0144 -120.6312  -35.0450  N     
28   O       -54.3718 -119.8860  -33.0436  O     
29   C       -54.4421 -121.9430  -34.9997  C     
30   C       -55.3088 -122.9248  -35.8333  C     
31   C       -52.9677 -121.9655  -35.4899  C     
32   H       -39.7361 -112.1801  -29.4640  H     
33   H       -39.1017 -112.5353  -27.8585  H     
34   H       -41.1854 -111.1739  -27.6533  H     
35   H       -39.0754 -114.6195  -29.2540  H     
36   H       -43.3545 -112.0604  -28.5584  H     
37   H       -42.1924 -111.8009  -29.8510  H     
38   H       -40.8833 -113.9486  -30.8366  H     
39   H       -41.2394 -115.5346  -30.1569  H     
40   H       -40.4112 -116.1295  -27.7575  H     
41   H       -39.5821 -114.8928  -26.7988  H     
42   H       -41.9990 -115.1345  -26.1035  H     
43   H       -40.8138 -112.9207  -25.8917  H     
44   H       -42.5427 -112.7020  -26.1870  H     
45   H       -43.8105 -114.4178  -27.6554  H     
46   H       -42.9549 -115.8044  -28.3208  H     
47   H       -43.2332 -113.4680  -31.2724  H     
48   H       -46.3146 -115.0652  -31.5325  H     
49   H       -45.5560 -112.9841  -32.9340  H     
50   H       -44.1818 -114.1067  -33.2192  H     
51   H       -45.8610 -114.2694  -35.0251  H     
52   H       -45.5960 -115.8015  -34.1609  H     
53   H       -47.8410 -114.9824  -32.8218  H     
54   H       -48.0609 -114.0130  -34.3011  H     
55   H       -47.6049 -116.2352  -35.6057  H     
56   H       -47.8907 -117.0788  -34.0872  H     
57   H       -49.9598 -115.1633  -35.2381  H     
58   H       -49.8013 -116.7910  -35.8701  H     
59   H       -50.0263 -117.3456  -33.1770  H     
60   H       -50.9964 -115.8734  -33.2909  H     
61   H       -51.4068 -118.5779  -34.6250  H     
62   H       -52.4927 -117.7268  -33.5396  H     
63   H       -52.0408 -116.1784  -36.0176  H     
64   H       -52.5656 -117.7968  -36.4154  H     
65   H       -54.1280 -116.1894  -34.3432  H     
66   H       -54.2454 -115.7631  -36.0340  H     
67   H       -56.0416 -117.1477  -35.9935  H     
68   H       -54.8614 -118.3753  -36.3855  H     
69   H       -55.5476 -117.7792  -33.4702  H     
70   H       -56.6994 -118.6681  -34.4422  H     
71   H       -55.5659 -120.4233  -35.8175  H     
72   H       -54.4697 -122.2908  -33.9640  H     
73   H       -56.3400 -122.9195  -35.4727  H     
74   H       -54.9225 -123.9435  -35.7394  H     
75   H       -55.3037 -122.6432  -36.8891  H     
76   H       -52.8864 -121.5176  -36.4820  H     
77   H       -52.5943 -122.9900  -35.5427  H     
78   H       -52.3258 -121.4137  -34.8031  H     
@<TRIPOS>BOND
     1    1    2 1
     2    1    3 1
     3    2    4 1
     4    2    9 1
     5    3    5 1
     6    3    7 1
     7    4    6 1
     8    5    6 1
     9    6   10 1
    10    6   11 1
    11    7    8 1
    12    8    9 1
    13    8   10 1
    14   11   12 am
    15   12   13 am
    16   12   14 2
    17   13   15 1
    18   15   16 1
    19   16   17 1
    20   17   18 1
    21   18   19 1
    22   19   20 1
    23   20   21 1
    24   21   22 1
    25   22   23 1
    26   23   24 1
    27   24   25 1
    28   25   26 1
    29   26   27 am
    30   26   28 2
    31   27   29 1
    32   29   30 1
    33   29   31 1
    34    1   32 1
    35    1   33 1
    36    2   34 1
    37    3   35 1
    38    4   36 1
    39    4   37 1
    40    5   38 1
    41    5   39 1
    42    7   40 1
    43    7   41 1
    44    8   42 1
    45    9   43 1
    46    9   44 1
    47   10   45 1
    48   10   46 1
    49   11   47 1
    50   13   48 1
    51   15   49 1
    52   15   50 1
    53   16   51 1
    54   16   52 1
    55   17   53 1
    56   17   54 1
    57   18   55 1
    58   18   56 1
    59   19   57 1
    60   19   58 1
    61   20   59 1
    62   20   60 1
    63   21   61 1
    64   21   62 1
    65   22   63 1
    66   22   64 1
    67   23   65 1
    68   23   66 1
    69   24   67 1
    70   24   68 1
    71   25   69 1
    72   25   70 1
    73   27   71 1
    74   29   72 1
    75   30   73 1
    76   30   74 1
    77   30   75 1
    78   31   76 1
    79   31   77 1
    80   31   78 1
@<TRIPOS>PROPERTY_DATA
  Total_Score	| 9.0340
  Crash		| -4.9457
  Polar		| 3.3805
  FragIndex	| 1
  FragRMSD	| 0.940

