@<TRIPOS>MOLECULE
BindingDB_50124658
 48 48 0 0 0
SMALL
NO_CHARGES


@<TRIPOS>ATOM
1    C       -44.5415 -114.1103  -30.3879  C     
2    N       -44.8352 -114.1761  -31.6792  N     
3    N       -43.5743 -113.2517  -30.0926  N     
4    C       -45.3534 -115.2907  -32.4538  C     
5    O       -45.0149 -114.9000  -29.5817  O     
6    C       -46.9181 -115.4487  -32.3162  C     
7    C       -47.8025 -116.3672  -33.2687  C     
8    C       -42.8226 -113.0352  -28.8802  C     
9    C       -44.9537 -114.9484  -33.9197  C     
10   C       -44.5662 -116.5582  -31.9720  C     
11   C       -47.1651 -117.7727  -33.5520  C     
12   C       -49.1804 -116.6154  -32.5432  C     
13   C       -48.1450 -115.6747  -34.6345  C     
14   C       -42.9234 -114.1042  -27.7500  C     
15   C       -41.3215 -112.8019  -29.2455  C     
16   C       -40.4518 -112.4242  -28.0189  C     
17   C       -42.0646 -113.7395  -26.5121  C     
18   C       -40.5837 -113.4714  -26.8859  C     
19   H       -44.4656 -113.4549  -32.2068  H     
20   H       -43.2721 -112.7273  -30.8539  H     
21   H       -47.0763 -115.7897  -31.2893  H     
22   H       -47.3466 -114.4402  -32.3509  H     
23   H       -43.2119 -112.0962  -28.4765  H     
24   H       -45.4183 -114.0074  -34.2311  H     
25   H       -45.2805 -115.7298  -34.6023  H     
26   H       -43.8702 -114.8532  -34.0188  H     
27   H       -43.4920 -116.3511  -31.9292  H     
28   H       -44.7022 -117.4109  -32.6326  H     
29   H       -44.8811 -116.8650  -30.9693  H     
30   H       -46.1915 -117.7089  -34.0736  H     
31   H       -47.8307 -118.3749  -34.1795  H     
32   H       -47.0171 -118.3099  -32.6077  H     
33   H       -49.0339 -117.1613  -31.6010  H     
34   H       -49.8596 -117.2109  -33.1594  H     
35   H       -49.6759 -115.6661  -32.3182  H     
36   H       -48.4473 -114.6346  -34.4861  H     
37   H       -48.9653 -116.1921  -35.1444  H     
38   H       -47.2980 -115.6910  -35.3148  H     
39   H       -43.9584 -114.1815  -27.4242  H     
40   H       -42.6109 -115.0819  -28.1325  H     
41   H       -40.9125 -113.7090  -29.7031  H     
42   H       -41.2468 -111.9969  -29.9790  H     
43   H       -39.4044 -112.3573  -28.3292  H     
44   H       -40.7589 -111.4449  -27.6430  H     
45   H       -42.4813 -112.8415  -26.0461  H     
46   H       -42.1128 -114.5510  -25.7775  H     
47   H       -40.1150 -114.4106  -27.1999  H     
48   H       -40.0550 -113.1079  -25.9999  H     
@<TRIPOS>BOND
     1    1    2 am
     2    1    3 am
     3    1    5 2
     4    2    4 1
     5    3    8 1
     6    4    6 1
     7    4    9 1
     8    4   10 1
     9    6    7 1
    10    7   11 1
    11    7   12 1
    12    7   13 1
    13    8   14 1
    14    8   15 1
    15   14   17 1
    16   15   16 1
    17   16   18 1
    18   17   18 1
    19    2   19 1
    20    3   20 1
    21    6   21 1
    22    6   22 1
    23    8   23 1
    24    9   24 1
    25    9   25 1
    26    9   26 1
    27   10   27 1
    28   10   28 1
    29   10   29 1
    30   11   30 1
    31   11   31 1
    32   11   32 1
    33   12   33 1
    34   12   34 1
    35   12   35 1
    36   13   36 1
    37   13   37 1
    38   13   38 1
    39   14   39 1
    40   14   40 1
    41   15   41 1
    42   15   42 1
    43   16   43 1
    44   16   44 1
    45   17   45 1
    46   17   46 1
    47   18   47 1
    48   18   48 1
@<TRIPOS>PROPERTY_DATA
  Total_Score	| 8.4011
  Crash		| -1.9269
  Polar		| 5.2547
  FragIndex	| 1
  FragRMSD	| 0.697

