@<TRIPOS>MOLECULE
BindingDB_50143908
 32 32 0 0 0
SMALL
NO_CHARGES


@<TRIPOS>ATOM
1    C       -44.5190 -114.5402  -30.3668  C     
2    C       -47.0632 -114.6028  -33.7057  C     
3    N       -43.4933 -113.7046  -30.2439  N     
4    C       -45.7624 -113.9179  -33.6057  C     
5    O       -45.0536 -115.0118  -29.3722  O     
6    N       -45.0435 -114.9835  -31.5014  N     
7    O       -47.8919 -114.6374  -32.6381  O     
8    C       -44.6649 -114.7147  -32.8513  C     
9    O       -47.2539 -115.5357  -34.6695  O     
10   C       -42.8772 -113.2298  -29.0143  C     
11   C       -42.9860 -114.1801  -27.7762  C     
12   C       -41.3778 -112.9330  -29.3035  C     
13   C       -42.2517 -113.6136  -26.5310  C     
14   C       -40.6060 -112.3970  -28.0647  C     
15   C       -40.7632 -113.3341  -26.8390  C     
16   H       -43.1584 -113.3163  -31.0679  H     
17   H       -45.4100 -113.7167  -34.6214  H     
18   H       -45.9083 -112.9561  -33.1139  H     
19   H       -45.7801 -115.6054  -31.4117  H     
20   H       -44.5101 -115.6705  -33.3591  H     
21   H       -43.7275 -114.1601  -32.9060  H     
22   H       -43.3672 -112.2822  -28.7622  H     
23   H       -44.0315 -114.3243  -27.5063  H     
24   H       -42.5709 -115.1584  -28.0247  H     
25   H       -40.8940 -113.8519  -29.6472  H     
26   H       -41.2997 -112.1944  -30.1036  H     
27   H       -42.7358 -112.6828  -26.2209  H     
28   H       -42.3281 -114.3216  -25.7054  H     
29   H       -39.5496 -112.3064  -28.3141  H     
30   H       -40.9798 -111.4047  -27.8075  H     
31   H       -40.2884 -112.8745  -25.9654  H     
32   H       -40.2445 -114.2818  -27.0371  H     
@<TRIPOS>BOND
     1    1    3 am
     2    1    5 2
     3    1    6 am
     4    2    4 1
     5    2    7 2
     6    2    9 1
     7    3   10 1
     8    4    8 1
     9    6    8 1
    10   10   11 1
    11   10   12 1
    12   11   13 1
    13   12   14 1
    14   13   15 1
    15   14   15 1
    16    3   16 1
    17    4   17 1
    18    4   18 1
    19    6   19 1
    20    8   20 1
    21    8   21 1
    22   10   22 1
    23   11   23 1
    24   11   24 1
    25   12   25 1
    26   12   26 1
    27   13   27 1
    28   13   28 1
    29   14   29 1
    30   14   30 1
    31   15   31 1
    32   15   32 1
@<TRIPOS>PROPERTY_DATA
  Total_Score	| 6.0864
  Crash		| -1.5319
  Polar		| 3.6917
  FragIndex	| 1
  FragRMSD	| 0.650

