@<TRIPOS>MOLECULE
BindingDB_50124654
 29 28 0 0 0
SMALL
NO_CHARGES


@<TRIPOS>ATOM
1    C       -44.4120 -114.3088  -30.0354  C     
2    O       -45.0130 -115.0530  -29.2792  O     
3    N       -43.3193 -113.7557  -29.5397  N     
4    N       -44.8696 -114.0701  -31.2568  N     
5    C       -46.0400 -114.6703  -31.8281  C     
6    C       -42.4756 -112.8369  -30.2153  C     
7    C       -46.2253 -114.2770  -33.3163  C     
8    C       -49.1247 -116.7324  -34.4814  C     
9    C       -47.7059 -116.1024  -34.4914  C     
10   C       -47.6144 -114.6694  -33.8916  C     
11   C       -50.1153 -116.1394  -35.5026  C     
12   H       -43.0789 -113.9919  -28.6302  H     
13   H       -44.3684 -113.4472  -31.8048  H     
14   H       -45.9415 -115.7580  -31.7524  H     
15   H       -46.9225 -114.3480  -31.2571  H     
16   H       -42.0650 -113.3071  -31.1112  H     
17   H       -41.6494 -112.5573  -29.5611  H     
18   H       -43.0305 -111.9347  -30.4837  H     
19   H       -46.1169 -113.1910  -33.3993  H     
20   H       -45.4296 -114.7254  -33.9140  H     
21   H       -49.0254 -117.8028  -34.6924  H     
22   H       -49.5535 -116.6359  -33.4805  H     
23   H       -47.0597 -116.7700  -33.9131  H     
24   H       -47.3284 -116.0777  -35.5189  H     
25   H       -48.3617 -114.5667  -33.1047  H     
26   H       -47.8675 -113.9470  -34.6681  H     
27   H       -50.2545 -115.0712  -35.3290  H     
28   H       -51.0834 -116.6338  -35.4074  H     
29   H       -49.7443 -116.2773  -36.5235  H     
@<TRIPOS>BOND
     1    1    2 2
     2    1    3 am
     3    1    4 am
     4    3    6 1
     5    4    5 1
     6    5    7 1
     7    7   10 1
     8    8    9 1
     9    8   11 1
    10    9   10 1
    11    3   12 1
    12    4   13 1
    13    5   14 1
    14    5   15 1
    15    6   16 1
    16    6   17 1
    17    6   18 1
    18    7   19 1
    19    7   20 1
    20    8   21 1
    21    8   22 1
    22    9   23 1
    23    9   24 1
    24   10   25 1
    25   10   26 1
    26   11   27 1
    27   11   28 1
    28   11   29 1
@<TRIPOS>PROPERTY_DATA
  Total_Score	| 4.5698
  Crash		| -1.0636
  Polar		| 3.0189
  FragIndex	| 1
  FragRMSD	| 0.704

