@<TRIPOS>MOLECULE
BindingDB_8066
 42 44 0 0 0
SMALL
NO_CHARGES


@<TRIPOS>ATOM
1    C        12.5574   41.5548   11.7165  C     
2    C        12.2448   42.6190   13.7535  C     
3    C        13.2367   43.5044   13.2517  C     
4    N        11.9205   41.5910   12.9060  N     
5    C        11.5282   42.7208   15.0507  C     
6    S        13.6220   42.9018   11.6859  S     
7    C        13.8939   44.6571   13.7571  C     
8    C        13.5592   45.2970   14.9739  C     
9    C        14.3111   46.4037   15.3865  C     
10   C        15.6738   46.2428   13.4320  C     
11   N        14.9407   45.1755   13.0494  N     
12   N        15.3328   46.8350   14.6070  N     
13   N        16.7223   46.7415   12.7401  N     
14   C        17.3115   46.4176   11.5545  C     
15   C        19.1223   46.9637   10.0011  C     
16   C        18.4401   47.1789   11.2080  C     
17   C        16.8849   45.4157   10.6611  C     
18   C        17.5630   45.2015    9.4449  C     
19   C        18.7032   45.9776    9.0560  C     
20   C        12.3389   40.5780   10.6554  C     
21   N        19.3406   45.8043    7.8391  N     
22   C        20.7953   45.6736    7.7264  C     
23   C        18.6070   45.7912    6.5766  C     
24   H        12.2457   42.6967   15.8739  H     
25   H        10.8302   41.8775   15.1744  H     
26   H        10.9461   43.6447   15.0834  H     
27   H        12.7975   44.9988   15.5778  H     
28   H        14.1131   46.8889   16.2757  H     
29   H        17.1588   47.4695   13.1998  H     
30   H        19.9207   47.5710    9.8326  H     
31   H        18.7606   47.9231   11.8379  H     
32   H        16.0768   44.8259   10.8758  H     
33   H        17.1932   44.4580    8.8579  H     
34   H        12.6253   39.5907   11.0071  H     
35   H        12.9347   40.8174    9.7768  H     
36   H        11.2859   40.5627   10.3738  H     
37   H        21.2644   46.5653    8.1519  H     
38   H        21.1701   45.5755    6.6994  H     
39   H        21.1406   44.7897    8.2806  H     
40   H        17.8721   44.9945    6.6119  H     
41   H        19.2088   45.6021    5.6761  H     
42   H        18.0949   46.7511    6.4407  H     
@<TRIPOS>BOND
     1    1    4 2
     2    1    6 1
     3    1   20 1
     4    2    3 2
     5    2    4 1
     6    2    5 1
     7    3    6 1
     8    3    7 1
     9    7    8 1
    10    7   11 2
    11    8    9 2
    12    9   12 1
    13   10   11 1
    14   10   12 2
    15   10   13 1
    16   13   14 1
    17   14   16 1
    18   14   17 2
    19   15   16 2
    20   15   19 1
    21   17   18 1
    22   18   19 2
    23   19   21 1
    24   21   22 1
    25   21   23 1
    26    5   24 1
    27    5   25 1
    28    5   26 1
    29    8   27 1
    30    9   28 1
    31   13   29 1
    32   15   30 1
    33   16   31 1
    34   17   32 1
    35   18   33 1
    36   20   34 1
    37   20   35 1
    38   20   36 1
    39   22   37 1
    40   22   38 1
    41   22   39 1
    42   23   40 1
    43   23   41 1
    44   23   42 1
@<TRIPOS>PROPERTY_DATA
  Total_Score	| 5.3170
  Crash		| -3.9905
  Polar		| 2.0639
  FragIndex	| 1
  FragRMSD	| 0.165

