@<TRIPOS>MOLECULE
BindingDB_16636
 33 35 0 0 0
SMALL
NO_CHARGES


@<TRIPOS>ATOM
1    C        17.1043   -7.2012   16.1453  C     
2    C        15.9922   -6.2417   18.4061  C     
3    C        17.3135   -6.6073   18.4133  C     
4    C        17.8711   -7.0877   17.2794  C     
5    N        15.8589   -6.8520   16.2051  N     
6    N        15.3000   -6.3963   17.2758  N     
7    O        15.4346   -5.7822   19.3910  O     
8    C        17.3040   -6.6071   13.4072  C     
9    C        18.0308   -5.5546   12.8136  C     
10   C        15.8940   -5.5599   12.0950  C     
11   C        17.1193   -4.9091   11.9705  C     
12   C        17.2395   -3.8012   11.1052  C     
13   C        14.7546   -5.1392   11.3916  C     
14   S        17.6811   -7.7739   14.6447  S     
15   O        19.1156   -8.4590   14.6637  O     
16   O        16.7292   -9.0093   14.3398  O     
17   C        14.8691   -4.0338   10.5253  C     
18   C        16.1092   -3.3718   10.3735  C     
19   O        16.0211   -6.5737   12.9684  O     
20   C        19.4273   -5.0597   12.9657  C     
21   C        20.4381   -5.9093   13.7549  C     
22   Cl       16.2385   -2.0624    9.3092  Cl    
23   H        17.8579   -6.5262   19.2419  H     
24   H        18.8274   -7.3563   17.2752  H     
25   H        14.3580   -6.1668   17.2504  H     
26   H        18.1350   -3.3181   11.0056  H     
27   H        13.8642   -5.6274   11.5074  H     
28   H        14.0484   -3.7160   10.0047  H     
29   H        19.8439   -4.9072   11.9657  H     
30   H        19.3841   -4.0831   13.4519  H     
31   H        20.0919   -6.0745   14.7777  H     
32   H        21.3943   -5.3908   13.7950  H     
33   H        20.6054   -6.8577   13.2528  H     
@<TRIPOS>BOND
     1    1    4 1
     2    1    5 2
     3    1   14 1
     4    2    3 1
     5    2    6 1
     6    2    7 2
     7    3    4 2
     8    5    6 1
     9    8    9 2
    10    8   14 1
    11    8   19 1
    12    9   11 1
    13    9   20 1
    14   10   11 2
    15   10   13 1
    16   10   19 1
    17   11   12 1
    18   12   18 2
    19   13   17 2
    20   14   15 2
    21   14   16 2
    22   17   18 1
    23   18   22 1
    24   20   21 1
    25    3   23 1
    26    4   24 1
    27    6   25 1
    28   12   26 1
    29   13   27 1
    30   17   28 1
    31   20   29 1
    32   20   30 1
    33   21   31 1
    34   21   32 1
    35   21   33 1
@<TRIPOS>PROPERTY_DATA
  Total_Score	| 9.2911
  Crash		| -0.9863
  Polar		| 2.9494
  FragIndex	| 1
  FragRMSD	| 0.436

