@<TRIPOS>MOLECULE
BindingDB_16632
 30 32 0 0 0
SMALL
NO_CHARGES


@<TRIPOS>ATOM
1    C        17.3497   -6.9650   16.1829  C     
2    C        16.0853   -6.1384   18.4135  C     
3    C        17.3888   -6.5584   18.5003  C     
4    C        18.0193   -6.9748   17.3836  C     
5    N        16.1146   -6.5766   16.1679  N     
6    N        15.4873   -6.1824   17.2218  N     
7    O        15.4648   -5.7341   19.3824  O     
8    C        17.6098   -6.4880   13.4248  C     
9    C        18.3491   -5.4019   12.9415  C     
10   C        16.4077   -5.6067   11.8380  C     
11   C        17.5761   -4.8436   11.9249  C     
12   C        17.7804   -3.7511   11.0594  C     
13   C        15.4133   -5.3206   10.8918  C     
14   S        18.0088   -7.5610   14.7276  S     
15   O        19.5765   -7.8087   14.8281  O     
16   O        17.3040   -8.9539   14.4245  O     
17   C        15.6180   -4.2377   10.0135  C     
18   C        16.7911   -3.4548   10.0982  C     
19   O        16.4372   -6.5983   12.7515  O     
20   C        19.6558   -4.9308   13.4323  C     
21   Cl       14.4935   -3.9073    8.8034  Cl    
22   H        17.8666   -6.5616   19.3756  H     
23   H        18.9631   -7.2849   17.4352  H     
24   H        14.5534   -5.9400   17.1450  H     
25   H        18.6351   -3.1912   11.1043  H     
26   H        14.5819   -5.9137   10.8378  H     
27   H        16.9444   -2.6782    9.4472  H     
28   H        19.5772   -4.7211   14.4974  H     
29   H        19.9751   -4.0232   12.9226  H     
30   H        20.4096   -5.7006   13.2712  H     
@<TRIPOS>BOND
     1    1    4 1
     2    1    5 2
     3    1   14 1
     4    2    3 1
     5    2    6 1
     6    2    7 2
     7    3    4 2
     8    5    6 1
     9    8    9 2
    10    8   14 1
    11    8   19 1
    12    9   11 1
    13    9   20 1
    14   10   11 2
    15   10   13 1
    16   10   19 1
    17   11   12 1
    18   12   18 2
    19   13   17 2
    20   14   15 2
    21   14   16 2
    22   17   18 1
    23   17   21 1
    24    3   22 1
    25    4   23 1
    26    6   24 1
    27   12   25 1
    28   13   26 1
    29   18   27 1
    30   20   28 1
    31   20   29 1
    32   20   30 1
@<TRIPOS>PROPERTY_DATA
  Total_Score	| 6.0453
  Crash		| -1.8977
  Polar		| 2.2330
  FragIndex	| 1
  FragRMSD	| 0.623

