@<TRIPOS>MOLECULE
BindingDB_16634
 33 35 0 0 0
SMALL
NO_CHARGES


@<TRIPOS>ATOM
1    C        17.5612   -6.8592   16.5615  C     
2    C        16.6501   -5.8481   18.8935  C     
3    C        16.6940   -7.2025   18.7242  C     
4    C        17.1465   -7.7081   17.5578  C     
5    N        17.5451   -5.5873   16.7953  N     
6    N        17.1168   -5.0777   17.9084  N     
7    O        16.1863   -5.3427   19.9053  O     
8    C        17.4199   -6.4267   13.7526  C     
9    C        18.0326   -5.4018   13.0180  C     
10   C        15.9167   -5.7075   12.3360  C     
11   C        17.0662   -4.9480   12.1201  C     
12   C        17.0788   -3.9406   11.1374  C     
13   C        14.7520   -5.4959   11.5863  C     
14   S        18.0797   -7.4082   15.0270  S     
15   O        19.6685   -7.4146   14.9948  O     
16   O        17.6213   -8.9088   14.7619  O     
17   C        14.7573   -4.4864   10.6035  C     
18   C        15.9135   -3.6912   10.3669  C     
19   O        16.1430   -6.5979   13.3250  O     
20   C        19.4114   -4.8934   13.1708  C     
21   C        15.8788   -2.6292    9.3217  C     
22   F        15.5937   -3.1890    8.0990  F     
23   F        14.9125   -1.7027    9.6287  F     
24   F        17.0572   -1.9383    9.1675  F     
25   H        16.3994   -7.8134   19.4511  H     
26   H        17.1757   -8.6928   17.4334  H     
27   H        17.1052   -4.1133   18.0129  H     
28   H        17.9250   -3.3816   11.0036  H     
29   H        13.9208   -6.0635   11.7522  H     
30   H        13.9037   -4.3312   10.0622  H     
31   H        19.5345   -4.4851   14.1740  H     
32   H        19.6402   -4.1026   12.4563  H     
33   H        20.1229   -5.7035   13.0142  H     
@<TRIPOS>BOND
     1    1    4 1
     2    1    5 2
     3    1   14 1
     4    2    3 1
     5    2    6 1
     6    2    7 2
     7    3    4 2
     8    5    6 1
     9    8    9 2
    10    8   14 1
    11    8   19 1
    12    9   11 1
    13    9   20 1
    14   10   11 2
    15   10   13 1
    16   10   19 1
    17   11   12 1
    18   12   18 2
    19   13   17 2
    20   14   15 2
    21   14   16 2
    22   17   18 1
    23   18   21 1
    24   21   22 1
    25   21   23 1
    26   21   24 1
    27    3   25 1
    28    4   26 1
    29    6   27 1
    30   12   28 1
    31   13   29 1
    32   17   30 1
    33   20   31 1
    34   20   32 1
    35   20   33 1
@<TRIPOS>PROPERTY_DATA
  Total_Score	| 7.8665
  Crash		| -0.6392
  Polar		| 1.0418
  FragIndex	| 1
  FragRMSD	| 0.689

