@<TRIPOS>MOLECULE
BindingDB_16630
 31 33 0 0 0
SMALL
NO_CHARGES


@<TRIPOS>ATOM
1    C        17.5596   -6.9993   16.4858  C     
2    C        16.6144   -6.4766   18.9610  C     
3    C        15.7316   -6.7122   17.9428  C     
4    C        16.2061   -6.9802   16.7078  C     
5    N        18.3499   -6.7796   17.4876  N     
6    N        17.9184   -6.5287   18.6859  N     
7    O        16.2339   -6.2231   20.0980  O     
8    C        17.4519   -6.4236   13.6861  C     
9    C        18.0818   -5.6560   12.7118  C     
10   C        15.8675   -5.6027   12.4216  C     
11   C        17.0766   -5.1377   11.9119  C     
12   C        17.1205   -4.3202   10.7774  C     
13   C        14.6491   -5.2563   11.8162  C     
14   S        18.2411   -7.3091   14.9531  S     
15   O        19.7941   -6.9550   14.9687  O     
16   O        18.1247   -8.8586   14.6247  O     
17   C        14.6725   -4.4261   10.6800  C     
18   C        15.8995   -3.9544   10.1604  C     
19   O        16.1078   -6.3833   13.4987  O     
20   O        15.9064   -3.2024    9.0170  O     
21   C        15.9591   -1.7910    9.2801  C     
22   H        14.7509   -6.6941   18.1110  H     
23   H        15.5644   -7.1653   15.9751  H     
24   H        18.5634   -6.3639   19.3938  H     
25   H        19.0888   -5.5087   12.5988  H     
26   H        18.0080   -3.9977   10.3932  H     
27   H        13.7641   -5.6040   12.2014  H     
28   H        13.7902   -4.1858   10.2227  H     
29   H        15.0582   -1.4481    9.7965  H     
30   H        16.0224   -1.2795    8.3224  H     
31   H        16.8421   -1.5181    9.8688  H     
@<TRIPOS>BOND
     1    1    4 1
     2    1    5 2
     3    1   14 1
     4    2    3 1
     5    2    6 1
     6    2    7 2
     7    3    4 2
     8    5    6 1
     9    8    9 2
    10    8   14 1
    11    8   19 1
    12    9   11 1
    13   10   11 2
    14   10   13 1
    15   10   19 1
    16   11   12 1
    17   12   18 2
    18   13   17 2
    19   14   15 2
    20   14   16 2
    21   17   18 1
    22   18   20 1
    23   20   21 1
    24    3   22 1
    25    4   23 1
    26    6   24 1
    27    9   25 1
    28   12   26 1
    29   13   27 1
    30   17   28 1
    31   21   29 1
    32   21   30 1
    33   21   31 1
@<TRIPOS>PROPERTY_DATA
  Total_Score	| 7.9538
  Crash		| -0.4463
  Polar		| 1.2148
  FragIndex	| 1
  FragRMSD	| 0.989

