@<TRIPOS>MOLECULE
BindingDB_16457
 27 29 0 0 0
SMALL
NO_CHARGES


@<TRIPOS>ATOM
1    C        16.0474   -6.2583   18.4498  C     
2    C        17.3624   -6.6316   18.5438  C     
3    C        18.0084   -7.0120   17.4164  C     
4    C        17.3574   -6.9820   16.2107  C     
5    O        15.4222   -5.8524   19.4237  O     
6    N        15.4474   -6.3409   17.2621  N     
7    N        16.1034   -6.6524   16.1912  N     
8    S        18.1418   -7.2881   14.7298  S     
9    O        19.7028   -7.0265   14.8615  O     
10   O        17.9696   -8.8274   14.3796  O     
11   C        17.4547   -6.3225   13.4606  C     
12   C        15.9439   -5.3722   12.1921  C     
13   C        17.1850   -4.8532   11.8209  C     
14   C        14.7562   -4.9462   11.5746  C     
15   C        14.8407   -3.9513   10.5773  C     
16   C        16.1020   -3.4242   10.1884  C     
17   C        17.2892   -3.8690   10.8171  C     
18   C        18.1490   -5.4620   12.6126  C     
19   O        16.1226   -6.2591   13.2048  O     
20   Cl       16.1874   -2.2127    9.0070  Cl    
21   H        17.8298   -6.6516   19.4160  H     
22   H        18.9454   -7.3209   17.4755  H     
23   H        14.5151   -6.0948   17.1775  H     
24   H        13.8446   -5.3099   11.8741  H     
25   H        13.9720   -3.6185   10.1341  H     
26   H        18.2005   -3.4900   10.5657  H     
27   H        19.1700   -5.3147   12.5656  H     
@<TRIPOS>BOND
     1    1    2 1
     2    1    5 2
     3    1    6 1
     4    2    3 2
     5    3    4 1
     6    4    7 2
     7    4    8 1
     8    6    7 1
     9    8    9 2
    10    8   10 2
    11    8   11 1
    12   11   18 2
    13   11   19 1
    14   12   13 2
    15   12   14 1
    16   12   19 1
    17   13   17 1
    18   13   18 1
    19   14   15 2
    20   15   16 1
    21   16   17 2
    22   16   20 1
    23    2   21 1
    24    3   22 1
    25    6   23 1
    26   14   24 1
    27   15   25 1
    28   17   26 1
    29   18   27 1
@<TRIPOS>PROPERTY_DATA
  Total_Score	| 7.3600
  Crash		| -0.4050
  Polar		| 2.9682
  FragIndex	| 1
  FragRMSD	| 0.580

