@<TRIPOS>MOLECULE
BindingDB_16637
 36 38 0 0 0
SMALL
NO_CHARGES


@<TRIPOS>ATOM
1    C        16.9637   -7.0256   16.3057  C     
2    C        16.1244   -5.9686   18.6360  C     
3    C        16.7920   -7.1613   18.6480  C     
4    C        17.2279   -7.6834   17.4822  C     
5    N        16.3328   -5.8956   16.3604  N     
6    N        15.9643   -5.3469   17.4684  N     
7    O        15.6674   -5.4730   19.6502  O     
8    C        16.9164   -6.6442   13.4767  C     
9    C        17.6706   -5.5692   12.9637  C     
10   C        15.6398   -5.6817   11.9969  C     
11   C        16.8444   -4.9720   11.9904  C     
12   C        16.9576   -3.8731   11.1067  C     
13   C        14.5371   -5.3294   11.2025  C     
14   S        17.2169   -7.7545   14.7858  S     
15   O        18.5827   -8.5699   14.7670  O     
16   O        16.0924   -8.8676   14.7018  O     
17   C        14.6516   -4.2106   10.3591  C     
18   C        15.8608   -3.4874   10.3024  C     
19   O        15.7007   -6.6826   12.8885  O     
20   C        19.0031   -5.1490   13.5213  C     
21   C        19.9917   -6.3403   13.7678  C     
22   Cl       15.9940   -2.1405    9.2852  Cl    
23   C        19.7430   -4.0241   12.7562  C     
24   H        16.9500   -7.6436   19.5004  H     
25   H        17.7068   -8.5544   17.4848  H     
26   H        15.5055   -4.4910   17.4401  H     
27   H        17.8127   -3.3305   11.0401  H     
28   H        13.6666   -5.8612   11.2517  H     
29   H        13.8488   -3.9178    9.7955  H     
30   H        18.7748   -4.7070   14.4993  H     
31   H        20.0890   -6.5232   14.8395  H     
32   H        21.0035   -6.1302   13.4105  H     
33   H        19.6634   -7.2590   13.2772  H     
34   H        20.0977   -4.3842   11.7932  H     
35   H        20.5959   -3.6922   13.3413  H     
36   H        19.1070   -3.1557   12.6059  H     
@<TRIPOS>BOND
     1    1    4 1
     2    1    5 2
     3    1   14 1
     4    2    3 1
     5    2    6 1
     6    2    7 2
     7    3    4 2
     8    5    6 1
     9    8    9 2
    10    8   14 1
    11    8   19 1
    12    9   11 1
    13    9   20 1
    14   10   11 2
    15   10   13 1
    16   10   19 1
    17   11   12 1
    18   12   18 2
    19   13   17 2
    20   14   15 2
    21   14   16 2
    22   17   18 1
    23   18   22 1
    24   20   21 1
    25   20   23 1
    26    3   24 1
    27    4   25 1
    28    6   26 1
    29   12   27 1
    30   13   28 1
    31   17   29 1
    32   20   30 1
    33   21   31 1
    34   21   32 1
    35   21   33 1
    36   23   34 1
    37   23   35 1
    38   23   36 1
@<TRIPOS>PROPERTY_DATA
  Total_Score	| 6.9604
  Crash		| -3.1189
  Polar		| 2.7759
  FragIndex	| 1
  FragRMSD	| 0.587

