@<TRIPOS>MOLECULE
BindingDB_16629
 30 32 0 0 0
SMALL
NO_CHARGES


@<TRIPOS>ATOM
1    C        17.5293   -6.9959   16.3858  C     
2    C        16.5759   -6.5361   18.8690  C     
3    C        15.6983   -6.6785   17.8339  C     
4    C        16.1775   -6.8997   16.5882  C     
5    N        18.3202   -6.8255   17.4035  N     
6    N        17.8889   -6.6029   18.6059  N     
7    O        16.1749   -6.3313   20.0080  O     
8    C        17.4372   -6.3895   13.6163  C     
9    C        17.9712   -5.2853   12.9296  C     
10   C        15.8657   -5.6998   12.2781  C     
11   C        16.9599   -4.8462   12.0783  C     
12   C        16.8776   -3.7884   11.1495  C     
13   C        14.6756   -5.5412   11.5543  C     
14   S        18.1791   -7.3640   14.8459  S     
15   O        19.7636   -7.2305   14.8391  O     
16   O        17.8378   -8.8902   14.5303  O     
17   C        14.5930   -4.5031   10.6032  C     
18   C        15.6837   -3.6273   10.4100  C     
19   O        16.1654   -6.6230   13.2124  O     
20   C        19.3155   -4.6995   13.1060  C     
21   H        14.7182   -6.6467   17.9857  H     
22   H        15.5484   -7.0178   15.8337  H     
23   H        18.5305   -6.5071   19.3313  H     
24   H        17.6685   -3.1586   10.9930  H     
25   H        13.8970   -6.1851   11.7020  H     
26   H        13.7353   -4.3840   10.0588  H     
27   H        15.6133   -2.8725    9.7237  H     
28   H        19.4475   -4.3970   14.1453  H     
29   H        19.4556   -3.8224   12.4755  H     
30   H        20.0791   -5.4335   12.8415  H     
@<TRIPOS>BOND
     1    1    4 1
     2    1    5 2
     3    1   14 1
     4    2    3 1
     5    2    6 1
     6    2    7 2
     7    3    4 2
     8    5    6 1
     9    8    9 2
    10    8   14 1
    11    8   19 1
    12    9   11 1
    13    9   20 1
    14   10   11 2
    15   10   13 1
    16   10   19 1
    17   11   12 1
    18   12   18 2
    19   13   17 2
    20   14   15 2
    21   14   16 2
    22   17   18 1
    23    3   21 1
    24    4   22 1
    25    6   23 1
    26   12   24 1
    27   13   25 1
    28   17   26 1
    29   18   27 1
    30   20   28 1
    31   20   29 1
    32   20   30 1
@<TRIPOS>PROPERTY_DATA
  Total_Score	| 7.3390
  Crash		| -0.4364
  Polar		| 1.1676
  FragIndex	| 1
  FragRMSD	| 0.916

