@<TRIPOS>MOLECULE
BindingDB_16635
 33 35 0 0 0
SMALL
NO_CHARGES


@<TRIPOS>ATOM
1    C        17.2736   -7.1380   16.1486  C     
2    C        16.0009   -6.2555   18.3505  C     
3    C        17.3292   -6.5825   18.4344  C     
4    C        17.9686   -7.0147   17.3298  C     
5    N        16.0150   -6.8357   16.1333  N     
6    N        15.3789   -6.4319   17.1834  N     
7    O        15.3591   -5.8671   19.3128  O     
8    C        17.4548   -6.5412   13.4567  C     
9    C        18.1372   -5.4270   12.9580  C     
10   C        16.1004   -5.6132   12.0083  C     
11   C        17.2646   -4.8380   12.0306  C     
12   C        17.3668   -3.7141   11.1926  C     
13   C        15.0191   -5.3065   11.1614  C     
14   S        17.9860   -7.6465   14.6861  S     
15   O        19.5696   -7.7446   14.7513  O     
16   O        17.4262   -9.0889   14.3130  O     
17   C        15.1176   -4.1843   10.3220  C     
18   C        16.2864   -3.3744   10.3328  C     
19   O        16.2253   -6.6354   12.8793  O     
20   C        19.4919   -4.9859   13.3629  C     
21   C        16.3969   -2.1879    9.4547  C     
22   H        17.8104   -6.5444   19.3078  H     
23   H        18.9088   -7.3343   17.4026  H     
24   H        14.4262   -6.2368   17.1126  H     
25   H        18.2286   -3.1652   11.1876  H     
26   H        14.1782   -5.8879   11.1606  H     
27   H        14.3288   -3.9507    9.7082  H     
28   H        19.5027   -4.8473   14.4484  H     
29   H        19.7747   -4.0512   12.8805  H     
30   H        20.2210   -5.7541   13.0925  H     
31   H        16.4366   -1.2826   10.0633  H     
32   H        15.5598   -2.1004    8.7584  H     
33   H        17.3081   -2.2545    8.8567  H     
@<TRIPOS>BOND
     1    1    4 1
     2    1    5 2
     3    1   14 1
     4    2    3 1
     5    2    6 1
     6    2    7 2
     7    3    4 2
     8    5    6 1
     9    8    9 2
    10    8   14 1
    11    8   19 1
    12    9   11 1
    13    9   20 1
    14   10   11 2
    15   10   13 1
    16   10   19 1
    17   11   12 1
    18   12   18 2
    19   13   17 2
    20   14   15 2
    21   14   16 2
    22   17   18 1
    23   18   21 1
    24    3   22 1
    25    4   23 1
    26    6   24 1
    27   12   25 1
    28   13   26 1
    29   17   27 1
    30   20   28 1
    31   20   29 1
    32   20   30 1
    33   21   31 1
    34   21   32 1
    35   21   33 1
@<TRIPOS>PROPERTY_DATA
  Total_Score	| 8.4550
  Crash		| -0.6800
  Polar		| 2.1407
  FragIndex	| 1
  FragRMSD	| 0.525

