@<TRIPOS>MOLECULE
BindingDB_16631
 27 29 0 0 0
SMALL
NO_CHARGES


@<TRIPOS>ATOM
1    C        17.2758   -7.0937   16.0425  C     
2    C        15.9922   -6.2664   18.2648  C     
3    C        17.3146   -6.6205   18.3462  C     
4    C        17.9570   -7.0357   17.2339  C     
5    N        16.0157   -6.7886   16.0360  N     
6    N        15.3746   -6.3968   17.0888  N     
7    O        15.3716   -5.8378   19.2264  O     
8    C        17.4152   -6.4345   13.3482  C     
9    C        18.1411   -5.4240   12.7170  C     
10   C        16.0113   -5.4150   12.0267  C     
11   C        17.2453   -4.7876   11.8695  C     
12   C        17.3943   -3.7156   10.9736  C     
13   C        14.8846   -4.9930   11.3070  C     
14   S        17.9900   -7.5320   14.5578  S     
15   O        19.5777   -7.5581   14.5893  O     
16   O        17.4577   -8.9786   14.1674  O     
17   C        15.0187   -3.9199   10.4009  C     
18   C        16.2719   -3.2821   10.2330  C     
19   Cl       16.4093   -2.0032    9.1345  Cl    
20   Cl       13.3968   -5.7506   11.5566  Cl    
21   O        16.1278   -6.4084   12.9345  O     
22   H        17.7976   -6.6023   19.2154  H     
23   H        18.9081   -7.3211   17.2889  H     
24   H        14.4301   -6.1880   17.0061  H     
25   H        19.1272   -5.1893   12.8632  H     
26   H        18.3057   -3.2667   10.8665  H     
27   H        14.2098   -3.5978    9.8682  H     
@<TRIPOS>BOND
     1    1    4 1
     2    1    5 2
     3    1   14 1
     4    2    3 1
     5    2    6 1
     6    2    7 2
     7    3    4 2
     8    5    6 1
     9    8    9 2
    10    8   14 1
    11    8   21 1
    12    9   11 1
    13   10   11 2
    14   10   13 1
    15   10   21 1
    16   11   12 1
    17   12   18 2
    18   13   17 2
    19   13   20 1
    20   14   15 2
    21   14   16 2
    22   17   18 1
    23   18   19 1
    24    3   22 1
    25    4   23 1
    26    6   24 1
    27    9   25 1
    28   12   26 1
    29   17   27 1
@<TRIPOS>PROPERTY_DATA
  Total_Score	| 6.4224
  Crash		| -1.6524
  Polar		| 3.0891
  FragIndex	| 1
  FragRMSD	| 0.518

