@<TRIPOS>MOLECULE
BindingDB_16633
 30 32 0 0 0
SMALL
NO_CHARGES


@<TRIPOS>ATOM
1    C        17.4478   -6.8218   16.2788  C     
2    C        16.1661   -5.9501   18.4773  C     
3    C        16.8859   -7.1138   18.5495  C     
4    C        17.5169   -7.5538   17.4439  C     
5    N        16.7926   -5.6963   16.3007  N     
6    N        16.1780   -5.2511   17.3437  N     
7    O        15.5090   -5.5448   19.4284  O     
8    C        17.4893   -6.3871   13.5013  C     
9    C        18.0289   -5.2927   12.8078  C     
10   C        15.9335   -5.6922   12.1324  C     
11   C        17.0262   -4.8444   11.9335  C     
12   C        16.9213   -3.7815   11.0193  C     
13   C        14.7473   -5.5338   11.4161  C     
14   S        18.1584   -7.3314   14.8089  S     
15   O        19.7309   -7.1674   14.9251  O     
16   O        17.8620   -8.8755   14.5644  O     
17   C        14.6478   -4.4809   10.4724  C     
18   C        15.7281   -3.5946   10.2836  C     
19   O        16.2228   -6.6118   13.0797  O     
20   C        19.3785   -4.7176   13.0125  C     
21   F        15.6333   -2.6060    9.4349  F     
22   H        16.9594   -7.6286   19.4089  H     
23   H        18.0534   -8.3967   17.4848  H     
24   H        15.7225   -4.3987   17.3073  H     
25   H        17.6995   -3.1443   10.8759  H     
26   H        13.9511   -6.1596   11.5544  H     
27   H        13.7824   -4.3434    9.9534  H     
28   H        19.4598   -4.3428   14.0379  H     
29   H        19.5832   -3.9012   12.3190  H     
30   H        20.1328   -5.4941   12.8537  H     
@<TRIPOS>BOND
     1    1    4 1
     2    1    5 2
     3    1   14 1
     4    2    3 1
     5    2    6 1
     6    2    7 2
     7    3    4 2
     8    5    6 1
     9    8    9 2
    10    8   14 1
    11    8   19 1
    12    9   11 1
    13    9   20 1
    14   10   11 2
    15   10   13 1
    16   10   19 1
    17   11   12 1
    18   12   18 2
    19   13   17 2
    20   14   15 2
    21   14   16 2
    22   17   18 1
    23   18   21 1
    24    3   22 1
    25    4   23 1
    26    6   24 1
    27   12   25 1
    28   13   26 1
    29   17   27 1
    30   20   28 1
    31   20   29 1
    32   20   30 1
@<TRIPOS>PROPERTY_DATA
  Total_Score	| 7.7777
  Crash		| -0.5476
  Polar		| 2.0202
  FragIndex	| 1
  FragRMSD	| 0.619

