@<TRIPOS>MOLECULE
BindingDB_16315
 30 32 0 0 0
SMALL
NO_CHARGES


@<TRIPOS>ATOM
1    C        14.8935   -5.1061   11.4342  C     
2    C        14.9680   -4.0234   10.5312  C     
3    C        16.1946   -3.3466   10.3409  C     
4    C        17.3457   -3.7253   11.0749  C     
5    C        17.2489   -4.8026   11.9776  C     
6    C        16.0490   -5.4827   12.1412  C     
7    C        18.1323   -5.3952   12.8218  C     
8    C        17.4553   -6.4012   13.4050  C     
9    Cl       16.2800   -2.0705    9.2317  Cl    
10   O        16.1658   -6.4991   13.0320  O     
11   C        19.4916   -4.9254   13.0381  C     
12   C        17.3396   -7.0307   16.1043  C     
13   C        18.0399   -7.0343   17.2831  C     
14   C        17.4263   -6.6365   18.4249  C     
15   C        16.1152   -6.2349   18.3723  C     
16   O        15.5095   -5.8402   19.3596  O     
17   N        15.4826   -6.2941   17.1976  N     
18   N        16.0961   -6.6644   16.1197  N     
19   S        17.9938   -7.5033   14.6000  S     
20   O        17.2970   -8.8968   14.2775  O     
21   O        19.5561   -7.7996   14.6341  O     
22   H        14.0143   -5.6051   11.5765  H     
23   H        14.1287   -3.7413   10.0134  H     
24   H        18.2281   -3.2276   10.9503  H     
25   H        20.0704   -5.0512   12.1241  H     
26   H        20.0036   -5.4579   13.8339  H     
27   H        19.4881   -3.8670   13.3001  H     
28   H        18.9879   -7.3396   17.3143  H     
29   H        17.9227   -6.6412   19.2885  H     
30   H        14.5437   -6.0466   17.1317  H     
@<TRIPOS>BOND
     1    1    2 1
     2    1    6 2
     3    2    3 2
     4    3    4 1
     5    3    9 1
     6    4    5 2
     7    5    6 1
     8    5    7 1
     9    6   10 1
    10    7    8 2
    11    7   11 1
    12    8   10 1
    13    8   19 1
    14   12   13 1
    15   12   18 2
    16   12   19 1
    17   13   14 2
    18   14   15 1
    19   15   16 2
    20   15   17 1
    21   17   18 1
    22   19   20 2
    23   19   21 2
    24    1   22 1
    25    2   23 1
    26    4   24 1
    27   11   25 1
    28   11   26 1
    29   11   27 1
    30   13   28 1
    31   14   29 1
    32   17   30 1
@<TRIPOS>PROPERTY_DATA
  Total_Score	| 8.4167
  Crash		| -0.6736
  Polar		| 2.9688
  FragIndex	| 1
  FragRMSD	| 0.442

