@<TRIPOS>MOLECULE
BindingDB_16456
 27 29 0 0 0
SMALL
NO_CHARGES


@<TRIPOS>ATOM
1    C        16.0339   -6.2812   18.4406  C     
2    C        17.3432   -6.6657   18.5434  C     
3    C        18.0244   -6.9826   17.4185  C     
4    C        17.3882   -6.9115   16.2000  C     
5    O        15.3796   -5.9444   19.4133  O     
6    N        15.4664   -6.2784   17.2333  N     
7    N        16.1412   -6.5716   16.1733  N     
8    S        18.1681   -7.2478   14.7193  S     
9    O        19.7132   -6.8912   14.8064  O     
10   O        18.0381   -8.8028   14.4186  O     
11   C        17.4018   -6.3628   13.4461  C     
12   C        15.8523   -5.6816   12.0683  C     
13   C        16.9611   -4.8597   11.8652  C     
14   C        14.6797   -5.5108   11.3131  C     
15   C        14.6427   -4.4872   10.3437  C     
16   C        15.7640   -3.6493   10.1406  C     
17   C        16.9367   -3.8331   10.9059  C     
18   C        17.9435   -5.2895   12.7442  C     
19   O        16.1291   -6.5825   13.0362  O     
20   H        17.7910   -6.7229   19.4298  H     
21   H        18.9723   -7.2758   17.4847  H     
22   H        14.5304   -6.0451   17.1415  H     
23   H        13.8721   -6.1224   11.4626  H     
24   H        13.8044   -4.3622    9.7742  H     
25   H        15.7271   -2.9143    9.4287  H     
26   H        17.7492   -3.2287   10.7633  H     
27   H        18.8778   -4.8914   12.8544  H     
@<TRIPOS>BOND
     1    1    2 1
     2    1    5 2
     3    1    6 1
     4    2    3 2
     5    3    4 1
     6    4    7 2
     7    4    8 1
     8    6    7 1
     9    8    9 2
    10    8   10 2
    11    8   11 1
    12   11   18 2
    13   11   19 1
    14   12   13 2
    15   12   14 1
    16   12   19 1
    17   13   17 1
    18   13   18 1
    19   14   15 2
    20   15   16 1
    21   16   17 2
    22    2   20 1
    23    3   21 1
    24    6   22 1
    25   14   23 1
    26   15   24 1
    27   16   25 1
    28   17   26 1
    29   18   27 1
@<TRIPOS>PROPERTY_DATA
  Total_Score	| 5.9206
  Crash		| -0.5906
  Polar		| 2.0885
  FragIndex	| 1
  FragRMSD	| 0.635

