@<TRIPOS>MOLECULE
BindingDB_50148292
 50 51 0 0 0
SMALL
NO_CHARGES


@<TRIPOS>ATOM
1    C        72.7228   -8.7310  134.1549  C     
2    C        71.9651   -8.8626  136.6552  C     
3    O        72.6900   -9.1838  135.4390  O     
4    N        73.5364   -9.2401  133.2061  N     
5    O        71.9023   -7.7489  133.7365  O     
6    O        76.7435  -10.5380  133.1561  O     
7    C        71.0377  -10.0865  136.9736  C     
8    C        75.7081  -10.0137  132.7722  C     
9    C        69.6962  -10.0445  136.3170  C     
10   C        74.4116  -10.3686  133.3246  C     
11   C        73.0642   -8.6351  137.7280  C     
12   C        71.2041   -7.5021  136.7258  C     
13   C        68.5104  -10.0514  137.0915  C     
14   C        69.5776   -9.9766  134.9098  C     
15   C        73.7806  -11.5989  132.6067  C     
16   C        72.7406  -12.6173  130.4733  C     
17   C        73.6077  -11.4760  131.0660  C     
18   C        72.2231   -6.4158  137.1341  C     
19   C        73.5083   -7.1722  137.5236  C     
20   C        72.0890  -12.2314  129.1278  C     
21   C        68.3139   -9.8954  134.2958  C     
22   C        67.2461   -9.9794  136.4781  C     
23   C        67.1487   -9.8997  135.0795  C     
24   H        73.4489   -8.8496  132.3177  H     
25   H        71.5357  -11.0052  136.6627  H     
26   H        70.9118  -10.1629  138.0584  H     
27   H        75.7821   -9.2759  132.1163  H     
28   H        74.5377  -10.6367  134.3820  H     
29   H        72.6611   -8.7485  138.7402  H     
30   H        73.9076   -9.3220  137.6137  H     
31   H        70.6984   -7.2577  135.7914  H     
32   H        70.4339   -7.5496  137.5023  H     
33   H        68.5560  -10.0972  138.1120  H     
34   H        70.4084   -9.9871  134.3191  H     
35   H        74.3873  -12.4828  132.8235  H     
36   H        72.7970  -11.7688  133.0514  H     
37   H        73.3652  -13.5006  130.3203  H     
38   H        71.9486  -12.8780  131.1816  H     
39   H        73.1352  -10.5196  130.8281  H     
40   H        74.5935  -11.4970  130.5921  H     
41   H        72.4057   -5.7162  136.3148  H     
42   H        71.8483   -5.8447  137.9878  H     
43   H        73.9570   -6.7586  138.4323  H     
44   H        74.2410   -7.1136  136.7102  H     
45   H        71.4558  -11.3498  129.2486  H     
46   H        71.4722  -13.0574  128.7677  H     
47   H        72.8561  -12.0182  128.3805  H     
48   H        68.2447   -9.8416  133.2781  H     
49   H        66.3997   -9.9819  137.0498  H     
50   H        66.2312   -9.8452  134.6320  H     
@<TRIPOS>BOND
     1    1    3 1
     2    1    4 am
     3    1    5 2
     4    2    3 1
     5    2    7 1
     6    2   11 1
     7    2   12 1
     8    4   10 1
     9    6    8 2
    10    7    9 1
    11    8   10 1
    12    9   13 1
    13    9   14 2
    14   10   15 1
    15   11   19 1
    16   12   18 1
    17   13   22 2
    18   14   21 1
    19   15   17 1
    20   16   17 1
    21   16   20 1
    22   18   19 1
    23   21   23 2
    24   22   23 1
    25    4   24 1
    26    7   25 1
    27    7   26 1
    28    8   27 1
    29   10   28 1
    30   11   29 1
    31   11   30 1
    32   12   31 1
    33   12   32 1
    34   13   33 1
    35   14   34 1
    36   15   35 1
    37   15   36 1
    38   16   37 1
    39   16   38 1
    40   17   39 1
    41   17   40 1
    42   18   41 1
    43   18   42 1
    44   19   43 1
    45   19   44 1
    46   20   45 1
    47   20   46 1
    48   20   47 1
    49   21   48 1
    50   22   49 1
    51   23   50 1
@<TRIPOS>PROPERTY_DATA
  Total_Score	| 2.5974
  Crash		| -1.7146
  Polar		| 1.0062
  FragIndex	| 1
  FragRMSD	| 1.092

