@<TRIPOS>MOLECULE
BindingDB_50287550
 68 71 0 0 0
SMALL
NO_CHARGES


@<TRIPOS>ATOM
1    C        34.8355  117.6923   10.3190  C     
2    C        35.1860  118.5304    9.2486  C     
3    C        34.6576  119.8324    9.1660  C     
4    C        33.7645  120.2766   10.1651  C     
5    C        33.4204  119.4509   11.2623  C     
6    C        33.9769  118.1469   11.3448  C     
7    O        33.5780  117.2918   12.3490  O     
8    C        34.6164  116.5582   13.0373  C     
9    C        34.0431  115.9311   14.3161  C     
10   C        32.5309  119.9474   12.2471  C     
11   N        31.3995  120.6142   11.8772  N     
12   C        32.0345  120.3334   14.5368  C     
13   N        32.8158  119.8246   13.5809  N     
14   C        30.8734  121.0110   14.1841  C     
15   C        30.5808  121.1302   12.8297  C     
16   C        29.4104  121.8656   12.7442  C     
17   N        29.0465  122.1646   14.0096  N     
18   N        29.9016  121.6630   14.8596  N     
19   C        29.7948  121.8246   16.2708  C     
20   C        28.7006  122.2974   11.5240  C     
21   C        27.1966  121.9301   11.5622  C     
22   C        26.4110  122.4654   10.3447  C     
23   O        32.3884  120.2269   15.7005  O     
24   S        35.0191  120.8333    7.7880  S     
25   N        33.8559  120.7343    6.5551  N     
26   O        35.0939  122.3332    8.3229  O     
27   O        36.4504  120.4732    7.1865  O     
28   C        32.9439  119.6193    6.4661  C     
29   C        31.4988  120.0999    6.8048  C     
30   N        31.3053  121.5713    6.5792  N     
31   C        32.1140  122.0985    5.4287  C     
32   C        33.6394  121.8424    5.6573  C     
33   C        29.8824  122.0328    6.6165  C     
34   C        28.9122  121.5146    5.5234  C     
35   O        29.3928  121.7976    4.2098  O     
36   H        35.2080  116.7422   10.3372  H     
37   H        35.8052  118.1731    8.5208  H     
38   H        33.3727  121.2181   10.0928  H     
39   H        34.9957  115.7548   12.4000  H     
40   H        35.4509  117.2073   13.3137  H     
41   H        33.7046  116.7171   14.9981  H     
42   H        34.8096  115.3383   14.8213  H     
43   H        33.1975  115.2798   14.0754  H     
44   H        33.6437  119.3961   13.8363  H     
45   H        29.7058  120.8474   16.7534  H     
46   H        28.9160  122.4193   16.5341  H     
47   H        30.6817  122.3329   16.6576  H     
48   H        28.8177  123.3795   11.4198  H     
49   H        29.1601  121.8324   10.6456  H     
50   H        27.0907  120.8424   11.5908  H     
51   H        26.7467  122.3400   12.4710  H     
52   H        26.4205  123.5561   10.3396  H     
53   H        25.3757  122.1280   10.3987  H     
54   H        26.8495  122.1001    9.4137  H     
55   H        32.9575  119.2621    5.4288  H     
56   H        33.2128  118.7751    7.1028  H     
57   H        30.8044  119.5042    6.2014  H     
58   H        31.2996  119.8904    7.8620  H     
59   H        31.7338  122.0092    7.3970  H     
60   H        31.8010  121.6005    4.5007  H     
61   H        31.9600  123.1782    5.3220  H     
62   H        34.0937  122.7657    6.0373  H     
63   H        34.1159  121.6142    4.6993  H     
64   H        29.4733  121.7623    7.5976  H     
65   H        29.8886  123.1264    6.5822  H     
66   H        28.7683  120.4364    5.6316  H     
67   H        27.9418  122.0053    5.6474  H     
68   H        28.8473  121.2324    3.6213  H     
@<TRIPOS>BOND
     1    1    2 2
     2    1    6 1
     3    2    3 1
     4    3    4 2
     5    3   24 1
     6    4    5 1
     7    5    6 2
     8    5   10 1
     9    6    7 1
    10    7    8 1
    11    8    9 1
    12   10   11 2
    13   10   13 1
    14   11   15 1
    15   12   13 1
    16   12   14 1
    17   12   23 2
    18   14   15 2
    19   14   18 1
    20   15   16 1
    21   16   17 2
    22   16   20 1
    23   17   18 1
    24   18   19 1
    25   20   21 1
    26   21   22 1
    27   24   25 1
    28   24   26 2
    29   24   27 2
    30   25   28 1
    31   25   32 1
    32   28   29 1
    33   29   30 1
    34   30   31 1
    35   30   33 1
    36   31   32 1
    37   33   34 1
    38   34   35 1
    39    1   36 1
    40    2   37 1
    41    4   38 1
    42    8   39 1
    43    8   40 1
    44    9   41 1
    45    9   42 1
    46    9   43 1
    47   13   44 1
    48   19   45 1
    49   19   46 1
    50   19   47 1
    51   20   48 1
    52   20   49 1
    53   21   50 1
    54   21   51 1
    55   22   52 1
    56   22   53 1
    57   22   54 1
    58   28   55 1
    59   28   56 1
    60   29   57 1
    61   29   58 1
    62   30   59 1
    63   31   60 1
    64   31   61 1
    65   32   62 1
    66   32   63 1
    67   33   64 1
    68   33   65 1
    69   34   66 1
    70   34   67 1
    71   35   68 1
@<TRIPOS>PROPERTY_DATA
  Total_Score	| 10.3154
  Crash		| -2.0196
  Polar		| 3.2067
  FragIndex	| 1
  FragRMSD	| 0.958

