@<TRIPOS>MOLECULE
BindingDB_50261158
 107 112 0 0 0
SMALL
NO_CHARGES


@<TRIPOS>ATOM
1    N        32.8638  119.8679   13.5407  N     
2    C        32.5919  120.0601   12.2118  C     
3    N        31.4606  120.7450   11.8740  N     
4    C        32.0622  120.3023   14.5179  C     
5    C        30.9023  120.9908   14.1846  C     
6    C        30.6207  121.2113   12.8410  C     
7    C        29.4533  121.9662   12.7994  C     
8    N        29.0898  122.1643   14.0823  N     
9    N        29.9230  121.5889   14.8986  N     
10   C        28.7332  122.6003   11.6698  C     
11   C        28.7725  121.8877   10.2932  C     
12   C        29.7925  121.6425   16.3194  C     
13   O        32.3950  120.1157   15.6770  O     
14   C        33.4825  119.5854   11.2037  C     
15   C        34.0336  118.2741   11.2506  C     
16   C        34.8703  117.8403   10.1906  C     
17   C        35.1781  118.6899    9.1201  C     
18   C        34.6359  119.9889    9.0626  C     
19   C        33.7915  120.4211   10.1052  C     
20   O        33.6342  117.3954   12.2285  O     
21   C        34.6440  116.5773   12.8509  C     
22   C        34.0696  115.9450   14.1327  C     
23   S        34.8863  120.9867    7.6587  S     
24   N        33.5951  120.9078    6.5696  N     
25   O        35.0855  122.5017    8.1037  O     
26   O        36.2008  120.5192    6.8941  O     
27   C        32.4627  120.0895    6.8442  C     
28   C        29.9826  122.2394    9.4002  C     
29   C        31.4647  120.0113    5.6601  C     
30   N        30.0915  119.9168    6.0969  N     
31   C        29.6257  118.7777    6.8581  C     
32   C        29.0762  117.6149    5.9960  C     
33   O        27.9424  118.0148    5.2330  O     
34   S        28.9875  121.0839    5.5240  S     
35   C        27.3350  121.0624    6.0877  C     
36   O        29.5575  122.4982    5.9816  O     
37   O        29.0577  121.1147    3.9360  O     
38   C        27.0840  121.0852    7.4767  C     
39   C        25.7674  121.1207    7.9895  C     
40   C        24.6711  121.1016    7.0929  C     
41   C        24.9170  121.0536    5.7037  C     
42   C        26.2303  121.0624    5.2071  C     
43   O        23.3868  121.0265    7.5645  O     
44   C        22.6006  122.2265    7.4187  C     
45   C        21.4880  122.2124    8.4845  C     
46   C        25.5904  121.1977    9.3937  C     
47   N        26.3408  120.4070   10.2079  N     
48   C        24.6480  122.2899   11.2759  C     
49   N        24.7607  122.1288    9.9552  N     
50   O        23.8943  123.1469   11.7046  O     
51   C        25.4164  121.5005   12.1207  C     
52   C        26.2434  120.5395   11.5625  C     
53   C        26.8943  119.9071   12.6057  C     
54   N        26.4668  120.5032   13.7362  N     
55   N        25.5949  121.4300   13.4597  N     
56   C        27.8988  118.8275   12.5442  C     
57   C        27.3825  117.5159   11.9007  C     
58   C        26.8847  117.6721   10.4495  C     
59   C        24.9606  122.2314   14.4430  C     
60   H        33.6956  119.4314   13.7888  H     
61   H        27.6822  122.6746   11.9694  H     
62   H        29.0948  123.6241   11.5539  H     
63   H        28.7521  120.8085   10.4349  H     
64   H        27.8689  122.1746    9.7327  H     
65   H        29.7150  120.6311   16.7245  H     
66   H        28.8949  122.1993   16.6102  H     
67   H        30.6627  122.1380   16.7573  H     
68   H        35.2337  116.8837   10.1801  H     
69   H        35.7766  118.3452    8.3659  H     
70   H        33.3903  121.3605   10.0546  H     
71   H        34.9494  115.7781   12.1719  H     
72   H        35.5270  117.1637   13.1179  H     
73   H        33.7844  116.7265   14.8425  H     
74   H        34.8178  115.3030   14.6067  H     
75   H        33.1892  115.3418   13.8972  H     
76   H        33.4744  121.6554    5.9611  H     
77   H        32.8111  119.0776    7.0777  H     
78   H        31.9483  120.4961    7.7174  H     
79   H        30.0307  123.3122    9.2104  H     
80   H        29.8710  121.7264    8.4466  H     
81   H        30.9134  121.9235    9.8600  H     
82   H        31.6334  120.8951    5.0304  H     
83   H        31.7135  119.1432    5.0414  H     
84   H        30.4290  118.3738    7.4726  H     
85   H        28.8321  119.0831    7.5496  H     
86   H        29.8416  117.2456    5.3131  H     
87   H        28.7735  116.7898    6.6459  H     
88   H        27.4006  118.5679    5.8317  H     
89   H        27.8761  121.0732    8.1208  H     
90   H        24.1319  121.0093    5.0466  H     
91   H        26.3767  121.0690    4.1971  H     
92   H        23.2023  123.1298    7.5661  H     
93   H        22.1533  122.2644    6.4219  H     
94   H        20.8429  121.3418    8.3383  H     
95   H        20.8929  123.1215    8.4054  H     
96   H        21.9272  122.1641    9.4841  H     
97   H        24.2504  122.7167    9.3884  H     
98   H        28.7780  119.1815   11.9940  H     
99   H        28.2232  118.5940   13.5627  H     
100  H        28.1982  116.7935   11.8848  H     
101  H        26.5785  117.0933   12.5118  H     
102  H        25.9539  118.2287   10.4299  H     
103  H        26.7158  116.6831   10.0189  H     
104  H        27.6227  118.2068    9.8498  H     
105  H        25.1826  123.2882   14.2772  H     
106  H        25.3054  121.9622   15.4440  H     
107  H        23.8795  122.0801   14.3960  H     
@<TRIPOS>BOND
     1    1    2 1
     2    1    4 1
     3    2    3 2
     4    2   14 1
     5    3    6 1
     6    4    5 1
     7    4   13 2
     8    5    6 2
     9    5    9 1
    10    6    7 1
    11    7    8 2
    12    7   10 1
    13    8    9 1
    14    9   12 1
    15   10   11 1
    16   11   28 1
    17   14   15 2
    18   14   19 1
    19   15   16 1
    20   15   20 1
    21   16   17 2
    22   17   18 1
    23   18   19 2
    24   18   23 1
    25   20   21 1
    26   21   22 1
    27   23   24 1
    28   23   25 2
    29   23   26 2
    30   24   27 1
    31   27   29 1
    32   29   30 1
    33   30   31 1
    34   30   34 1
    35   31   32 1
    36   32   33 1
    37   34   35 1
    38   34   36 2
    39   34   37 2
    40   35   38 2
    41   35   42 1
    42   38   39 1
    43   39   40 2
    44   39   46 1
    45   40   41 1
    46   40   43 1
    47   41   42 2
    48   43   44 1
    49   44   45 1
    50   46   47 2
    51   46   49 1
    52   47   52 1
    53   48   49 1
    54   48   50 2
    55   48   51 1
    56   51   52 2
    57   51   55 1
    58   52   53 1
    59   53   54 2
    60   53   56 1
    61   54   55 1
    62   55   59 1
    63   56   57 1
    64   57   58 1
    65    1   60 1
    66   10   61 1
    67   10   62 1
    68   11   63 1
    69   11   64 1
    70   12   65 1
    71   12   66 1
    72   12   67 1
    73   16   68 1
    74   17   69 1
    75   19   70 1
    76   21   71 1
    77   21   72 1
    78   22   73 1
    79   22   74 1
    80   22   75 1
    81   24   76 1
    82   27   77 1
    83   27   78 1
    84   28   79 1
    85   28   80 1
    86   28   81 1
    87   29   82 1
    88   29   83 1
    89   31   84 1
    90   31   85 1
    91   32   86 1
    92   32   87 1
    93   33   88 1
    94   38   89 1
    95   41   90 1
    96   42   91 1
    97   44   92 1
    98   44   93 1
    99   45   94 1
   100   45   95 1
   101   45   96 1
   102   49   97 1
   103   56   98 1
   104   56   99 1
   105   57  100 1
   106   57  101 1
   107   58  102 1
   108   58  103 1
   109   58  104 1
   110   59  105 1
   111   59  106 1
   112   59  107 1
@<TRIPOS>PROPERTY_DATA
  Total_Score	| 7.8688
  Crash		| -10.2871
  Polar		| 2.2117
  FragIndex	| 1
  FragRMSD	| 0.872

