@<TRIPOS>MOLECULE
BindingDB_14390
 64 67 0 0 0
SMALL
NO_CHARGES


@<TRIPOS>ATOM
1    C        33.9973  118.4154   11.2513  C     
2    C        34.8391  118.0097   10.1860  C     
3    C        35.0306  118.8369    9.0534  C     
4    C        34.3626  120.0757    8.9516  C     
5    C        33.5400  120.4876   10.0197  C     
6    C        33.3408  119.6785   11.1668  C     
7    O        33.7136  117.6269   12.3509  O     
8    C        34.6529  116.6573   12.8421  C     
9    C        34.0635  115.9780   14.1151  C     
10   O        34.6635  122.5693    8.1145  O     
11   O        35.8655  120.7906    6.7439  O     
12   S        34.5149  121.0907    7.5341  S     
13   C        32.4131  119.7749    6.4099  C     
14   C        31.0289  120.0297    7.0681  C     
15   C        31.2585  122.4477    6.5348  C     
16   C        32.6358  122.1599    5.8737  C     
17   N        33.1915  120.9833    6.4778  N     
18   N        30.3490  121.2556    6.5337  N     
19   C        29.6468  121.0391    5.2328  C     
20   C        32.4905  120.1511   12.2069  C     
21   C        32.0159  120.4333   14.5173  C     
22   N        31.3205  120.7715   11.8781  N     
23   N        32.8062  120.0044   13.5328  N     
24   O        32.3788  120.2756   15.6725  O     
25   C        30.8128  121.0641   14.1995  C     
26   C        30.4902  121.2104   12.8591  C     
27   C        29.2884  121.8958   12.8040  C     
28   N        28.9315  122.1358   14.0811  N     
29   N        29.8135  121.6355   14.9055  N     
30   C        29.7190  121.7482   16.3286  C     
31   C        28.6151  122.3976   11.5880  C     
32   C        28.6331  121.4283   10.3724  C     
33   C        27.2408  121.1874    9.7377  C     
34   H        35.3270  117.1082   10.2136  H     
35   H        35.6339  118.5032    8.2982  H     
36   H        33.0595  121.3883    9.9439  H     
37   H        34.8462  115.8798   12.0976  H     
38   H        35.5907  117.1372   13.1327  H     
39   H        33.8065  116.7242   14.8714  H     
40   H        34.7827  115.2796   14.5605  H     
41   H        33.1612  115.4220   13.8623  H     
42   H        32.9027  118.9276    6.8996  H     
43   H        32.2749  119.5000    5.3590  H     
44   H        30.3986  119.1449    6.9392  H     
45   H        31.1691  120.1606    8.1438  H     
46   H        31.4320  122.7454    7.5731  H     
47   H        30.7912  123.3006    6.0343  H     
48   H        32.5066  121.9746    4.8046  H     
49   H        33.2851  123.0363    5.9669  H     
50   H        29.6047  121.4743    7.2005  H     
51   H        29.0565  121.9249    4.9759  H     
52   H        28.9540  120.1974    5.3074  H     
53   H        30.3466  120.8453    4.4165  H     
54   H        33.6420  119.5646   13.7619  H     
55   H        29.7219  120.7560   16.7797  H     
56   H        28.7993  122.2547   16.6226  H     
57   H        30.5633  122.3196   16.7171  H     
58   H        27.5833  122.6604   11.8259  H     
59   H        29.1236  123.3241   11.2937  H     
60   H        29.2880  121.8599    9.6017  H     
61   H        29.0732  120.4748   10.6658  H     
62   H        26.5325  120.7964   10.4726  H     
63   H        27.3324  120.4772    8.9205  H     
64   H        26.8410  122.1276    9.3328  H     
@<TRIPOS>BOND
     1    1    2 1
     2    1    6 2
     3    1    7 1
     4    2    3 2
     5    3    4 1
     6    4    5 2
     7    4   12 1
     8    5    6 1
     9    6   20 1
    10    7    8 1
    11    8    9 1
    12   10   12 2
    13   11   12 2
    14   12   17 1
    15   13   14 1
    16   13   17 1
    17   14   18 1
    18   15   16 1
    19   15   18 1
    20   16   17 1
    21   18   19 1
    22   20   22 2
    23   20   23 1
    24   21   23 1
    25   21   24 2
    26   21   25 1
    27   22   26 1
    28   25   26 2
    29   25   29 1
    30   26   27 1
    31   27   28 2
    32   27   31 1
    33   28   29 1
    34   29   30 1
    35   31   32 1
    36   32   33 1
    37    2   34 1
    38    3   35 1
    39    5   36 1
    40    8   37 1
    41    8   38 1
    42    9   39 1
    43    9   40 1
    44    9   41 1
    45   13   42 1
    46   13   43 1
    47   14   44 1
    48   14   45 1
    49   15   46 1
    50   15   47 1
    51   16   48 1
    52   16   49 1
    53   18   50 1
    54   19   51 1
    55   19   52 1
    56   19   53 1
    57   23   54 1
    58   30   55 1
    59   30   56 1
    60   30   57 1
    61   31   58 1
    62   31   59 1
    63   32   60 1
    64   32   61 1
    65   33   62 1
    66   33   63 1
    67   33   64 1
@<TRIPOS>PROPERTY_DATA
  Total_Score	| 10.9354
  Crash		| -0.7675
  Polar		| 2.2560
  FragIndex	| 1
  FragRMSD	| 0.649

