@<TRIPOS>MOLECULE
BindingDB_50261652
 77 81 0 0 0
SMALL
NO_CHARGES


@<TRIPOS>ATOM
1    N        32.8279  120.0013   13.4408  N     
2    C        32.4466  120.0925   12.1313  C     
3    N        31.2457  120.6685   11.8333  N     
4    C        32.1137  120.5205   14.4404  C     
5    C        30.9011  121.1405   14.1665  C     
6    C        30.4722  121.1592   12.8431  C     
7    C        29.2139  121.7421   12.8623  C     
8    N        28.9477  122.0700   14.1408  N     
9    N        29.9413  121.7361   14.9089  N     
10   C        28.2382  121.8106   11.7645  C     
11   C        27.3325  120.5538   11.7102  C     
12   C        29.9130  121.9199   16.3259  C     
13   O        32.5224  120.4140   15.5840  O     
14   C        33.3029  119.6315   11.1015  C     
15   C        33.9681  118.3779   11.1856  C     
16   C        34.8117  117.9855   10.1244  C     
17   C        35.0269  118.8236    9.0141  C     
18   C        34.3796  120.0737    8.9260  C     
19   C        33.5208  120.4595    9.9725  C     
20   O        33.6768  117.5630   12.2614  O     
21   C        34.6760  116.6863   12.8287  C     
22   C        34.2078  116.2051   14.2162  C     
23   S        34.6077  121.1361    7.5513  S     
24   N        33.2573  121.4111    6.5586  N     
25   O        35.2020  122.5300    8.0378  O     
26   O        35.7857  120.6220    6.6144  O     
27   C        32.3281  122.4724    6.8328  C     
28   C        31.0739  121.8949    7.5470  C     
29   N        30.4800  120.6567    6.9304  N     
30   C        31.5489  119.6868    6.5006  C     
31   C        32.7467  120.3400    5.7527  C     
32   C        26.6935  120.1384   13.0614  C     
33   C        29.4112  120.0348    7.8196  C     
34   C        28.2260  120.9943    8.1682  C     
35   C        27.3833  121.3565    6.9102  C     
36   C        26.8084  120.0683    6.2604  C     
37   C        27.9316  119.0276    5.9808  C     
38   C        28.7422  118.7331    7.2736  C     
39   H        33.6703  119.5689   13.6500  H     
40   H        27.6139  122.7008   11.8838  H     
41   H        28.7804  121.9100   10.8231  H     
42   H        26.5141  120.7586   11.0190  H     
43   H        27.9052  119.7098   11.3112  H     
44   H        29.9096  120.9472   16.8164  H     
45   H        29.0162  122.4648   16.6278  H     
46   H        30.7820  122.4857   16.6570  H     
47   H        35.2765  117.0808   10.1461  H     
48   H        35.6518  118.5127    8.2679  H     
49   H        33.0752  121.3745    9.9202  H     
50   H        34.8132  115.8223   12.1700  H     
51   H        35.6339  117.2069   12.9355  H     
52   H        34.1450  117.0494   14.9095  H     
53   H        34.9093  115.4701   14.6248  H     
54   H        33.2225  115.7369   14.1459  H     
55   H        32.7537  123.2613    7.4646  H     
56   H        32.0220  122.9477    5.8925  H     
57   H        31.3500  121.6935    8.5872  H     
58   H        30.3041  122.6782    7.5402  H     
59   H        30.0207  120.9611    6.0680  H     
60   H        31.9519  119.1647    7.3760  H     
61   H        31.1175  118.9439    5.8209  H     
62   H        32.4104  120.7409    4.7897  H     
63   H        33.5125  119.5875    5.5422  H     
64   H        27.4379  119.7302   13.7466  H     
65   H        25.9378  119.3733   12.8801  H     
66   H        26.2099  120.9947   13.5345  H     
67   H        29.8761  119.7655    8.7699  H     
68   H        27.5660  120.5031    8.8874  H     
69   H        28.5968  121.8869    8.6743  H     
70   H        26.5590  122.0201    7.2025  H     
71   H        28.0064  121.8874    6.1797  H     
72   H        26.0627  119.6203    6.9315  H     
73   H        26.3018  120.3273    5.3249  H     
74   H        27.4960  118.1013    5.5910  H     
75   H        28.6051  119.4314    5.2211  H     
76   H        29.4885  117.9563    7.1019  H     
77   H        28.0591  118.3211    8.0269  H     
@<TRIPOS>BOND
     1    1    2 1
     2    1    4 1
     3    2    3 2
     4    2   14 1
     5    3    6 1
     6    4    5 1
     7    4   13 2
     8    5    6 2
     9    5    9 1
    10    6    7 1
    11    7    8 2
    12    7   10 1
    13    8    9 1
    14    9   12 1
    15   10   11 1
    16   11   32 1
    17   14   15 2
    18   14   19 1
    19   15   16 1
    20   15   20 1
    21   16   17 2
    22   17   18 1
    23   18   19 2
    24   18   23 1
    25   20   21 1
    26   21   22 1
    27   23   24 1
    28   23   25 2
    29   23   26 2
    30   24   27 1
    31   24   31 1
    32   27   28 1
    33   28   29 1
    34   29   30 1
    35   29   33 1
    36   30   31 1
    37   33   34 1
    38   33   38 1
    39   34   35 1
    40   35   36 1
    41   36   37 1
    42   37   38 1
    43    1   39 1
    44   10   40 1
    45   10   41 1
    46   11   42 1
    47   11   43 1
    48   12   44 1
    49   12   45 1
    50   12   46 1
    51   16   47 1
    52   17   48 1
    53   19   49 1
    54   21   50 1
    55   21   51 1
    56   22   52 1
    57   22   53 1
    58   22   54 1
    59   27   55 1
    60   27   56 1
    61   28   57 1
    62   28   58 1
    63   29   59 1
    64   30   60 1
    65   30   61 1
    66   31   62 1
    67   31   63 1
    68   32   64 1
    69   32   65 1
    70   32   66 1
    71   33   67 1
    72   34   68 1
    73   34   69 1
    74   35   70 1
    75   35   71 1
    76   36   72 1
    77   36   73 1
    78   37   74 1
    79   37   75 1
    80   38   76 1
    81   38   77 1
@<TRIPOS>PROPERTY_DATA
  Total_Score	| 11.3120
  Crash		| -1.6072
  Polar		| 2.3205
  FragIndex	| 1
  FragRMSD	| 0.411

