@<TRIPOS>MOLECULE
BindingDB_50261574
 74 78 0 0 0
SMALL
NO_CHARGES


@<TRIPOS>ATOM
1    N        32.8245  119.7923   13.4681  N     
2    C        32.4747  119.9473   12.1509  C     
3    N        31.3055  120.5817   11.8532  N     
4    C        32.0716  120.2469   14.4726  C     
5    C        30.8803  120.9066   14.1886  C     
6    C        30.5137  121.0374   12.8567  C     
7    C        29.3243  121.7460   12.8416  C     
8    N        29.0304  122.0344   14.1241  N     
9    N        29.9375  121.5378   14.9217  N     
10   C        28.5758  122.1914   11.6522  C     
11   C        27.0410  122.0728   11.8327  C     
12   C        29.9000  121.6854   16.3417  C     
13   O        32.4647  120.1058   15.6215  O     
14   C        33.3323  119.5296   11.1143  C     
15   C        33.9005  118.2236   11.0768  C     
16   C        34.7070  117.8501    9.9871  C     
17   C        34.9758  118.7465    8.9244  C     
18   C        34.4244  120.0353    8.9596  C     
19   C        33.6220  120.4195   10.0520  C     
20   O        33.5386  117.2606   11.9939  O     
21   C        34.5725  116.7661   12.8715  C     
22   C        34.3107  115.2790   13.1545  C     
23   S        34.6511  121.1204    7.6152  S     
24   N        33.2414  121.3574    6.7094  N     
25   O        35.1891  122.5311    8.1240  O     
26   O        35.8033  120.6282    6.6345  O     
27   C        32.8305  120.3527    5.7540  C     
28   C        31.5778  119.5863    6.2773  C     
29   N        30.5736  120.5166    6.7583  N     
30   C        31.0374  121.5092    7.7182  C     
31   C        32.2384  122.2905    7.1456  C     
32   C        26.2543  122.8294   10.7396  C     
33   C        29.2695  120.4903    6.3433  C     
34   C        28.6687  121.6819    5.8516  C     
35   C        27.3134  121.7534    5.5165  C     
36   C        26.4965  120.6241    5.6764  C     
37   C        27.0615  119.4269    6.1516  C     
38   C        28.4396  119.3297    6.4399  C     
39   O        28.9201  118.1895    7.0486  O     
40   C        29.1330  117.0259    6.2131  C     
41   H        33.6698  119.3824   13.6787  H     
42   H        28.8456  123.2309   11.4567  H     
43   H        28.8784  121.6023   10.7825  H     
44   H        26.7462  121.0193   11.8126  H     
45   H        26.7536  122.4857   12.8035  H     
46   H        29.8514  120.7007   16.8133  H     
47   H        29.0282  122.2635   16.6572  H     
48   H        30.7975  122.2032   16.6863  H     
49   H        35.0933  116.9173    9.9190  H     
50   H        35.5649  118.4340    8.1542  H     
51   H        33.2390  121.3668   10.0708  H     
52   H        35.5894  116.8754   12.4816  H     
53   H        34.5207  117.3108   13.8134  H     
54   H        33.3385  115.1511   13.6377  H     
55   H        35.0917  114.8868   13.8139  H     
56   H        34.3197  114.7110   12.2180  H     
57   H        32.5751  120.8544    4.8123  H     
58   H        33.6203  119.6270    5.5302  H     
59   H        31.2108  118.9960    5.4339  H     
60   H        31.8691  118.9075    7.0914  H     
61   H        30.2646  122.2221    8.0413  H     
62   H        31.3466  120.9772    8.6153  H     
63   H        32.6119  122.9857    7.9024  H     
64   H        31.9102  122.8804    6.2875  H     
65   H        26.5185  123.8888   10.7486  H     
66   H        25.1809  122.7395   10.9268  H     
67   H        26.4733  122.4144    9.7529  H     
68   H        29.2426  122.5130    5.7113  H     
69   H        26.9163  122.6255    5.1592  H     
70   H        25.5037  120.6722    5.4568  H     
71   H        26.4452  118.6239    6.3004  H     
72   H        28.2287  116.7074    5.7048  H     
73   H        29.4933  116.2108    6.8471  H     
74   H        29.8912  117.2132    5.4488  H     
@<TRIPOS>BOND
     1    1    2 1
     2    1    4 1
     3    2    3 2
     4    2   14 1
     5    3    6 1
     6    4    5 1
     7    4   13 2
     8    5    6 2
     9    5    9 1
    10    6    7 1
    11    7    8 2
    12    7   10 1
    13    8    9 1
    14    9   12 1
    15   10   11 1
    16   11   32 1
    17   14   15 2
    18   14   19 1
    19   15   16 1
    20   15   20 1
    21   16   17 2
    22   17   18 1
    23   18   19 2
    24   18   23 1
    25   20   21 1
    26   21   22 1
    27   23   24 1
    28   23   25 2
    29   23   26 2
    30   24   27 1
    31   24   31 1
    32   27   28 1
    33   28   29 1
    34   29   30 1
    35   29   33 1
    36   30   31 1
    37   33   34 2
    38   33   38 1
    39   34   35 1
    40   35   36 2
    41   36   37 1
    42   37   38 2
    43   38   39 1
    44   39   40 1
    45    1   41 1
    46   10   42 1
    47   10   43 1
    48   11   44 1
    49   11   45 1
    50   12   46 1
    51   12   47 1
    52   12   48 1
    53   16   49 1
    54   17   50 1
    55   19   51 1
    56   21   52 1
    57   21   53 1
    58   22   54 1
    59   22   55 1
    60   22   56 1
    61   27   57 1
    62   27   58 1
    63   28   59 1
    64   28   60 1
    65   30   61 1
    66   30   62 1
    67   31   63 1
    68   31   64 1
    69   32   65 1
    70   32   66 1
    71   32   67 1
    72   34   68 1
    73   35   69 1
    74   36   70 1
    75   37   71 1
    76   40   72 1
    77   40   73 1
    78   40   74 1
@<TRIPOS>PROPERTY_DATA
  Total_Score	| 12.0001
  Crash		| -2.4488
  Polar		| 2.2652
  FragIndex	| 1
  FragRMSD	| 0.480

