@<TRIPOS>MOLECULE
BindingDB_50261650
 76 81 0 0 0
SMALL
NO_CHARGES


@<TRIPOS>ATOM
1    N        32.8410  119.7785   13.7227  N     
2    C        32.6052  119.9214   12.3859  C     
3    N        31.4752  120.5673   11.9822  N     
4    C        32.0152  120.2611   14.6535  C     
5    C        30.8617  120.9370   14.2655  C     
6    C        30.6128  121.0595   12.9056  C     
7    C        29.4451  121.7922   12.7781  C     
8    N        29.0455  122.0948   14.0285  N     
9    N        29.8683  121.5911   14.9045  N     
10   C        28.7838  122.2227   11.5301  C     
11   C        27.3039  121.7582   11.4612  C     
12   C        29.7147  121.7580   16.3131  C     
13   O        32.3191  120.1458   15.8321  O     
14   C        33.5235  119.4708   11.4059  C     
15   C        34.0994  118.1738   11.4257  C     
16   C        34.8786  117.7460   10.3237  C     
17   C        35.0777  118.5874    9.2122  C     
18   C        34.5104  119.8767    9.1861  C     
19   C        33.7911  120.3218   10.3099  C     
20   O        33.7533  117.2970   12.4265  O     
21   C        34.8271  116.5535   13.0335  C     
22   C        34.2884  115.8281   14.2838  C     
23   S        34.4716  120.8497    7.7341  S     
24   N        32.8828  121.0131    7.1524  N     
25   O        35.0450  122.3047    8.0247  O     
26   O        35.4304  120.2466    6.6119  O     
27   C        32.4179  120.0494    6.1920  C     
28   C        30.9053  120.1392    5.7995  C     
29   N        30.0958  121.0642    6.5001  N     
30   C        30.6536  122.0612    7.3314  C     
31   C        31.9216  121.5805    8.0518  C     
32   C        26.5344  122.4261   10.3027  C     
33   C        28.8030  121.1391    6.2436  C     
34   C        28.3811  121.9941    5.2807  C     
35   C        27.0925  122.4433    5.2397  C     
36   C        26.1783  122.0374    6.1397  C     
37   C        27.8509  120.5830    7.1322  C     
38   C        26.5133  121.0825    7.1020  C     
39   C        25.5676  120.6328    8.0494  C     
40   C        25.9361  119.6803    9.0132  C     
41   C        27.2322  119.1374    9.0127  C     
42   C        28.1762  119.5733    8.0688  C     
43   H        33.6672  119.3586   14.0004  H     
44   H        28.8392  123.3107   11.4743  H     
45   H        29.3210  121.8210   10.6683  H     
46   H        27.2758  120.6726   11.3257  H     
47   H        26.7926  122.0056   12.3949  H     
48   H        29.5992  120.7850   16.7921  H     
49   H        28.8338  122.3625   16.5413  H     
50   H        30.5906  122.2600   16.7299  H     
51   H        35.2574  116.7966   10.3005  H     
52   H        35.6044  118.2373    8.4094  H     
53   H        33.3975  121.2665   10.3040  H     
54   H        35.2162  115.8094   12.3330  H     
55   H        35.6465  117.2094   13.3424  H     
56   H        33.9478  116.5572   15.0233  H     
57   H        35.0760  115.2181   14.7301  H     
58   H        33.4503  115.1799   14.0141  H     
59   H        33.0266  120.1384    5.2878  H     
60   H        32.6013  119.0507    6.6031  H     
61   H        30.8401  120.3529    4.7275  H     
62   H        30.4849  119.1445    5.9594  H     
63   H        30.8771  122.9592    6.7453  H     
64   H        29.9569  122.3457    8.1301  H     
65   H        31.6280  120.8140    8.7757  H     
66   H        32.3388  122.4356    8.5884  H     
67   H        26.4701  123.5045   10.4631  H     
68   H        25.5230  122.0194   10.2477  H     
69   H        27.0411  122.2357    9.3576  H     
70   H        29.0380  122.3838    4.6422  H     
71   H        26.8412  123.1240    4.5573  H     
72   H        25.2608  122.4182    6.1065  H     
73   H        24.6168  121.0100    8.0596  H     
74   H        25.2607  119.3886    9.7223  H     
75   H        27.4917  118.4407    9.7135  H     
76   H        29.1038  119.1461    8.0658  H     
@<TRIPOS>BOND
     1    1    2 1
     2    1    4 1
     3    2    3 2
     4    2   14 1
     5    3    6 1
     6    4    5 1
     7    4   13 2
     8    5    6 2
     9    5    9 1
    10    6    7 1
    11    7    8 2
    12    7   10 1
    13    8    9 1
    14    9   12 1
    15   10   11 1
    16   11   32 1
    17   14   15 2
    18   14   19 1
    19   15   16 1
    20   15   20 1
    21   16   17 2
    22   17   18 1
    23   18   19 2
    24   18   23 1
    25   20   21 1
    26   21   22 1
    27   23   24 1
    28   23   25 2
    29   23   26 2
    30   24   27 1
    31   24   31 1
    32   27   28 1
    33   28   29 1
    34   29   30 1
    35   29   33 1
    36   30   31 1
    37   33   34 2
    38   33   37 1
    39   34   35 1
    40   35   36 2
    41   36   38 1
    42   37   38 1
    43   37   42 2
    44   38   39 2
    45   39   40 1
    46   40   41 2
    47   41   42 1
    48    1   43 1
    49   10   44 1
    50   10   45 1
    51   11   46 1
    52   11   47 1
    53   12   48 1
    54   12   49 1
    55   12   50 1
    56   16   51 1
    57   17   52 1
    58   19   53 1
    59   21   54 1
    60   21   55 1
    61   22   56 1
    62   22   57 1
    63   22   58 1
    64   27   59 1
    65   27   60 1
    66   28   61 1
    67   28   62 1
    68   30   63 1
    69   30   64 1
    70   31   65 1
    71   31   66 1
    72   32   67 1
    73   32   68 1
    74   32   69 1
    75   34   70 1
    76   35   71 1
    77   36   72 1
    78   39   73 1
    79   40   74 1
    80   41   75 1
    81   42   76 1
@<TRIPOS>PROPERTY_DATA
  Total_Score	| 11.5179
  Crash		| -1.7916
  Polar		| 2.0275
  FragIndex	| 1
  FragRMSD	| 0.738

