@<TRIPOS>MOLECULE
BindingDB_50287543
 61 64 0 0 0
SMALL
NO_CHARGES


@<TRIPOS>ATOM
1    C        34.7137  117.8587   10.3275  C     
2    C        34.9652  118.6665    9.2034  C     
3    C        34.4231  119.9634    9.1311  C     
4    C        33.6169  120.4260   10.1890  C     
5    C        33.3674  119.6315   11.3367  C     
6    C        33.9603  118.3410   11.4261  C     
7    O        33.7041  117.5546   12.5348  O     
8    C        34.7688  116.7313   13.0644  C     
9    C        34.4409  116.2860   14.5084  C     
10   C        32.5037  120.1436   12.3443  C     
11   N        31.3515  120.7812   11.9902  N     
12   C        31.9980  120.4813   14.6359  C     
13   N        32.7933  120.0129   13.6742  N     
14   C        30.7969  121.1005   14.3008  C     
15   C        30.5011  121.2351   12.9506  C     
16   C        29.2599  121.8512   12.8802  C     
17   N        28.8618  122.0732   14.1485  N     
18   N        29.7634  121.6402   14.9858  N     
19   C        29.6282  121.7437   16.4051  C     
20   C        28.5340  122.2439   11.6558  C     
21   C        28.2440  121.0557   10.6961  C     
22   C        27.9216  121.5126    9.2559  C     
23   O        32.3405  120.3432   15.8028  O     
24   S        34.6900  120.9645    7.7278  S     
25   N        33.2944  121.1013    6.7760  N     
26   O        35.1791  122.4190    8.1477  O     
27   O        35.8952  120.4145    6.8463  O     
28   C        32.2043  121.8836    7.3097  C     
29   C        31.2026  122.3025    6.2069  C     
30   N        30.8059  121.1266    5.4033  N     
31   C        31.9605  120.4280    4.8003  C     
32   C        32.9865  120.0130    5.8825  C     
33   H        35.0915  116.9086   10.3349  H     
34   H        35.5417  118.2969    8.4417  H     
35   H        33.2201  121.3654   10.1230  H     
36   H        34.8815  115.8367   12.4447  H     
37   H        35.7241  117.2656   13.0742  H     
38   H        34.3553  117.1539   15.1651  H     
39   H        35.2367  115.6388   14.8911  H     
40   H        33.5005  115.7313   14.5311  H     
41   H        33.6242  119.5814   13.9235  H     
42   H        29.6392  120.7489   16.8569  H     
43   H        28.6910  122.2355   16.6799  H     
44   H        30.4530  122.3313   16.8129  H     
45   H        27.5842  122.7141   11.9289  H     
46   H        29.1464  122.9903   11.1453  H     
47   H        29.1105  120.3919   10.6448  H     
48   H        27.4009  120.4725   11.0819  H     
49   H        26.9999  122.0982    9.2380  H     
50   H        27.7982  120.6428    8.6088  H     
51   H        28.7375  122.1213    8.8602  H     
52   H        31.6717  121.2871    8.0559  H     
53   H        32.5667  122.7930    7.7980  H     
54   H        30.3115  122.7411    6.6585  H     
55   H        31.6594  123.0572    5.5616  H     
56   H        30.3096  120.4698    6.0093  H     
57   H        30.1717  121.4244    4.6588  H     
58   H        31.6111  119.5373    4.2772  H     
59   H        32.4410  121.0823    4.0673  H     
60   H        33.8812  119.6531    5.3692  H     
61   H        32.5786  119.1843    6.4673  H     
@<TRIPOS>BOND
     1    1    2 2
     2    1    6 1
     3    2    3 1
     4    3    4 2
     5    3   24 1
     6    4    5 1
     7    5    6 2
     8    5   10 1
     9    6    7 1
    10    7    8 1
    11    8    9 1
    12   10   11 2
    13   10   13 1
    14   11   15 1
    15   12   13 1
    16   12   14 1
    17   12   23 2
    18   14   15 2
    19   14   18 1
    20   15   16 1
    21   16   17 2
    22   16   20 1
    23   17   18 1
    24   18   19 1
    25   20   21 1
    26   21   22 1
    27   24   25 1
    28   24   26 2
    29   24   27 2
    30   25   28 1
    31   25   32 1
    32   28   29 1
    33   29   30 1
    34   30   31 1
    35   31   32 1
    36    1   33 1
    37    2   34 1
    38    4   35 1
    39    8   36 1
    40    8   37 1
    41    9   38 1
    42    9   39 1
    43    9   40 1
    44   13   41 1
    45   19   42 1
    46   19   43 1
    47   19   44 1
    48   20   45 1
    49   20   46 1
    50   21   47 1
    51   21   48 1
    52   22   49 1
    53   22   50 1
    54   22   51 1
    55   28   52 1
    56   28   53 1
    57   29   54 1
    58   29   55 1
    59   30   56 1
    60   30   57 1
    61   31   58 1
    62   31   59 1
    63   32   60 1
    64   32   61 1
@<TRIPOS>PROPERTY_DATA
  Total_Score	| 9.7318
  Crash		| -1.2310
  Polar		| 2.1979
  FragIndex	| 1
  FragRMSD	| 0.544

