@<TRIPOS>MOLECULE
BindingDB_50261154
 66 69 0 0 0
SMALL
NO_CHARGES


@<TRIPOS>ATOM
1    N        32.8658  119.9796   13.7526  N     
2    C        32.5395  120.0519   12.4279  C     
3    N        31.3491  120.6085   12.0702  N     
4    C        32.0883  120.4757   14.7160  C     
5    C        30.8793  121.0762   14.3783  C     
6    C        30.5274  121.1068   13.0342  C     
7    C        29.2784  121.7029   12.9615  C     
8    N        28.9270  122.0158   14.2238  N     
9    N        29.8674  121.6624   15.0577  N     
10   C        28.4325  121.8409   11.7577  C     
11   C        29.1921  122.3741   10.5132  C     
12   C        29.7772  121.8502   16.4689  C     
13   O        32.4539  120.3801   15.8764  O     
14   C        33.4153  119.5641   11.4275  C     
15   C        34.0305  118.2886   11.5207  C     
16   C        34.8320  117.8297   10.4434  C     
17   C        35.0505  118.6304    9.3161  C     
18   C        34.4587  119.9023    9.2323  C     
19   C        33.6396  120.3630   10.2827  C     
20   O        33.7040  117.5099   12.6057  O     
21   C        34.6694  116.5859   13.1623  C     
22   C        34.0679  115.9534   14.4238  C     
23   S        34.5637  120.8096    7.7540  S     
24   N        33.4234  120.1739    6.6856  N     
25   O        34.3751  122.3751    7.9633  O     
26   O        36.0047  120.6126    7.1089  O     
27   C        32.1338  119.7251    7.1241  C     
28   C        28.6819  121.7265    9.2052  C     
29   C        31.0982  119.7196    5.9638  C     
30   N        31.2685  120.8338    5.0839  N     
31   C        31.8028  122.0328    5.4424  C     
32   C        31.1405  122.9703    6.2696  C     
33   C        31.7958  124.1345    6.7063  C     
34   C        33.1356  124.3569    6.3448  C     
35   C        33.8014  123.4432    5.5090  C     
36   C        33.1295  122.2995    5.0388  C     
37   H        33.7104  119.5787   13.9956  H     
38   H        28.0163  120.8520   11.5414  H     
39   H        27.6011  122.5156   11.9756  H     
40   H        29.0715  123.4594   10.4499  H     
41   H        30.2603  122.1630   10.5944  H     
42   H        29.8235  120.8802   16.9674  H     
43   H        28.8379  122.3395   16.7444  H     
44   H        30.6027  122.4722   16.8206  H     
45   H        35.2369  116.8934   10.4525  H     
46   H        35.6111  118.2604    8.5471  H     
47   H        33.1854  121.2753   10.1919  H     
48   H        34.8869  115.7989   12.4246  H     
49   H        35.6016  117.1019   13.4231  H     
50   H        33.8395  116.7338   15.1563  H     
51   H        34.7808  115.2434   14.8575  H     
52   H        33.1471  115.4213   14.1699  H     
53   H        33.7206  119.9282    5.7941  H     
54   H        32.2351  118.7182    7.5376  H     
55   H        31.7547  120.3749    7.9226  H     
56   H        28.7750  120.6386    9.2494  H     
57   H        29.2740  122.0763    8.3614  H     
58   H        27.6344  121.9871    9.0368  H     
59   H        31.2426  118.8066    5.3753  H     
60   H        30.0810  119.7060    6.3624  H     
61   H        31.2262  120.6305    4.1343  H     
62   H        30.1749  122.8162    6.5674  H     
63   H        31.3062  124.8009    7.3070  H     
64   H        33.6354  125.1746    6.6948  H     
65   H        34.7798  123.6018    5.2562  H     
66   H        33.6372  121.6263    4.4581  H     
@<TRIPOS>BOND
     1    1    2 1
     2    1    4 1
     3    2    3 2
     4    2   14 1
     5    3    6 1
     6    4    5 1
     7    4   13 2
     8    5    6 2
     9    5    9 1
    10    6    7 1
    11    7    8 2
    12    7   10 1
    13    8    9 1
    14    9   12 1
    15   10   11 1
    16   11   28 1
    17   14   15 2
    18   14   19 1
    19   15   16 1
    20   15   20 1
    21   16   17 2
    22   17   18 1
    23   18   19 2
    24   18   23 1
    25   20   21 1
    26   21   22 1
    27   23   24 1
    28   23   25 2
    29   23   26 2
    30   24   27 1
    31   27   29 1
    32   29   30 1
    33   30   31 1
    34   31   32 2
    35   31   36 1
    36   32   33 1
    37   33   34 2
    38   34   35 1
    39   35   36 2
    40    1   37 1
    41   10   38 1
    42   10   39 1
    43   11   40 1
    44   11   41 1
    45   12   42 1
    46   12   43 1
    47   12   44 1
    48   16   45 1
    49   17   46 1
    50   19   47 1
    51   21   48 1
    52   21   49 1
    53   22   50 1
    54   22   51 1
    55   22   52 1
    56   24   53 1
    57   27   54 1
    58   27   55 1
    59   28   56 1
    60   28   57 1
    61   28   58 1
    62   29   59 1
    63   29   60 1
    64   30   61 1
    65   32   62 1
    66   33   63 1
    67   34   64 1
    68   35   65 1
    69   36   66 1
@<TRIPOS>PROPERTY_DATA
  Total_Score	| 10.0255
  Crash		| -2.5796
  Polar		| 3.1960
  FragIndex	| 1
  FragRMSD	| 1.222

