@<TRIPOS>MOLECULE
BindingDB_50261647
 70 74 0 0 0
SMALL
NO_CHARGES


@<TRIPOS>ATOM
1    N        32.8044  119.8824   13.6000  N     
2    C        32.4840  120.0018   12.2757  C     
3    N        31.3304  120.6417   11.9287  N     
4    C        32.0376  120.3875   14.5698  C     
5    C        30.8562  121.0473   14.2412  C     
6    C        30.5160  121.1382   12.8986  C     
7    C        29.3293  121.8530   12.8328  C     
8    N        29.0138  122.1887   14.0999  N     
9    N        29.8995  121.7090   14.9300  N     
10   C        28.5848  122.2326   11.6121  C     
11   C        27.0264  122.1508   11.6622  C     
12   C        29.8242  121.8928   16.3438  C     
13   O        32.4097  120.2865   15.7278  O     
14   C        33.3673  119.5532   11.2646  C     
15   C        33.9158  118.2422   11.2552  C     
16   C        34.7263  117.8440   10.1674  C     
17   C        35.0324  118.7372    9.1258  C     
18   C        34.5090  120.0436    9.1345  C     
19   C        33.6841  120.4372   10.2044  C     
20   O        33.5415  117.3299   12.2138  O     
21   C        34.6036  116.5833   12.8254  C     
22   C        34.0851  115.9327   14.1245  C     
23   S        34.6947  121.1003    7.7587  S     
24   N        33.2164  121.2212    6.9427  N     
25   O        35.1879  122.5330    8.2467  O     
26   O        35.8186  120.5931    6.7536  O     
27   C        32.2584  122.1937    7.4177  C     
28   C        31.0067  122.3334    6.5075  C     
29   N        30.5292  121.0124    6.1439  N     
30   C        31.5047  120.2198    5.4229  C     
31   C        32.7557  120.0068    6.3094  C     
32   C        26.3585  121.6291   12.9624  C     
33   C        29.3183  120.5184    6.5781  C     
34   C        29.2402  119.3393    7.3647  C     
35   C        28.0042  118.8581    7.8492  C     
36   C        26.8110  119.5275    7.5297  C     
37   C        26.8515  120.6839    6.7273  C     
38   C        28.0963  121.1782    6.2732  C     
39   Cl       25.4154  121.4762    6.3059  Cl    
40   H        33.6498  119.4705   13.8420  H     
41   H        28.8694  123.2596   11.3683  H     
42   H        28.9329  121.6088   10.7833  H     
43   H        26.6151  123.1486   11.4497  H     
44   H        26.6840  121.4987   10.8506  H     
45   H        29.7492  120.9244   16.8425  H     
46   H        28.9523  122.4947   16.6187  H     
47   H        30.7189  122.4034   16.7018  H     
48   H        35.0836  116.8814   10.1231  H     
49   H        35.6086  118.4161    8.3437  H     
50   H        33.2845  121.3783   10.2019  H     
51   H        34.9530  115.7998   12.1540  H     
52   H        35.4445  117.2257   13.0758  H     
53   H        33.8319  116.6996   14.8608  H     
54   H        34.8645  115.2954   14.5422  H     
55   H        33.1980  115.3308   13.9114  H     
56   H        31.9224  121.9043    8.4177  H     
57   H        32.7232  123.1806    7.4930  H     
58   H        30.2722  122.9380    7.0467  H     
59   H        31.2818  122.8824    5.6023  H     
60   H        31.1103  119.2548    5.0949  H     
61   H        31.7938  120.7486    4.5109  H     
62   H        33.5482  119.5811    5.6890  H     
63   H        32.4979  119.2728    7.0772  H     
64   H        26.8139  120.6877   13.2800  H     
65   H        25.2960  121.4497   12.7873  H     
66   H        26.4513  122.3708   13.7611  H     
67   H        30.0890  118.8508    7.6572  H     
68   H        27.9767  118.0220    8.4377  H     
69   H        25.9174  119.1557    7.8656  H     
70   H        28.0969  122.0032    5.6657  H     
@<TRIPOS>BOND
     1    1    2 1
     2    1    4 1
     3    2    3 2
     4    2   14 1
     5    3    6 1
     6    4    5 1
     7    4   13 2
     8    5    6 2
     9    5    9 1
    10    6    7 1
    11    7    8 2
    12    7   10 1
    13    8    9 1
    14    9   12 1
    15   10   11 1
    16   11   32 1
    17   14   15 2
    18   14   19 1
    19   15   16 1
    20   15   20 1
    21   16   17 2
    22   17   18 1
    23   18   19 2
    24   18   23 1
    25   20   21 1
    26   21   22 1
    27   23   24 1
    28   23   25 2
    29   23   26 2
    30   24   27 1
    31   24   31 1
    32   27   28 1
    33   28   29 1
    34   29   30 1
    35   29   33 1
    36   30   31 1
    37   33   34 2
    38   33   38 1
    39   34   35 1
    40   35   36 2
    41   36   37 1
    42   37   38 2
    43   37   39 1
    44    1   40 1
    45   10   41 1
    46   10   42 1
    47   11   43 1
    48   11   44 1
    49   12   45 1
    50   12   46 1
    51   12   47 1
    52   16   48 1
    53   17   49 1
    54   19   50 1
    55   21   51 1
    56   21   52 1
    57   22   53 1
    58   22   54 1
    59   22   55 1
    60   27   56 1
    61   27   57 1
    62   28   58 1
    63   28   59 1
    64   30   60 1
    65   30   61 1
    66   31   62 1
    67   31   63 1
    68   32   64 1
    69   32   65 1
    70   32   66 1
    71   34   67 1
    72   35   68 1
    73   36   69 1
    74   38   70 1
@<TRIPOS>PROPERTY_DATA
  Total_Score	| 10.8892
  Crash		| -1.6489
  Polar		| 2.6792
  FragIndex	| 1
  FragRMSD	| 0.577

