@<TRIPOS>MOLECULE
BindingDB_50261602
 70 74 0 0 0
SMALL
NO_CHARGES


@<TRIPOS>ATOM
1    N        32.8428  119.9553   13.5581  N     
2    C        32.5502  120.1060   12.2369  C     
3    N        31.3802  120.7172   11.8922  N     
4    C        32.0546  120.4119   14.5337  C     
5    C        30.8658  121.0556   14.2037  C     
6    C        30.5435  121.1741   12.8593  C     
7    C        29.3423  121.8604   12.7997  C     
8    N        28.9920  122.1362   14.0698  N     
9    N        29.8758  121.6555   14.8991  N     
10   C        28.6115  122.2593   11.5764  C     
11   C        27.0774  122.0797   11.7346  C     
12   C        29.7665  121.7811   16.3163  C     
13   O        32.4140  120.2734   15.6855  O     
14   C        33.4388  119.6682   11.2134  C     
15   C        34.0868  118.4010   11.2692  C     
16   C        34.9221  118.0185   10.1981  C     
17   C        35.1308  118.8664    9.1016  C     
18   C        34.4989  120.1252    9.0465  C     
19   C        33.6513  120.5147   10.0994  C     
20   O        33.7799  117.5717   12.3271  O     
21   C        34.7662  116.6895   12.8923  C     
22   C        34.3022  116.2493   14.2824  C     
23   S        34.6047  121.1273    7.6306  S     
24   N        33.0885  121.1492    6.8723  N     
25   O        35.0272  122.5793    8.1300  O     
26   O        35.7215  120.6628    6.5997  O     
27   C        32.6023  119.8987    6.3320  C     
28   C        31.2679  120.0451    5.5543  C     
29   N        30.3357  120.9090    6.2540  N     
30   C        30.8302  122.1548    6.8244  C     
31   C        32.3584  122.3796    6.6737  C     
32   C        26.2747  122.7797   10.6162  C     
33   C        29.0423  120.5231    6.4802  C     
34   C        28.7548  119.4765    7.3931  C     
35   C        27.4240  119.1107    7.6888  C     
36   C        26.3521  119.7408    7.0196  C     
37   C        26.6205  120.7494    6.0823  C     
38   C        27.9429  121.1514    5.8216  C     
39   F        28.1252  122.0176    4.8688  F     
40   H        33.6762  119.5266   13.7920  H     
41   H        28.8378  123.3058   11.3590  H     
42   H        28.9595  121.6604   10.7218  H     
43   H        26.8346  121.0156   11.7244  H     
44   H        26.7675  122.4966   12.6948  H     
45   H        29.6914  120.7931   16.7705  H     
46   H        28.8789  122.3517   16.5926  H     
47   H        30.6388  122.2913   16.7237  H     
48   H        35.3662  117.0966   10.1955  H     
49   H        35.7293  118.5358    8.3398  H     
50   H        33.1797  121.4177   10.0375  H     
51   H        34.8795  115.8183   12.2409  H     
52   H        35.7376  117.2034   12.9692  H     
53   H        34.2599  117.1241   14.9469  H     
54   H        34.9928  115.5103   14.6983  H     
55   H        33.3048  115.7911   14.2226  H     
56   H        33.3542  119.4696    5.6591  H     
57   H        32.4367  119.1968    7.1601  H     
58   H        31.4847  120.5202    4.5915  H     
59   H        30.8688  119.0412    5.3468  H     
60   H        30.3281  123.0206    6.3826  H     
61   H        30.6124  122.1425    7.9028  H     
62   H        32.6642  123.1503    7.3872  H     
63   H        32.5841  122.7484    5.6607  H     
64   H        26.4656  123.8570   10.6192  H     
65   H        25.2007  122.6191   10.7781  H     
66   H        26.5419  122.3719    9.6369  H     
67   H        29.5050  119.0084    7.9109  H     
68   H        27.2304  118.3761    8.3707  H     
69   H        25.3890  119.4515    7.2110  H     
70   H        25.8438  121.1916    5.5796  H     
@<TRIPOS>BOND
     1    1    2 1
     2    1    4 1
     3    2    3 2
     4    2   14 1
     5    3    6 1
     6    4    5 1
     7    4   13 2
     8    5    6 2
     9    5    9 1
    10    6    7 1
    11    7    8 2
    12    7   10 1
    13    8    9 1
    14    9   12 1
    15   10   11 1
    16   11   32 1
    17   14   15 2
    18   14   19 1
    19   15   16 1
    20   15   20 1
    21   16   17 2
    22   17   18 1
    23   18   19 2
    24   18   23 1
    25   20   21 1
    26   21   22 1
    27   23   24 1
    28   23   25 2
    29   23   26 2
    30   24   27 1
    31   24   31 1
    32   27   28 1
    33   28   29 1
    34   29   30 1
    35   29   33 1
    36   30   31 1
    37   33   34 2
    38   33   38 1
    39   34   35 1
    40   35   36 2
    41   36   37 1
    42   37   38 2
    43   38   39 1
    44    1   40 1
    45   10   41 1
    46   10   42 1
    47   11   43 1
    48   11   44 1
    49   12   45 1
    50   12   46 1
    51   12   47 1
    52   16   48 1
    53   17   49 1
    54   19   50 1
    55   21   51 1
    56   21   52 1
    57   22   53 1
    58   22   54 1
    59   22   55 1
    60   27   56 1
    61   27   57 1
    62   28   58 1
    63   28   59 1
    64   30   60 1
    65   30   61 1
    66   31   62 1
    67   31   63 1
    68   32   64 1
    69   32   65 1
    70   32   66 1
    71   34   67 1
    72   35   68 1
    73   36   69 1
    74   37   70 1
@<TRIPOS>PROPERTY_DATA
  Total_Score	| 11.1085
  Crash		| -1.3095
  Polar		| 2.2495
  FragIndex	| 1
  FragRMSD	| 0.526

