@<TRIPOS>MOLECULE
BindingDB_50261648
 70 74 0 0 0
SMALL
NO_CHARGES


@<TRIPOS>ATOM
1    N        32.8591  120.0550   13.6552  N     
2    C        32.5491  120.1730   12.3280  C     
3    N        31.3812  120.7870   11.9787  N     
4    C        32.0619  120.4987   14.6279  C     
5    C        30.8541  121.0971   14.2970  C     
6    C        30.5406  121.2343   12.9474  C     
7    C        29.2952  121.8418   12.8904  C     
8    N        28.9098  122.0643   14.1645  N     
9    N        29.8199  121.6220   14.9889  N     
10   C        28.5806  122.2231   11.6611  C     
11   C        27.0367  122.0603   11.7289  C     
12   C        29.6971  121.7274   16.4099  C     
13   O        32.4192  120.3688   15.7906  O     
14   C        33.4286  119.6937   11.3264  C     
15   C        34.1320  118.4662   11.4658  C     
16   C        34.9716  118.0361   10.4078  C     
17   C        35.0899  118.7892    9.2292  C     
18   C        34.3822  119.9949    9.0744  C     
19   C        33.5697  120.4436   10.1354  C     
20   O        33.8808  117.7145   12.5980  O     
21   C        34.8131  116.7181   13.0572  C     
22   C        34.3757  116.1931   14.4398  C     
23   S        34.3437  120.8167    7.5340  S     
24   N        32.9299  120.4326    6.6864  N     
25   O        34.3856  122.3813    7.8316  O     
26   O        35.6162  120.4021    6.6729  O     
27   C        32.0020  119.4688    7.2352  C     
28   C        30.8037  119.1722    6.2935  C     
29   N        30.2413  120.4074    5.7732  N     
30   C        31.2273  121.2986    5.1555  C     
31   C        32.7274  120.9359    5.3558  C     
32   C        26.3021  122.7434   10.5544  C     
33   C        28.8947  120.7441    5.8115  C     
34   C        27.9005  119.9902    6.5093  C     
35   C        26.5487  120.3724    6.5542  C     
36   C        26.1218  121.5383    5.8966  C     
37   C        27.0590  122.3085    5.1888  C     
38   C        28.4033  121.9036    5.1427  C     
39   Cl       24.4983  122.0173    5.9718  Cl    
40   H        33.6959  119.6381   13.8989  H     
41   H        28.8341  123.2654   11.4261  H     
42   H        28.9504  121.5938   10.8364  H     
43   H        26.7911  120.9891   11.7153  H     
44   H        26.6702  122.4771   12.6662  H     
45   H        29.7313  120.7313   16.8632  H     
46   H        28.7508  122.2019   16.6900  H     
47   H        30.5168  122.3332   16.8104  H     
48   H        35.4816  117.1531   10.4688  H     
49   H        35.6658  118.4223    8.4617  H     
50   H        33.0462  121.3195   10.0245  H     
51   H        34.8422  115.8773   12.3600  H     
52   H        35.8160  117.1431   13.1466  H     
53   H        34.3321  117.0143   15.1593  H     
54   H        35.0855  115.4478   14.8013  H     
55   H        33.3840  115.7328   14.3754  H     
56   H        32.5219  118.5256    7.4352  H     
57   H        31.6046  119.8548    8.1749  H     
58   H        31.1682  118.5944    5.4352  H     
59   H        30.1254  118.5172    6.8330  H     
60   H        31.0386  121.3480    4.0790  H     
61   H        31.1079  122.3014    5.5896  H     
62   H        33.3424  121.8200    5.1558  H     
63   H        33.0165  120.1605    4.6417  H     
64   H        26.4910  123.8157   10.5610  H     
65   H        25.2262  122.5768   10.6453  H     
66   H        26.6404  122.3256    9.6041  H     
67   H        28.1326  119.1534    7.0369  H     
68   H        25.8822  119.8004    7.0844  H     
69   H        26.7730  123.1669    4.7134  H     
70   H        29.0220  122.4914    4.5870  H     
@<TRIPOS>BOND
     1    1    2 1
     2    1    4 1
     3    2    3 2
     4    2   14 1
     5    3    6 1
     6    4    5 1
     7    4   13 2
     8    5    6 2
     9    5    9 1
    10    6    7 1
    11    7    8 2
    12    7   10 1
    13    8    9 1
    14    9   12 1
    15   10   11 1
    16   11   32 1
    17   14   15 2
    18   14   19 1
    19   15   16 1
    20   15   20 1
    21   16   17 2
    22   17   18 1
    23   18   19 2
    24   18   23 1
    25   20   21 1
    26   21   22 1
    27   23   24 1
    28   23   25 2
    29   23   26 2
    30   24   27 1
    31   24   31 1
    32   27   28 1
    33   28   29 1
    34   29   30 1
    35   29   33 1
    36   30   31 1
    37   33   34 2
    38   33   38 1
    39   34   35 1
    40   35   36 2
    41   36   37 1
    42   36   39 1
    43   37   38 2
    44    1   40 1
    45   10   41 1
    46   10   42 1
    47   11   43 1
    48   11   44 1
    49   12   45 1
    50   12   46 1
    51   12   47 1
    52   16   48 1
    53   17   49 1
    54   19   50 1
    55   21   51 1
    56   21   52 1
    57   22   53 1
    58   22   54 1
    59   22   55 1
    60   27   56 1
    61   27   57 1
    62   28   58 1
    63   28   59 1
    64   30   60 1
    65   30   61 1
    66   31   62 1
    67   31   63 1
    68   32   64 1
    69   32   65 1
    70   32   66 1
    71   34   67 1
    72   35   68 1
    73   37   69 1
    74   38   70 1
@<TRIPOS>PROPERTY_DATA
  Total_Score	| 10.8808
  Crash		| -1.9991
  Polar		| 2.2577
  FragIndex	| 1
  FragRMSD	| 1.089

