@<TRIPOS>MOLECULE
BindingDB_50261603
 70 74 0 0 0
SMALL
NO_CHARGES


@<TRIPOS>ATOM
1    N        32.7950  119.8056   13.6702  N     
2    C        32.5089  119.9327   12.3445  C     
3    N        31.3803  120.5961   11.9747  N     
4    C        32.0277  120.3368   14.6226  C     
5    C        30.8863  121.0535   14.2628  C     
6    C        30.5675  121.1462   12.9142  C     
7    C        29.3974  121.8956   12.8249  C     
8    N        29.0757  122.2364   14.0909  N     
9    N        29.9441  121.7506   14.9349  N     
10   C        28.5754  122.2949   11.6559  C     
11   C        28.7101  121.4389   10.3672  C     
12   C        29.8679  121.9450   16.3440  C     
13   O        32.3735  120.2242   15.7850  O     
14   C        33.4103  119.4938   11.3478  C     
15   C        34.0825  118.2503   11.4324  C     
16   C        34.9289  117.8499   10.3700  C     
17   C        35.1258  118.6779    9.2529  C     
18   C        34.4452  119.9086    9.1561  C     
19   C        33.5979  120.3057   10.2066  C     
20   O        33.7713  117.3974   12.4667  O     
21   C        34.8438  116.6314   13.0467  C     
22   C        34.4211  116.1696   14.4529  C     
23   S        34.4438  120.8261    7.6736  S     
24   N        33.0089  120.5381    6.8135  N     
25   O        34.4968  122.3609    8.0977  O     
26   O        35.7437  120.5090    6.8027  O     
27   C        32.0693  119.5694    7.3252  C     
28   C        30.8772  119.3040    6.3717  C     
29   N        30.3511  120.5621    5.8763  N     
30   C        31.3453  121.4199    5.2351  C     
31   C        32.8428  121.0492    5.4807  C     
32   C        29.8881  121.8395    9.4390  C     
33   C        29.0328  120.9629    6.0161  C     
34   C        28.4606  121.9239    5.1350  C     
35   C        27.1483  122.4077    5.2852  C     
36   C        26.3438  121.9350    6.3304  C     
37   C        26.8508  120.9626    7.2029  C     
38   C        28.1685  120.4869    7.0410  C     
39   F        25.1359  122.4043    6.4890  F     
40   H        33.6067  119.3459   13.9261  H     
41   H        27.5292  122.2401   11.9766  H     
42   H        28.7851  123.3412   11.4123  H     
43   H        28.7995  120.3811   10.6376  H     
44   H        27.7864  121.5490    9.7912  H     
45   H        29.7690  120.9819   16.8493  H     
46   H        29.0104  122.5651   16.6057  H     
47   H        30.7731  122.4379   16.6988  H     
48   H        35.3833  116.9359   10.3916  H     
49   H        35.7060  118.3459    8.4810  H     
50   H        33.0950  121.1970   10.1262  H     
51   H        35.0543  115.7499   12.4327  H     
52   H        35.7561  117.2242   13.1243  H     
53   H        34.2155  117.0331   15.0865  H     
54   H        35.2174  115.5781   14.9133  H     
55   H        33.5179  115.5652   14.3834  H     
56   H        32.5891  118.6246    7.5172  H     
57   H        31.6461  119.9353    8.2634  H     
58   H        31.2430  118.7276    5.5145  H     
59   H        30.1533  118.6575    6.8655  H     
60   H        31.1702  121.4242    4.1581  H     
61   H        31.2194  122.4412    5.6108  H     
62   H        33.4632  121.9306    5.3011  H     
63   H        33.1562  120.2797    4.7721  H     
64   H        29.6206  122.7152    8.8513  H     
65   H        30.1246  121.0264    8.7583  H     
66   H        30.7806  122.0817   10.0067  H     
67   H        28.9940  122.2920    4.3482  H     
68   H        26.7824  123.1050    4.6288  H     
69   H        26.2764  120.6339    7.9804  H     
70   H        28.4972  119.8387    7.7506  H     
@<TRIPOS>BOND
     1    1    2 1
     2    1    4 1
     3    2    3 2
     4    2   14 1
     5    3    6 1
     6    4    5 1
     7    4   13 2
     8    5    6 2
     9    5    9 1
    10    6    7 1
    11    7    8 2
    12    7   10 1
    13    8    9 1
    14    9   12 1
    15   10   11 1
    16   11   32 1
    17   14   15 2
    18   14   19 1
    19   15   16 1
    20   15   20 1
    21   16   17 2
    22   17   18 1
    23   18   19 2
    24   18   23 1
    25   20   21 1
    26   21   22 1
    27   23   24 1
    28   23   25 2
    29   23   26 2
    30   24   27 1
    31   24   31 1
    32   27   28 1
    33   28   29 1
    34   29   30 1
    35   29   33 1
    36   30   31 1
    37   33   34 2
    38   33   38 1
    39   34   35 1
    40   35   36 2
    41   36   37 1
    42   36   39 1
    43   37   38 2
    44    1   40 1
    45   10   41 1
    46   10   42 1
    47   11   43 1
    48   11   44 1
    49   12   45 1
    50   12   46 1
    51   12   47 1
    52   16   48 1
    53   17   49 1
    54   19   50 1
    55   21   51 1
    56   21   52 1
    57   22   53 1
    58   22   54 1
    59   22   55 1
    60   27   56 1
    61   27   57 1
    62   28   58 1
    63   28   59 1
    64   30   60 1
    65   30   61 1
    66   31   62 1
    67   31   63 1
    68   32   64 1
    69   32   65 1
    70   32   66 1
    71   34   67 1
    72   35   68 1
    73   37   69 1
    74   38   70 1
@<TRIPOS>PROPERTY_DATA
  Total_Score	| 10.9196
  Crash		| -2.0384
  Polar		| 2.0958
  FragIndex	| 1
  FragRMSD	| 1.055

