@<TRIPOS>MOLECULE
BindingDB_50066648
 86 88 0 0 0
SMALL
NO_CHARGES


@<TRIPOS>ATOM
1    N       -21.0523  -21.4047   57.2647  N     
2    C       -20.8551  -19.8845   55.4130  C     
3    C       -20.5258  -19.2495   56.6569  C     
4    C       -22.5613  -18.2889   54.6008  C     
5    N       -22.1636  -19.5013   54.9714  N     
6    C       -24.6809  -16.4562   55.9111  C     
7    C       -19.2014  -25.4929   57.9633  C     
8    C       -23.9448  -18.1011   54.1715  C     
9    N       -24.7554  -17.6433   55.2678  N     
10   C       -20.4728  -20.1369   57.7777  C     
11   C       -20.7893  -21.3820   55.8047  C     
12   N       -20.4486  -25.0369   58.1937  N     
13   C       -21.1114  -23.9921   57.4674  C     
14   C       -20.6023  -22.6206   58.0049  C     
15   O       -20.2031  -18.0686   56.7388  O     
16   O       -21.7938  -17.3340   54.6430  O     
17   O       -25.5450  -16.2586   56.9315  O     
18   O       -18.7587  -26.4985   58.7498  O     
19   O       -23.8327  -15.4675   55.5234  O     
20   O       -18.4228  -24.9911   56.9655  O     
21   C       -24.1095  -17.2537   52.8597  C     
22   N       -27.0951  -12.1803   57.5650  N     
23   C       -22.6539  -24.1784   57.6082  C     
24   C       -23.6051  -14.1903   56.1364  C     
25   C       -17.1083  -25.4178   56.5811  C     
26   C       -24.8303  -13.5079   56.6346  C     
27   C       -16.1007  -25.2343   57.6584  C     
28   C       -25.2397  -17.6658   51.8585  C     
29   C       -27.1333  -12.7603   56.3379  C     
30   C       -25.9924  -12.2189   58.3540  C     
31   C       -23.1817  -25.5912   57.1529  C     
32   C       -26.0021  -13.4357   55.8452  C     
33   C       -24.8364  -12.8851   57.9058  C     
34   C       -15.2065  -24.1362   57.6329  C     
35   C       -16.0049  -26.1633   58.7230  C     
36   C       -25.0119  -19.0832   51.2595  C     
37   C       -26.6683  -17.5208   52.4481  C     
38   C       -23.8341  -26.3882   58.3193  C     
39   C       -24.1657  -25.5051   55.9563  C     
40   C       -15.0444  -25.9953   59.7388  C     
41   C       -14.2214  -23.9933   58.6261  C     
42   C       -14.1452  -24.9191   59.6844  C     
43   H       -22.0657  -21.3281   57.3912  H     
44   H       -20.1049  -19.6753   54.6416  H     
45   H       -22.8185  -20.2143   54.9068  H     
46   H       -24.3283  -19.0963   53.9379  H     
47   H       -25.4030  -18.2762   55.6202  H     
48   H       -21.0779  -19.7587   58.6059  H     
49   H       -19.4323  -20.2404   58.1022  H     
50   H       -19.7903  -21.7785   55.5808  H     
51   H       -21.5288  -21.9788   55.2618  H     
52   H       -20.9383  -25.4593   58.9181  H     
53   H       -20.8631  -24.0778   56.4045  H     
54   H       -19.5093  -22.6418   58.0074  H     
55   H       -20.9293  -22.5269   59.0439  H     
56   H       -24.2666  -16.2045   53.1319  H     
57   H       -23.1698  -17.2801   52.2975  H     
58   H       -22.9329  -23.9946   58.6507  H     
59   H       -23.1378  -23.3956   57.0181  H     
60   H       -22.8828  -14.3350   56.9437  H     
61   H       -23.1295  -13.5522   55.3892  H     
62   H       -17.1540  -26.4626   56.2635  H     
63   H       -16.8180  -24.8338   55.7045  H     
64   H       -25.1809  -16.9691   51.0153  H     
65   H       -27.9909  -12.7068   55.7842  H     
66   H       -26.0045  -11.7634   59.2678  H     
67   H       -22.3370  -26.1932   56.8012  H     
68   H       -26.0368  -13.8719   54.9199  H     
69   H       -24.0112  -12.9157   58.5082  H     
70   H       -15.2569  -23.4446   56.8779  H     
71   H       -16.6416  -26.9636   58.7679  H     
72   H       -24.0192  -19.1506   50.8094  H     
73   H       -25.7492  -19.2948   50.4831  H     
74   H       -25.0952  -19.8498   52.0291  H     
75   H       -26.8290  -18.2341   53.2588  H     
76   H       -27.4174  -17.6992   51.6742  H     
77   H       -26.8108  -16.5078   52.8294  H     
78   H       -23.1403  -26.4832   59.1553  H     
79   H       -24.1063  -27.3944   57.9912  H     
80   H       -24.7358  -25.8866   58.6736  H     
81   H       -25.0868  -24.9971   56.2488  H     
82   H       -24.4141  -26.5059   55.5958  H     
83   H       -23.7090  -24.9589   55.1310  H     
84   H       -14.9977  -26.6625   60.5140  H     
85   H       -13.5627  -23.2121   58.5803  H     
86   H       -13.4370  -24.8073   60.4131  H     
@<TRIPOS>BOND
     1    1   10 1
     2    1   11 1
     3    1   14 1
     4    2    3 1
     5    2    5 1
     6    2   11 1
     7    3   10 1
     8    3   15 2
     9    4    5 am
    10    4    8 1
    11    4   16 2
    12    6    9 am
    13    6   17 2
    14    6   19 1
    15    7   12 am
    16    7   18 2
    17    7   20 1
    18    8    9 1
    19    8   21 1
    20   12   13 1
    21   13   14 1
    22   13   23 1
    23   19   24 1
    24   20   25 1
    25   21   28 1
    26   22   29 2
    27   22   30 1
    28   23   31 1
    29   24   26 1
    30   25   27 1
    31   26   32 2
    32   26   33 1
    33   27   34 2
    34   27   35 1
    35   28   36 1
    36   28   37 1
    37   29   32 1
    38   30   33 2
    39   31   38 1
    40   31   39 1
    41   34   41 1
    42   35   40 2
    43   40   42 1
    44   41   42 2
    45    1   43 1
    46    2   44 1
    47    5   45 1
    48    8   46 1
    49    9   47 1
    50   10   48 1
    51   10   49 1
    52   11   50 1
    53   11   51 1
    54   12   52 1
    55   13   53 1
    56   14   54 1
    57   14   55 1
    58   21   56 1
    59   21   57 1
    60   23   58 1
    61   23   59 1
    62   24   60 1
    63   24   61 1
    64   25   62 1
    65   25   63 1
    66   28   64 1
    67   29   65 1
    68   30   66 1
    69   31   67 1
    70   32   68 1
    71   33   69 1
    72   34   70 1
    73   35   71 1
    74   36   72 1
    75   36   73 1
    76   36   74 1
    77   37   75 1
    78   37   76 1
    79   37   77 1
    80   38   78 1
    81   38   79 1
    82   38   80 1
    83   39   81 1
    84   39   82 1
    85   39   83 1
    86   40   84 1
    87   41   85 1
    88   42   86 1
@<TRIPOS>PROPERTY_DATA
  Total_Score	| 10.0443
  Crash		| -2.0663
  Polar		| 3.0308
  FragIndex	| 1
  FragRMSD	| 1.458

