@<TRIPOS>MOLECULE
BindingDB_18789
 27 28 0 0 0
SMALL
NO_CHARGES


@<TRIPOS>ATOM
1    C        27.4232    1.8551   15.5125  C     
2    C        27.5095    2.2151   14.1558  C     
3    C        28.6759    1.9382   13.4090  C     
4    C        29.7474    1.2839   14.0591  C     
5    C        29.6553    0.9291   15.4170  C     
6    C        28.4943    1.2144   16.1512  C     
7    C        28.7608    2.2929   12.0375  C     
8    C        27.9665    1.6422   11.0522  C     
9    C        28.8795    2.9932    9.3416  C     
10   C        29.6214    3.3317   11.5830  C     
11   N        27.1238    0.6315   11.3330  N     
12   N        28.9668    3.3365    8.0508  N     
13   N        28.0563    2.0008    9.7488  N     
14   N        29.6324    3.6425   10.2590  N     
15   C        30.4862    4.1323   12.4863  C     
16   H        26.5824    2.0631   16.0483  H     
17   H        26.7169    2.6926   13.7145  H     
18   H        30.5956    1.0407   13.5433  H     
19   H        30.4323    0.4454   15.8704  H     
20   H        28.4196    0.9463   17.1343  H     
21   H        26.6458    0.1828   10.6181  H     
22   H        27.0169    0.3172   12.2405  H     
23   H        29.6081    4.0175    7.7729  H     
24   H        28.4265    2.8752    7.3871  H     
25   H        29.8752    4.6028   13.2589  H     
26   H        31.0151    4.9160   11.9425  H     
27   H        31.2311    3.4940   12.9647  H     
@<TRIPOS>BOND
     1    1    2 2
     2    1    6 1
     3    2    3 1
     4    3    4 2
     5    3    7 1
     6    4    5 1
     7    5    6 2
     8    7    8 1
     9    7   10 2
    10    8   11 1
    11    8   13 2
    12    9   12 1
    13    9   13 1
    14    9   14 2
    15   10   14 1
    16   10   15 1
    17    1   16 1
    18    2   17 1
    19    4   18 1
    20    5   19 1
    21    6   20 1
    22   11   21 1
    23   11   22 1
    24   12   23 1
    25   12   24 1
    26   15   25 1
    27   15   26 1
    28   15   27 1
@<TRIPOS>PROPERTY_DATA
  Total_Score	| 3.7635
  Crash		| -0.4651
  Polar		| 2.7974
  FragIndex	| 1
  FragRMSD	| 0.899

