@<TRIPOS>MOLECULE
BindingDB_18785
 27 28 0 0 0
SMALL
NO_CHARGES


@<TRIPOS>ATOM
1    C        29.9841    1.5978   15.4653  C     
2    C        29.9776    1.9496   14.1009  C     
3    C        28.7557    2.1504   13.4093  C     
4    C        27.5463    1.9531   14.1173  C     
5    C        27.5505    1.5760   15.4742  C     
6    C        28.7700    1.4084   16.1541  C     
7    C        28.7505    2.5133   12.0264  C     
8    C        28.0124    1.7774   11.0602  C     
9    C        28.8848    3.1051    9.3023  C     
10   C        29.4852    3.6344   11.5415  C     
11   N        27.1988    0.7476   11.3448  N     
12   N        29.0194    3.3539    7.9914  N     
13   N        28.1147    2.0877    9.7472  N     
14   N        29.5281    3.8746   10.2042  N     
15   C        30.1156    4.6566   12.4068  C     
16   Cl       31.4533    1.3721   16.2852  Cl    
17   H        30.8664    2.0271   13.5983  H     
18   H        26.6577    2.0837   13.6313  H     
19   H        26.6678    1.4202   15.9727  H     
20   H        28.7704    1.1437   17.1436  H     
21   H        26.7063    0.3094   10.6291  H     
22   H        27.0414    0.4806   12.2616  H     
23   H        29.6510    4.0303    7.6911  H     
24   H        28.5489    2.8077    7.3410  H     
25   H        29.3454    5.1359   13.0148  H     
26   H        30.6029    5.4398   11.8087  H     
27   H        30.8633    4.2242   13.0668  H     
@<TRIPOS>BOND
     1    1    2 1
     2    1    6 2
     3    1   16 1
     4    2    3 2
     5    3    4 1
     6    3    7 1
     7    4    5 2
     8    5    6 1
     9    7    8 1
    10    7   10 2
    11    8   11 1
    12    8   13 2
    13    9   12 1
    14    9   13 1
    15    9   14 2
    16   10   14 1
    17   10   15 1
    18    2   17 1
    19    4   18 1
    20    5   19 1
    21    6   20 1
    22   11   21 1
    23   11   22 1
    24   12   23 1
    25   12   24 1
    26   15   25 1
    27   15   26 1
    28   15   27 1
@<TRIPOS>PROPERTY_DATA
  Total_Score	| 3.8652
  Crash		| -0.5923
  Polar		| 2.8259
  FragIndex	| 1
  FragRMSD	| 1.270

