@<TRIPOS>MOLECULE
BindingDB_11038
 40 41 0 0 0
SMALL
NO_CHARGES


@<TRIPOS>ATOM
1    C        -6.1247    4.7980   15.2275  C     
2    C        -4.5020    2.4820   15.2184  C     
3    C        -5.7071    2.4958   15.9504  C     
4    C        -6.5217    3.6622   15.9496  C     
5    C        -4.9312    4.7618   14.4813  C     
6    C        -4.3186    5.8340   13.7015  C     
7    C        -3.2085    5.0983   12.9005  C     
8    C        -2.9215    3.7926   13.6841  C     
9    C        -4.1374    3.6111   14.4776  C     
10   N        -2.0226    5.8603   12.7046  N     
11   C        -1.9178    7.0007   12.0250  C     
12   O        -2.9080    7.5251   11.4993  O     
13   N        -7.7500    0.9375   17.1969  N     
14   S        -6.1066    1.1060   16.9111  S     
15   O        -5.8383   -0.1683   16.0033  O     
16   O        -5.1575    0.9726   18.1811  O     
17   C        -0.6388    7.6671   11.9419  C     
18   C        -0.1423    8.0427   10.5102  C     
19   C        -0.2952    6.9283    9.4507  C     
20   C        -0.4795    7.5183    8.0244  C     
21   H        -6.6945    5.6536   15.2506  H     
22   H        -3.8915    1.6628   15.2309  H     
23   H        -7.3909    3.6836   16.4958  H     
24   H        -5.0418    6.3075   13.0331  H     
25   H        -3.9066    6.5814   14.3868  H     
26   H        -3.6042    4.8159   11.9190  H     
27   H        -2.7728    2.9431   13.0112  H     
28   H        -2.0645    3.8710   14.3629  H     
29   H        -1.2067    5.5265   13.1098  H     
30   H        -8.1444    0.0597   17.0453  H     
31   H        -8.3178    1.7217   17.1212  H     
32   H        -0.7087    8.5961   12.5178  H     
33   H         0.1311    7.0498   12.4057  H     
34   H        -0.6808    8.9441   10.1818  H     
35   H         0.9121    8.2972   10.5838  H     
36   H         0.5954    6.2960    9.4532  H     
37   H        -1.1626    6.3000    9.6767  H     
38   H        -1.4115    8.0854    7.9768  H     
39   H        -0.5222    6.7120    7.2882  H     
40   H         0.3528    8.1756    7.7728  H     
@<TRIPOS>BOND
     1    1    4 2
     2    1    5 1
     3    2    3 2
     4    2    9 1
     5    3    4 1
     6    3   14 1
     7    5    6 1
     8    5    9 2
     9    6    7 1
    10    7    8 1
    11    7   10 1
    12    8    9 1
    13   10   11 am
    14   11   12 2
    15   11   17 1
    16   13   14 am
    17   14   15 2
    18   14   16 2
    19   17   18 1
    20   18   19 1
    21   19   20 1
    22    1   21 1
    23    2   22 1
    24    4   23 1
    25    6   24 1
    26    6   25 1
    27    7   26 1
    28    8   27 1
    29    8   28 1
    30   10   29 1
    31   13   30 1
    32   13   31 1
    33   17   32 1
    34   17   33 1
    35   18   34 1
    36   18   35 1
    37   19   36 1
    38   19   37 1
    39   20   38 1
    40   20   39 1
    41   20   40 1
@<TRIPOS>PROPERTY_DATA
  Total_Score	| 3.1616
  Crash		| -0.9777
  Polar		| 2.9519
  FragIndex	| 1
  FragRMSD	| 0.939

