@<TRIPOS>MOLECULE
BindingDB_11031
 49 50 0 0 0
SMALL
NO_CHARGES


@<TRIPOS>ATOM
1    C        -6.2501    5.0278   15.0979  C     
2    C        -5.0654    2.5461   14.4319  C     
3    C        -5.8234    2.6680   15.6171  C     
4    C        -6.4183    3.9125   15.9433  C     
5    C        -5.4831    4.8907   13.9287  C     
6    C        -5.2122    5.9134   12.9219  C     
7    C        -4.1681    5.2402   11.9796  C     
8    C        -4.1788    3.7240   12.3323  C     
9    C        -4.8995    3.6679   13.6009  C     
10   N        -2.8486    5.7824   12.1558  N     
11   C        -2.4314    6.9850   11.7861  C     
12   O        -3.1984    7.7821   11.2570  O     
13   C        -1.0538    7.3956   12.0475  C     
14   C        -0.7554    7.4225   13.5826  C     
15   C        -1.5848    8.4745   14.3806  C     
16   C        -0.8615    8.9579   15.6556  C     
17   C        -0.0140    6.5386   11.2411  C     
18   C         0.3272    7.0760    9.8240  C     
19   C        -0.8868    7.3737    8.9154  C     
20   N        -7.5174    1.2783   17.4040  N     
21   S        -6.0090    1.2946   16.6684  S     
22   O        -5.8660   -0.0691   15.8665  O     
23   O        -4.8979    1.3636   17.8017  O     
24   H        -6.6732    5.9289   15.3386  H     
25   H        -4.6330    1.6572   14.1712  H     
26   H        -6.9688    4.0163   16.7973  H     
27   H        -6.1336    6.1523   12.3878  H     
28   H        -4.8259    6.8192   13.3968  H     
29   H        -4.4656    5.3650   10.9334  H     
30   H        -4.7243    3.1464   11.5833  H     
31   H        -3.1733    3.3069   12.4395  H     
32   H        -2.1944    5.2088   12.5872  H     
33   H        -0.9206    8.4288   11.7107  H     
34   H        -0.9242    6.4322   14.0186  H     
35   H         0.3055    7.6530   13.7158  H     
36   H        -1.7817    9.3503   13.7544  H     
37   H        -2.5504    8.0440   14.6633  H     
38   H        -0.6529    8.1140   16.3161  H     
39   H        -1.4847    9.6805   16.1890  H     
40   H         0.0796    9.4439   15.3875  H     
41   H         0.9295    6.5178   11.7855  H     
42   H        -0.3442    5.5016   11.1548  H     
43   H         0.9163    7.9920    9.9211  H     
44   H         0.9514    6.3404    9.3087  H     
45   H        -1.4996    6.4799    8.7881  H     
46   H        -0.5362    7.6950    7.9282  H     
47   H        -1.5011    8.1716    9.3363  H     
48   H        -7.6898    0.6568   18.1257  H     
49   H        -8.2177    1.8622   17.0818  H     
@<TRIPOS>BOND
     1    1    4 2
     2    1    5 1
     3    2    3 2
     4    2    9 1
     5    3    4 1
     6    3   21 1
     7    5    6 1
     8    5    9 2
     9    6    7 1
    10    7    8 1
    11    7   10 1
    12    8    9 1
    13   10   11 am
    14   11   12 2
    15   11   13 1
    16   13   14 1
    17   13   17 1
    18   14   15 1
    19   15   16 1
    20   17   18 1
    21   18   19 1
    22   20   21 am
    23   21   22 2
    24   21   23 2
    25    1   24 1
    26    2   25 1
    27    4   26 1
    28    6   27 1
    29    6   28 1
    30    7   29 1
    31    8   30 1
    32    8   31 1
    33   10   32 1
    34   13   33 1
    35   14   34 1
    36   14   35 1
    37   15   36 1
    38   15   37 1
    39   16   38 1
    40   16   39 1
    41   16   40 1
    42   17   41 1
    43   17   42 1
    44   18   43 1
    45   18   44 1
    46   19   45 1
    47   19   46 1
    48   19   47 1
    49   20   48 1
    50   20   49 1
@<TRIPOS>PROPERTY_DATA
  Total_Score	| 4.7387
  Crash		| -1.3234
  Polar		| 3.0640
  FragIndex	| 1
  FragRMSD	| 1.064

