@<TRIPOS>MOLECULE
BindingDB_11029
 31 32 0 0 0
SMALL
NO_CHARGES


@<TRIPOS>ATOM
1    C        -6.0839    4.7160   14.8848  C     
2    C        -4.3682    2.4733   15.0787  C     
3    C        -5.5968    2.4836   15.7800  C     
4    C        -6.4391    3.6169   15.6917  C     
5    C        -4.8661    4.6813   14.1817  C     
6    C        -4.3146    5.7360   13.3362  C     
7    C        -3.0544    5.0787   12.7068  C     
8    C        -2.7837    3.7817   13.5233  C     
9    C        -4.0174    3.5822   14.2828  C     
10   N        -1.9266    5.9619   12.6870  N     
11   C        -1.8388    7.1011   12.0159  C     
12   C        -0.6240    7.8747   12.1285  C     
13   O        -2.7551    7.5150   11.3122  O     
14   S        -6.0479    1.1270   16.7785  S     
15   O        -5.7976   -0.1968   15.9450  O     
16   O        -5.1732    1.0514   18.1044  O     
17   N        -7.6814    1.0169   17.1566  N     
18   H        -6.6968    5.5297   14.8072  H     
19   H        -3.7311    1.6788   15.1492  H     
20   H        -7.3127    3.6550   16.2210  H     
21   H        -5.0305    6.0362   12.5664  H     
22   H        -4.0633    6.5993   13.9584  H     
23   H        -3.2871    4.7840   11.6766  H     
24   H        -2.5961    2.9299   12.8635  H     
25   H        -1.9446    3.8898   14.2176  H     
26   H        -1.1581    5.7129   13.2220  H     
27   H        -0.4770    8.1771   13.1673  H     
28   H        -0.6535    8.7755   11.5087  H     
29   H         0.2281    7.2685   11.8134  H     
30   H        -8.0474    0.1443   17.3749  H     
31   H        -8.2854    1.7335   16.9095  H     
@<TRIPOS>BOND
     1    1    4 2
     2    1    5 1
     3    2    3 2
     4    2    9 1
     5    3    4 1
     6    3   14 1
     7    5    6 1
     8    5    9 2
     9    6    7 1
    10    7    8 1
    11    7   10 1
    12    8    9 1
    13   10   11 am
    14   11   12 1
    15   11   13 2
    16   14   15 2
    17   14   16 2
    18   14   17 am
    19    1   18 1
    20    2   19 1
    21    4   20 1
    22    6   21 1
    23    6   22 1
    24    7   23 1
    25    8   24 1
    26    8   25 1
    27   10   26 1
    28   12   27 1
    29   12   28 1
    30   12   29 1
    31   17   30 1
    32   17   31 1
@<TRIPOS>PROPERTY_DATA
  Total_Score	| 3.5618
  Crash		| -0.6984
  Polar		| 2.8556
  FragIndex	| 1
  FragRMSD	| 0.992

