@<TRIPOS>MOLECULE
BindingDB_11037
 37 38 0 0 0
SMALL
NO_CHARGES


@<TRIPOS>ATOM
1    C        -6.1549    4.7395   14.8956  C     
2    C        -4.4886    2.4463   14.9709  C     
3    C        -5.6578    2.5084   15.7613  C     
4    C        -6.4861    3.6552   15.7252  C     
5    C        -4.9952    4.6686   14.1076  C     
6    C        -4.4927    5.6958   13.1964  C     
7    C        -3.1811    5.0866   12.6090  C     
8    C        -3.0218    3.6753   13.2592  C     
9    C        -4.1746    3.5436   14.1470  C     
10   N        -2.0190    5.8949   12.8360  N     
11   C        -1.7649    7.0788   12.2848  C     
12   O        -2.5419    7.6051   11.5038  O     
13   N        -7.5993    1.2418   17.4280  N     
14   S        -6.0412    1.1778   16.8139  S     
15   O        -5.8909   -0.2059   16.0485  O     
16   O        -5.0164    1.1929   18.0307  O     
17   C        -0.5657    7.7991   12.6841  C     
18   C        -0.7986    8.8198   13.8360  C     
19   C        -1.3969    8.2297   15.1361  C     
20   H        -6.7496    5.5637   14.8759  H     
21   H        -3.8746    1.6264   14.9892  H     
22   H        -7.3286    3.7210   16.2997  H     
23   H        -5.2264    5.8917   12.4091  H     
24   H        -4.3134    6.6189   13.7522  H     
25   H        -3.3001    4.9546   11.5272  H     
26   H        -3.0394    2.8872   12.4978  H     
27   H        -2.1026    3.5749   13.8449  H     
28   H        -1.3725    5.5604   13.4737  H     
29   H        -7.8195    0.7318   18.2237  H     
30   H        -8.2731    1.8049   17.0091  H     
31   H         0.1981    7.0921   13.0041  H     
32   H        -0.1453    8.3349   11.8249  H     
33   H         0.1671    9.2818   14.0839  H     
34   H        -1.4589    9.6180   13.4738  H     
35   H        -2.3878    7.8228   14.9491  H     
36   H        -1.4938    9.0084   15.8920  H     
37   H        -0.7521    7.4401   15.5191  H     
@<TRIPOS>BOND
     1    1    4 2
     2    1    5 1
     3    2    3 2
     4    2    9 1
     5    3    4 1
     6    3   14 1
     7    5    6 1
     8    5    9 2
     9    6    7 1
    10    7    8 1
    11    7   10 1
    12    8    9 1
    13   10   11 am
    14   11   12 2
    15   11   17 1
    16   13   14 am
    17   14   15 2
    18   14   16 2
    19   17   18 1
    20   18   19 1
    21    1   20 1
    22    2   21 1
    23    4   22 1
    24    6   23 1
    25    6   24 1
    26    7   25 1
    27    8   26 1
    28    8   27 1
    29   10   28 1
    30   13   29 1
    31   13   30 1
    32   17   31 1
    33   17   32 1
    34   18   33 1
    35   18   34 1
    36   19   35 1
    37   19   36 1
    38   19   37 1
@<TRIPOS>PROPERTY_DATA
  Total_Score	| 4.3626
  Crash		| -1.2244
  Polar		| 2.9824
  FragIndex	| 1
  FragRMSD	| 1.031

