@<TRIPOS>MOLECULE
BindingDB_50155553
 27 28 0 0 0
SMALL
NO_CHARGES


@<TRIPOS>ATOM
1    S        -6.1273    1.0560   16.7966  S     
2    C        -5.6569    2.4457   15.8590  C     
3    C        -4.0446    3.5470   14.4077  C     
4    C        -4.8825    4.6595   14.3069  C     
5    C        -4.4102    2.4411   15.1918  C     
6    O        -5.7318   -0.2355   15.9653  O     
7    O        -5.3444    1.0136   18.1782  O     
8    N        -7.7827    0.9287   17.0406  N     
9    C        -2.8053    3.7290   13.6566  C     
10   C        -4.3078    5.7106   13.4738  C     
11   C        -6.5005    3.5792   15.7673  C     
12   C        -3.0333    5.0524   12.8791  C     
13   C        -6.1117    4.6878   14.9900  C     
14   N        -1.8655    5.9425   12.9453  N     
15   H        -3.7748    1.6411   15.2619  H     
16   H        -8.1577    0.0766   17.3331  H     
17   H        -8.3669    1.6776   16.8357  H     
18   H        -1.9650    3.7968   14.3533  H     
19   H        -2.6411    2.8920   12.9722  H     
20   H        -5.0070    5.9985   12.6831  H     
21   H        -4.0727    6.5857   14.0887  H     
22   H        -7.4002    3.6040   16.2557  H     
23   H        -3.2093    4.8193   11.8223  H     
24   H        -6.7174    5.5111   14.9348  H     
25   H        -1.6831    6.2003   13.9205  H     
26   H        -2.0509    6.7889   12.4008  H     
27   H        -1.0454    5.4620   12.5615  H     
@<TRIPOS>BOND
     1    1    2 1
     2    1    6 2
     3    1    7 2
     4    1    8 am
     5    2    5 2
     6    2   11 1
     7    3    4 2
     8    3    5 1
     9    3    9 1
    10    4   10 1
    11    4   13 1
    12    9   12 1
    13   10   12 1
    14   11   13 2
    15   12   14 1
    16    5   15 1
    17    8   16 1
    18    8   17 1
    19    9   18 1
    20    9   19 1
    21   10   20 1
    22   10   21 1
    23   11   22 1
    24   12   23 1
    25   13   24 1
    26   14   25 1
    27   14   26 1
    28   14   27 1
@<TRIPOS>PROPERTY_DATA
  Total_Score	| 3.8740
  Crash		| -0.7101
  Polar		| 2.4327
  FragIndex	| 1
  FragRMSD	| 1.068

