@<TRIPOS>MOLECULE
BindingDB_50155551
 29 30 0 0 0
SMALL
NO_CHARGES


@<TRIPOS>ATOM
1    S        -6.3726    1.2513   17.0214  S     
2    C        -5.9060    2.6488   16.0977  C     
3    C        -4.4632    3.7007   14.4404  C     
4    C        -5.1476    4.9048   14.5921  C     
5    C        -4.8211    2.5679   15.1970  C     
6    C        -3.5535    5.2207   12.8640  C     
7    O        -6.3750   -0.0978   16.0116  O     
8    O        -5.2322    0.9832   18.2357  O     
9    N        -2.3011    5.9089   12.7228  N     
10   C        -2.0527    6.9358   11.9264  C     
11   C        -3.3616    3.8117   13.4894  C     
12   C        -4.5771    5.9672   13.7679  C     
13   O        -7.9025    1.4392   17.7024  O     
14   C        -6.5978    3.8776   16.2511  C     
15   C        -6.2202    5.0112   15.5026  C     
16   O        -2.9225    7.4192   11.2073  O     
17   C        -0.7123    7.4717   11.8792  C     
18   H        -4.2996    1.6946   15.0726  H     
19   H        -4.0028    5.0784   11.8737  H     
20   H        -1.5487    5.5706   13.2371  H     
21   H        -2.4157    3.7136   14.0295  H     
22   H        -3.4276    3.0313   12.7261  H     
23   H        -5.3509    6.4558   13.1714  H     
24   H        -4.0889    6.7042   14.4102  H     
25   H        -7.3761    3.9532   16.9105  H     
26   H        -6.7096    5.8951   15.6309  H     
27   H        -0.4342    7.8529   12.8636  H     
28   H        -0.6268    8.2858   11.1556  H     
29   H        -0.0084    6.6862   11.5946  H     
@<TRIPOS>BOND
     1    1    2 1
     2    1    7 2
     3    1    8 2
     4    1   13 1
     5    2    5 2
     6    2   14 1
     7    3    4 2
     8    3    5 1
     9    3   11 1
    10    4   12 1
    11    4   15 1
    12    6    9 1
    13    6   11 1
    14    6   12 1
    15    9   10 am
    16   10   16 2
    17   10   17 1
    18   14   15 2
    19    5   18 1
    20    6   19 1
    21    9   20 1
    22   11   21 1
    23   11   22 1
    24   12   23 1
    25   12   24 1
    26   14   25 1
    27   15   26 1
    28   17   27 1
    29   17   28 1
    30   17   29 1
@<TRIPOS>PROPERTY_DATA
  Total_Score	| 3.7123
  Crash		| -1.0866
  Polar		| 3.5058
  FragIndex	| 1
  FragRMSD	| 0.703

