@<TRIPOS>MOLECULE
BindingDB_11039
 55 56 0 0 0
SMALL
NO_CHARGES


@<TRIPOS>ATOM
1    C        -6.1770    4.6862   15.0058  C     
2    C        -4.4270    2.4703   15.1549  C     
3    C        -5.6484    2.4562   15.8650  C     
4    C        -6.5115    3.5716   15.7977  C     
5    C        -4.9762    4.6705   14.2766  C     
6    C        -4.4632    5.7274   13.4155  C     
7    C        -3.2250    5.0765   12.7340  C     
8    C        -2.9092    3.7853   13.5438  C     
9    C        -4.1108    3.5816   14.3524  C     
10   N        -2.0982    5.9552   12.6352  N     
11   C        -2.0410    7.0742   11.9245  C     
12   O        -3.0067    7.4806   11.2863  O     
13   N        -7.7229    0.9344   17.1259  N     
14   S        -6.0809    1.0669   16.8163  S     
15   O        -5.7780   -0.2136   15.9269  O     
16   O        -5.2114    0.9686   18.1439  O     
17   C        -0.7975    7.8257   11.8737  C     
18   C        -0.2817    8.3397   13.2441  C     
19   C        -1.3732    8.9963   14.1392  C     
20   C        -0.8654    9.4959   15.5306  C     
21   C         0.0801   10.7423   15.5593  C     
22   C        -0.2871   11.8996   14.5805  C     
23   C        -0.0519   13.3479   15.1254  C     
24   C         1.2263   13.5157   16.0091  C     
25   C         0.9239   13.6603   17.5231  C     
26   H        -6.8026    5.4953   14.9551  H     
27   H        -3.7762    1.6825   15.2080  H     
28   H        -7.3933    3.5883   16.3237  H     
29   H        -5.2134    6.0200   12.6721  H     
30   H        -4.1966    6.5940   14.0271  H     
31   H        -3.5065    4.7814   11.7187  H     
32   H        -2.7473    2.9388   12.8721  H     
33   H        -2.0392    3.9041   14.1923  H     
34   H        -1.2958    5.7032   13.1107  H     
35   H        -8.1098    0.0630   17.3320  H     
36   H        -8.3017    1.7162   17.0720  H     
37   H        -0.0354    7.1686   11.4452  H     
38   H        -0.9022    8.6832   11.1950  H     
39   H         0.1831    7.5159   13.7998  H     
40   H         0.4927    9.0815   13.0357  H     
41   H        -1.8452    9.8254   13.5939  H     
42   H        -2.1591    8.2418   14.3251  H     
43   H        -1.7476    9.7094   16.1564  H     
44   H        -0.3196    8.6694   16.0058  H     
45   H         0.0947   11.1487   16.5800  H     
46   H         1.0962   10.4106   15.3307  H     
47   H         0.2997   11.7799   13.6525  H     
48   H        -1.3400   11.8154   14.2816  H     
49   H         0.0400   14.0025   14.2457  H     
50   H        -0.9551   13.6702   15.6648  H     
51   H         1.8982   12.6570   15.8638  H     
52   H         1.7741   14.4106   15.6715  H     
53   H         0.3692   14.5961   17.6954  H     
54   H         1.8744   13.7002   18.0726  H     
55   H         0.3271   12.7941   17.8683  H     
@<TRIPOS>BOND
     1    1    4 2
     2    1    5 1
     3    2    3 2
     4    2    9 1
     5    3    4 1
     6    3   14 1
     7    5    6 1
     8    5    9 2
     9    6    7 1
    10    7    8 1
    11    7   10 1
    12    8    9 1
    13   10   11 am
    14   11   12 2
    15   11   17 1
    16   13   14 am
    17   14   15 2
    18   14   16 2
    19   17   18 1
    20   18   19 1
    21   19   20 1
    22   20   21 1
    23   21   22 1
    24   22   23 1
    25   23   24 1
    26   24   25 1
    27    1   26 1
    28    2   27 1
    29    4   28 1
    30    6   29 1
    31    6   30 1
    32    7   31 1
    33    8   32 1
    34    8   33 1
    35   10   34 1
    36   13   35 1
    37   13   36 1
    38   17   37 1
    39   17   38 1
    40   18   39 1
    41   18   40 1
    42   19   41 1
    43   19   42 1
    44   20   43 1
    45   20   44 1
    46   21   45 1
    47   21   46 1
    48   22   47 1
    49   22   48 1
    50   23   49 1
    51   23   50 1
    52   24   51 1
    53   24   52 1
    54   25   53 1
    55   25   54 1
    56   25   55 1
@<TRIPOS>PROPERTY_DATA
  Total_Score	| 5.1620
  Crash		| -1.2880
  Polar		| 2.7406
  FragIndex	| 1
  FragRMSD	| 0.887

