@<TRIPOS>MOLECULE
BindingDB_11032
 44 46 0 0 0
SMALL
NO_CHARGES


@<TRIPOS>ATOM
1    C        -6.1994    3.3848   15.2206  C     
2    C        -3.7143    2.9984   13.9295  C     
3    C        -4.1665    2.0728   14.8972  C     
4    C        -5.4109    2.2619   15.5447  C     
5    N        -7.6117    1.1507   17.0996  N     
6    S        -5.9716    1.1196   16.7359  S     
7    O        -5.8000   -0.2975   16.0505  O     
8    O        -5.0696    1.0649   18.0401  O     
9    C        -5.7312    4.3049   14.2600  C     
10   C        -6.4227    5.5062   13.8102  C     
11   C        -5.4021    6.1812   12.8656  C     
12   C        -4.2050    5.2046   12.6638  C     
13   C        -4.4993    4.1270   13.6256  C     
14   N        -2.9224    5.8050   12.9097  N     
15   C        -2.4148    6.8750   12.3028  C     
16   O        -3.0664    7.4449   11.4308  O     
17   C        -1.0623    7.3350   12.6492  C     
18   C        -1.4951    8.8576   14.7211  C     
19   C        -1.0068   10.0964   13.9310  C     
20   C        -1.2296    9.9187   12.4060  C     
21   C        -0.5627    8.6112   11.8899  C     
22   C        -0.8433    7.5578   14.1850  C     
23   H        -7.0986    3.5495   15.6833  H     
24   H        -2.8199    2.8504   13.4596  H     
25   H        -3.5817    1.2674   15.1222  H     
26   H        -8.1332    0.3449   16.9728  H     
27   H        -8.0702    2.0020   17.1536  H     
28   H        -7.3431    5.2388   13.2821  H     
29   H        -6.6599    6.1466   14.6655  H     
30   H        -5.8680    6.4279   11.9059  H     
31   H        -5.0694    7.1187   13.3233  H     
32   H        -4.2246    4.7878   11.6503  H     
33   H        -2.3655    5.3799   13.5828  H     
34   H        -0.3946    6.5174   12.3574  H     
35   H        -1.2450    8.9820   15.7771  H     
36   H        -2.5826    8.7809   14.6427  H     
37   H        -1.5393   10.9872   14.2760  H     
38   H         0.0586   10.2511   14.1221  H     
39   H        -2.3018    9.9045   12.1979  H     
40   H        -0.8040   10.7724   11.8744  H     
41   H         0.5173    8.7031   12.0158  H     
42   H        -0.7484    8.5059   10.8180  H     
43   H        -1.2143    6.7046   14.7631  H     
44   H         0.2341    7.6204   14.3749  H     
@<TRIPOS>BOND
     1    1    4 2
     2    1    9 1
     3    2    3 2
     4    2   13 1
     5    3    4 1
     6    4    6 1
     7    5    6 am
     8    6    7 2
     9    6    8 2
    10    9   10 1
    11    9   13 2
    12   10   11 1
    13   11   12 1
    14   12   13 1
    15   12   14 1
    16   14   15 am
    17   15   16 2
    18   15   17 1
    19   17   21 1
    20   17   22 1
    21   18   19 1
    22   18   22 1
    23   19   20 1
    24   20   21 1
    25    1   23 1
    26    2   24 1
    27    3   25 1
    28    5   26 1
    29    5   27 1
    30   10   28 1
    31   10   29 1
    32   11   30 1
    33   11   31 1
    34   12   32 1
    35   14   33 1
    36   17   34 1
    37   18   35 1
    38   18   36 1
    39   19   37 1
    40   19   38 1
    41   20   39 1
    42   20   40 1
    43   21   41 1
    44   21   42 1
    45   22   43 1
    46   22   44 1
@<TRIPOS>PROPERTY_DATA
  Total_Score	| 5.1073
  Crash		| -1.1672
  Polar		| 2.8357
  FragIndex	| 1
  FragRMSD	| 1.282

