@<TRIPOS>MOLECULE
BindingDB_11036
 34 35 0 0 0
SMALL
NO_CHARGES


@<TRIPOS>ATOM
1    C        -6.1114    4.8481   15.4351  C     
2    C        -4.5939    2.4867   15.1133  C     
3    C        -5.7190    2.4919   15.9698  C     
4    C        -6.4809    3.6762   16.1182  C     
5    C        -4.9919    4.8148   14.5812  C     
6    C        -4.4150    5.9506   13.8707  C     
7    C        -3.3396    5.3056   12.9532  C     
8    C        -3.0896    3.8810   13.5253  C     
9    C        -4.2333    3.6535   14.4184  C     
10   N        -2.1320    6.0747   12.9029  N     
11   C        -1.8478    7.0569   12.0468  C     
12   O        -2.6333    7.3631   11.1350  O     
13   N        -7.7731    0.9138   17.1775  N     
14   S        -6.1369    1.0349   16.8299  S     
15   O        -5.8196   -0.2177   15.8979  O     
16   O        -5.2723    0.9009   18.1573  O     
17   C        -0.5327    7.6517   12.0661  C     
18   C        -0.1994    8.3451   13.4095  C     
19   H        -6.6390    5.7127   15.5689  H     
20   H        -4.0180    1.6458   15.0027  H     
21   H        -7.2856    3.6967   16.7458  H     
22   H        -5.1533    6.4839   13.2682  H     
23   H        -3.9612    6.6305   14.5988  H     
24   H        -3.7662    5.1864   11.9555  H     
25   H        -3.0795    3.1260   12.7325  H     
26   H        -2.1663    3.8059   14.1111  H     
27   H        -1.4239    5.8457   13.5331  H     
28   H        -8.1948    0.0335   17.1518  H     
29   H        -8.3373    1.6937   17.0720  H     
30   H         0.2169    6.8696   11.8871  H     
31   H        -0.4221    8.3860   11.2559  H     
32   H        -1.0006    9.0167   13.7150  H     
33   H         0.7182    8.9332   13.3005  H     
34   H        -0.0470    7.5919   14.1817  H     
@<TRIPOS>BOND
     1    1    4 2
     2    1    5 1
     3    2    3 2
     4    2    9 1
     5    3    4 1
     6    3   14 1
     7    5    6 1
     8    5    9 2
     9    6    7 1
    10    7    8 1
    11    7   10 1
    12    8    9 1
    13   10   11 am
    14   11   12 2
    15   11   17 1
    16   13   14 am
    17   14   15 2
    18   14   16 2
    19   17   18 1
    20    1   19 1
    21    2   20 1
    22    4   21 1
    23    6   22 1
    24    6   23 1
    25    7   24 1
    26    8   25 1
    27    8   26 1
    28   10   27 1
    29   13   28 1
    30   13   29 1
    31   17   30 1
    32   17   31 1
    33   18   32 1
    34   18   33 1
    35   18   34 1
@<TRIPOS>PROPERTY_DATA
  Total_Score	| 3.9804
  Crash		| -0.9510
  Polar		| 2.6791
  FragIndex	| 1
  FragRMSD	| 0.988

