@<TRIPOS>MOLECULE
BindingDB_50155549
 55 56 0 0 0
SMALL
NO_CHARGES


@<TRIPOS>ATOM
1    S        -6.0752    1.0296   16.8343  S     
2    C        -1.8742    6.8972   11.9765  C     
3    C        -5.5617    2.4173   15.9169  C     
4    C        -3.8385    3.6458   14.7119  C     
5    N        -1.7491    5.8384   12.7679  N     
6    C        -4.7691    4.6359   14.3879  C     
7    C        -2.6506    5.4552   13.8123  C     
8    C        -4.2270    2.5190   15.4621  C     
9    O        -5.7839   -0.2211   15.9022  O     
10   O        -5.2133    0.8642   18.1551  O     
11   C        -2.5127    3.9546   14.1819  C     
12   C        -4.1661    5.6894   13.5715  C     
13   N        -7.7191    0.9433   17.1535  N     
14   O        -2.9399    7.4930   11.8824  O     
15   C        -6.4820    3.4481   15.6220  C     
16   C        -6.0992    4.5499   14.8305  C     
17   C        -0.7156    7.4043   11.2421  C     
18   C        -0.9990    7.5170    9.7085  C     
19   C        -0.2270    8.7692   11.8292  C     
20   C        -0.8891    6.1588    8.9530  C     
21   C         0.0674    8.8069   13.3623  C     
22   C        -1.4215    6.2186    7.4915  C     
23   C        -1.1819    9.1201   14.2398  C     
24   C        -2.0433    4.8745    7.0221  C     
25   C        -1.0637    8.5867   15.6836  C     
26   H        -0.9035    5.3670   12.7371  H     
27   H        -2.3686    6.0350   14.7018  H     
28   H        -3.5440    1.7888   15.6789  H     
29   H        -1.7288    3.8036   14.9295  H     
30   H        -2.3053    3.3306   13.3039  H     
31   H        -4.4386    5.5447   12.5225  H     
32   H        -4.4697    6.6794   13.9114  H     
33   H        -8.1418    0.0679   17.2118  H     
34   H        -8.2688    1.7350   17.0381  H     
35   H        -7.4374    3.4002   15.9722  H     
36   H        -6.7741    5.2780   14.5980  H     
37   H         0.1175    6.7003   11.3537  H     
38   H        -1.9956    7.9472    9.5598  H     
39   H        -0.2791    8.2076    9.2615  H     
40   H         0.7014    9.0198   11.3058  H     
41   H        -0.9511    9.5571   11.5872  H     
42   H         0.1617    5.8275    8.9390  H     
43   H        -1.4751    5.4093    9.4924  H     
44   H         0.5102    7.8510   13.6613  H     
45   H         0.8177    9.5719   13.5720  H     
46   H        -2.1919    6.9922    7.4226  H     
47   H        -0.5958    6.4775    6.8056  H     
48   H        -1.3146   10.2087   14.2864  H     
49   H        -2.0898    8.6941   13.7999  H     
50   H        -1.2852    4.0819    7.0135  H     
51   H        -2.4496    4.9811    6.0094  H     
52   H        -2.8622    4.5852    7.6966  H     
53   H        -1.0228    7.4926   15.6836  H     
54   H        -1.9394    8.9097   16.2486  H     
55   H        -0.1609    8.9836   16.1566  H     
@<TRIPOS>BOND
     1    1    3 1
     2    1    9 2
     3    1   10 2
     4    1   13 am
     5    2    5 am
     6    2   14 2
     7    2   17 1
     8    3    8 2
     9    3   15 1
    10    4    6 2
    11    4    8 1
    12    4   11 1
    13    5    7 1
    14    6   12 1
    15    6   16 1
    16    7   11 1
    17    7   12 1
    18   15   16 2
    19   17   18 1
    20   17   19 1
    21   18   20 1
    22   19   21 1
    23   20   22 1
    24   21   23 1
    25   22   24 1
    26   23   25 1
    27    5   26 1
    28    7   27 1
    29    8   28 1
    30   11   29 1
    31   11   30 1
    32   12   31 1
    33   12   32 1
    34   13   33 1
    35   13   34 1
    36   15   35 1
    37   16   36 1
    38   17   37 1
    39   18   38 1
    40   18   39 1
    41   19   40 1
    42   19   41 1
    43   20   42 1
    44   20   43 1
    45   21   44 1
    46   21   45 1
    47   22   46 1
    48   22   47 1
    49   23   48 1
    50   23   49 1
    51   24   50 1
    52   24   51 1
    53   24   52 1
    54   25   53 1
    55   25   54 1
    56   25   55 1
@<TRIPOS>PROPERTY_DATA
  Total_Score	| 4.9962
  Crash		| -1.4909
  Polar		| 2.7055
  FragIndex	| 1
  FragRMSD	| 1.253

