@<TRIPOS>MOLECULE
BindingDB_50292716
 43 45 0 0 0
SMALL
NO_CHARGES


@<TRIPOS>ATOM
1    C        35.5515   -5.5626   13.0736  C     
2    C        36.5423   -4.6631   12.8668  C     
3    N        36.3580   -3.5204   12.1383  N     
4    C        35.1401   -3.3061   11.5964  C     
5    N        34.1509   -4.1640   11.8191  N     
6    C        34.3149   -5.2586   12.5534  C     
7    O        33.3361   -5.9797   12.6950  O     
8    O        34.8747   -2.3527   10.8749  O     
9    C        37.4524   -2.5856   11.9026  C     
10   O        38.7196   -2.9513   12.4776  O     
11   C        39.5352   -1.7751   12.6129  C     
12   C        38.5889   -0.5497   12.4896  C     
13   C        37.1942   -1.1867   12.4994  C     
14   O        38.8125    0.1576   11.2698  O     
15   C        40.3188   -1.8174   13.9538  C     
16   N        40.9993   -3.1172   14.2307  N     
17   C        41.9396   -3.6105   13.2025  C     
18   C        42.7137   -4.7423   13.9059  C     
19   C        42.6779   -4.3838   15.4047  C     
20   C        41.7808   -3.1348   15.4915  C     
21   C        35.8426   -6.8184   13.7573  C     
22   H        37.4388   -4.8634   13.2457  H     
23   H        33.2905   -3.9995   11.4065  H     
24   H        37.6016   -2.4962   10.8197  H     
25   H        40.2613   -1.7672   11.7919  H     
26   H        38.6937    0.1600   13.3160  H     
27   H        36.4791   -0.6048   11.9146  H     
28   H        36.8278   -1.2780   13.5262  H     
29   H        38.7056   -0.5048   10.5528  H     
30   H        41.0490   -0.9992   13.9600  H     
31   H        39.6071   -1.6398   14.7682  H     
32   H        40.2636   -3.8241   14.3272  H     
33   H        41.4073   -3.9941   12.3262  H     
34   H        42.6259   -2.8161   12.8887  H     
35   H        42.2146   -5.7031   13.7372  H     
36   H        43.7396   -4.8099   13.5288  H     
37   H        42.2466   -5.2055   15.9828  H     
38   H        43.6828   -4.1713   15.7848  H     
39   H        42.4114   -2.2438   15.5819  H     
40   H        41.1157   -3.1866   16.3596  H     
41   H        36.5488   -7.4079   13.1669  H     
42   H        34.9560   -7.4294   13.9263  H     
43   H        36.2797   -6.6117   14.7330  H     
@<TRIPOS>BOND
     1    1    2 2
     2    1    6 1
     3    1   21 1
     4    2    3 1
     5    3    4 1
     6    9    3 1
     7    4    5 1
     8    4    8 2
     9    5    6 1
    10    6    7 2
    11    9   10 1
    12    9   13 1
    13   10   11 1
    14   11   12 1
    15   11   15 1
    16   12   13 1
    17   12   14 1
    18   15   16 1
    19   16   17 1
    20   16   20 1
    21   17   18 1
    22   18   19 1
    23   19   20 1
    24    2   22 1
    25    5   23 1
    26    9   24 1
    27   11   25 1
    28   12   26 1
    29   13   27 1
    30   13   28 1
    31   14   29 1
    32   15   30 1
    33   15   31 1
    34   16   32 1
    35   17   33 1
    36   17   34 1
    37   18   35 1
    38   18   36 1
    39   19   37 1
    40   19   38 1
    41   20   39 1
    42   20   40 1
    43   21   41 1
    44   21   42 1
    45   21   43 1
@<TRIPOS>PROPERTY_DATA
  Total_Score	| 1.4584
  Crash		| -0.7454
  Polar		| 1.9030
  FragIndex	| 1
  FragRMSD	| 0.826

