@<TRIPOS>MOLECULE
BindingDB_50292720
 42 44 0 0 0
SMALL
NO_CHARGES


@<TRIPOS>ATOM
1    C        35.4050   -5.0531   13.6965  C     
2    C        36.4232   -4.2155   13.4433  C     
3    N        36.3990   -3.3634   12.3699  N     
4    C        35.2831   -3.3180   11.6131  C     
5    N        34.2718   -4.1462   11.8768  N     
6    C        34.3213   -5.0232   12.8782  C     
7    O        33.3981   -5.8094   13.0215  O     
8    O        35.1458   -2.5753   10.6473  O     
9    C        37.5751   -2.5704   12.0322  C     
10   O        38.7302   -2.8990   12.8074  O     
11   C        39.6477   -1.7991   12.8195  C     
12   C        38.8360   -0.5422   12.3660  C     
13   C        37.3873   -1.0582   12.2459  C     
14   O        36.6496   -0.4293   11.1951  O     
15   O        39.3155   -0.0113   11.1281  O     
16   C        40.2790   -1.6816   14.2501  C     
17   N        41.4935   -2.4951   14.6197  N     
18   C        42.8049   -1.7615   14.6320  C     
19   C        43.9739   -2.6749   15.0825  C     
20   O        44.0007   -3.8902   14.3016  O     
21   C        42.7724   -4.6432   14.3879  C     
22   C        41.5869   -3.7946   13.8741  C     
23   H        35.4394   -5.6663   14.4774  H     
24   H        37.1983   -4.2396   14.0658  H     
25   H        33.4855   -4.1245   11.3081  H     
26   H        37.8559   -2.7376   10.9869  H     
27   H        40.4265   -2.0732   12.0982  H     
28   H        38.8771    0.2752   13.0919  H     
29   H        36.8604   -0.8853   13.1964  H     
30   H        37.0810   -0.7239   10.3619  H     
31   H        39.1268   -0.6864   10.4461  H     
32   H        40.5268   -0.6322   14.4352  H     
33   H        39.4778   -1.8915   14.9695  H     
34   H        41.3409   -2.7677   15.6068  H     
35   H        43.0427   -1.3815   13.6361  H     
36   H        42.7469   -0.9112   15.3156  H     
37   H        44.9237   -2.1503   14.8959  H     
38   H        43.9046   -2.9041   16.1638  H     
39   H        42.8705   -5.5435   13.7726  H     
40   H        42.5977   -4.9664   15.4285  H     
41   H        40.6740   -4.3811   14.0285  H     
42   H        41.7074   -3.6076   12.7975  H     
@<TRIPOS>BOND
     1    1    2 2
     2    1    6 1
     3    2    3 1
     4    3    4 1
     5    9    3 1
     6    4    5 1
     7    4    8 2
     8    5    6 1
     9    6    7 2
    10    9   10 1
    11    9   13 1
    12   10   11 1
    13   11   12 1
    14   11   16 1
    15   12   13 1
    16   12   15 1
    17   13   14 1
    18   16   17 1
    19   17   18 1
    20   17   22 1
    21   18   19 1
    22   19   20 1
    23   20   21 1
    24   21   22 1
    25    1   23 1
    26    2   24 1
    27    5   25 1
    28    9   26 1
    29   11   27 1
    30   12   28 1
    31   13   29 1
    32   14   30 1
    33   15   31 1
    34   16   32 1
    35   16   33 1
    36   17   34 1
    37   18   35 1
    38   18   36 1
    39   19   37 1
    40   19   38 1
    41   21   39 1
    42   21   40 1
    43   22   41 1
    44   22   42 1
@<TRIPOS>PROPERTY_DATA
  Total_Score	| 2.4825
  Crash		| -0.6656
  Polar		| 3.0789
  FragIndex	| 1
  FragRMSD	| 0.891

