@<TRIPOS>MOLECULE
BindingDB_50118239
 36 37 0 0 0
SMALL
NO_CHARGES


@<TRIPOS>ATOM
1    C        37.6622   -2.4546   11.9716  C     
2    C        35.5558   -4.9916   13.6627  C     
3    C        36.5805   -4.1688   13.3696  C     
4    N        36.5137   -3.2901   12.3183  N     
5    C        35.3751   -3.2617   11.5862  C     
6    N        34.3648   -4.0696   11.8812  N     
7    C        34.4348   -4.9328   12.8916  C     
8    O        33.4951   -5.6928   13.0871  O     
9    O        35.2199   -2.5336   10.6114  O     
10   O        38.8884   -2.7200   12.7026  O     
11   C        39.5055   -1.4820   13.1003  C     
12   C        38.8364   -0.3780   12.2812  C     
13   C        37.4108   -0.9275   12.1317  C     
14   C        39.3516   -1.3219   14.6448  C     
15   O        39.4774    0.0474   15.1025  O     
16   O        36.6916   -0.3138   11.0558  O     
17   O        39.4952   -0.2043   11.0254  O     
18   P        38.1782    0.8227   15.4923  P     
19   O        37.4218    0.0126   16.4149  O     
20   O        38.5443    2.0780   16.3199  O     
21   O        37.2550    1.0939   14.2685  O     
22   P        36.9147    2.5653   13.9064  P     
23   O        37.0586    2.7082   12.3752  O     
24   O        37.7541    3.6067   14.4750  O     
25   O        35.4337    2.8633   14.2467  O     
26   H        37.9204   -2.6510   10.9267  H     
27   H        35.6174   -5.6282   14.4234  H     
28   H        37.3845   -4.2136   13.9441  H     
29   H        33.5637   -4.0485   11.3335  H     
30   H        40.5766   -1.5254   12.8759  H     
31   H        38.8377    0.5907   12.7849  H     
32   H        36.8418   -0.7470   13.0530  H     
33   H        38.4185   -1.8159   14.9914  H     
34   H        40.1845   -1.8708   15.1197  H     
35   H        37.1233   -0.6368   10.2346  H     
36   H        39.1159   -0.8586   10.3947  H     
@<TRIPOS>BOND
     1    1    4 1
     2    1   10 1
     3    1   13 1
     4    2    3 2
     5    2    7 1
     6    3    4 1
     7    4    5 1
     8    5    6 1
     9    5    9 2
    10    6    7 1
    11    7    8 2
    12   10   11 1
    13   11   12 1
    14   11   14 1
    15   12   13 1
    16   12   17 1
    17   13   16 1
    18   14   15 1
    19   15   18 1
    20   18   19 2
    21   18   20 1
    22   18   21 1
    23   21   22 1
    24   22   23 1
    25   22   24 2
    26   22   25 1
    27    1   26 1
    28    2   27 1
    29    3   28 1
    30    6   29 1
    31   11   30 1
    32   12   31 1
    33   13   32 1
    34   14   33 1
    35   14   34 1
    36   16   35 1
    37   17   36 1
@<TRIPOS>PROPERTY_DATA
  Total_Score	| 4.7401
  Crash		| -1.0968
  Polar		| 6.3399
  FragIndex	| 1
  FragRMSD	| 0.847

