@<TRIPOS>MOLECULE
BindingDB_50342008
 48 50 0 0 0
SMALL
NO_CHARGES


@<TRIPOS>ATOM
1    C        38.4334   -0.4144   12.8292  C     
2    C        37.0413   -1.0392   12.7688  C     
3    C        37.2277   -2.1606   11.7255  C     
4    O        38.6255   -2.5225   11.7431  O     
5    C        39.3673   -1.6269   12.5952  C     
6    N        36.2784   -3.2427   11.9479  N     
7    O        38.6555    0.3354   14.0224  O     
8    C        39.8482   -2.4140   13.8557  C     
9    N        41.0891   -3.2760   13.7904  N     
10   C        41.5262   -3.8227   12.4635  C     
11   C        42.4158   -2.8778   11.6001  C     
12   C        43.5470   -2.1825   12.4209  C     
13   C        43.0568   -1.6818   13.8119  C     
14   C        42.2666   -2.7751   14.5663  C     
15   C        44.1629   -1.0632   11.6641  C     
16   O        45.3401   -1.2102   11.0140  O     
17   O        43.6236    0.1757   11.7100  O     
18   C        36.6179   -4.3330   12.6988  C     
19   C        35.7216   -5.2910   13.0344  C     
20   C        34.4354   -5.1304   12.5701  C     
21   N        34.1220   -4.0923   11.8016  N     
22   C        35.0103   -3.1528   11.4940  C     
23   O        34.6028   -2.2298   10.8008  O     
24   O        33.5354   -5.9190   12.8239  O     
25   C        36.1503   -6.4346   13.8339  C     
26   H        38.5387    0.2810   11.9888  H     
27   H        36.7726   -1.4533   13.7453  H     
28   H        36.2827   -0.3133   12.4629  H     
29   H        37.0715   -1.7413   10.7252  H     
30   H        40.2414   -1.2505   12.0680  H     
31   H        38.3288   -0.2269   14.7558  H     
32   H        39.9585   -1.7031   14.6760  H     
33   H        39.0306   -3.0702   14.1603  H     
34   H        40.8091   -4.1111   14.3114  H     
35   H        42.1041   -4.7302   12.6600  H     
36   H        40.6594   -4.1416   11.8814  H     
37   H        42.8718   -3.4666   10.7982  H     
38   H        41.7863   -2.1364   11.1101  H     
39   H        44.3221   -2.9341   12.6037  H     
40   H        43.9203   -1.3894   14.4169  H     
41   H        42.4185   -0.8021   13.7043  H     
42   H        41.9597   -2.3912   15.5426  H     
43   H        42.9378   -3.6150   14.7689  H     
44   H        37.5524   -4.4322   13.0217  H     
45   H        33.2241   -4.0236   11.4418  H     
46   H        36.9178   -6.9939   13.2940  H     
47   H        35.3359   -7.1226   14.0674  H     
48   H        36.5709   -6.0851   14.7780  H     
@<TRIPOS>BOND
     1    1    2 1
     2    1    5 1
     3    1    7 1
     4    2    3 1
     5    3    4 1
     6    3    6 1
     7    4    5 1
     8    5    8 1
     9    6   18 1
    10    6   22 1
    11    8    9 1
    12    9   10 1
    13    9   14 1
    14   10   11 1
    15   11   12 1
    16   12   13 1
    17   12   15 1
    18   13   14 1
    19   15   16 1
    20   15   17 2
    21   18   19 2
    22   19   20 1
    23   19   25 1
    24   20   21 1
    25   20   24 2
    26   21   22 1
    27   22   23 2
    28    1   26 1
    29    2   27 1
    30    2   28 1
    31    3   29 1
    32    5   30 1
    33    7   31 1
    34    8   32 1
    35    8   33 1
    36    9   34 1
    37   10   35 1
    38   10   36 1
    39   11   37 1
    40   11   38 1
    41   12   39 1
    42   13   40 1
    43   13   41 1
    44   14   42 1
    45   14   43 1
    46   18   44 1
    47   21   45 1
    48   25   46 1
    49   25   47 1
    50   25   48 1
@<TRIPOS>PROPERTY_DATA
  Total_Score	| 3.4047
  Crash		| -0.8106
  Polar		| 3.7699
  FragIndex	| 1
  FragRMSD	| 1.188

