@<TRIPOS>MOLECULE
BindingDB_50292719
 44 46 0 0 0
SMALL
NO_CHARGES


@<TRIPOS>ATOM
1    C        35.4482   -5.0302   13.6995  C     
2    C        36.4900   -4.2273   13.4258  C     
3    N        36.4846   -3.3917   12.3394  N     
4    C        35.3650   -3.3339   11.5828  C     
5    N        34.3321   -4.1241   11.8623  N     
6    C        34.3596   -4.9671   12.8916  C     
7    O        33.3995   -5.7001   13.0680  O     
8    O        35.2474   -2.6010   10.6070  O     
9    C        37.6530   -2.5841   12.0246  C     
10   O        38.8201   -2.8810   12.8149  O     
11   C        39.6899   -1.7330   12.7796  C     
12   C        38.8357   -0.5118   12.3423  C     
13   C        37.4110   -1.0822   12.2576  C     
14   O        36.6106   -0.4687   11.2495  O     
15   O        39.2973    0.0188   11.0966  O     
16   C        40.3830   -1.5406   14.1630  C     
17   N        41.3849   -2.5719   14.5584  N     
18   C        40.8286   -3.9460   14.8169  C     
19   C        41.8865   -4.8672   15.4723  C     
20   C        43.1837   -4.9253   14.6148  C     
21   C        43.7105   -3.4951   14.3165  C     
22   C        42.6054   -2.6111   13.6845  C     
23   H        35.4654   -5.6225   14.4940  H     
24   H        37.2679   -4.2529   14.0466  H     
25   H        33.5403   -4.0766   11.3079  H     
26   H        37.9538   -2.7501   10.9784  H     
27   H        40.4736   -1.9323   12.0352  H     
28   H        38.8696    0.3045   13.0714  H     
29   H        36.9166   -0.9410   13.2227  H     
30   H        37.0332   -0.7159   10.3986  H     
31   H        39.1116   -0.6765   10.4257  H     
32   H        40.9022   -0.5777   14.1451  H     
33   H        39.6118   -1.4691   14.9329  H     
34   H        41.7216   -2.2617   15.4762  H     
35   H        39.9786   -3.8692   15.5097  H     
36   H        40.4673   -4.4050   13.8896  H     
37   H        42.1370   -4.4900   16.4676  H     
38   H        41.4770   -5.8788   15.5809  H     
39   H        43.9494   -5.4951   15.1467  H     
40   H        42.9684   -5.4438   13.6714  H     
41   H        44.0630   -3.0388   15.2526  H     
42   H        44.5712   -3.5723   13.6358  H     
43   H        42.3664   -3.0038   12.6945  H     
44   H        42.9897   -1.5938   13.5425  H     
@<TRIPOS>BOND
     1    1    2 2
     2    1    6 1
     3    2    3 1
     4    3    4 1
     5    9    3 1
     6    4    5 1
     7    4    8 2
     8    5    6 1
     9    6    7 2
    10    9   10 1
    11    9   13 1
    12   10   11 1
    13   11   12 1
    14   11   16 1
    15   12   13 1
    16   12   15 1
    17   13   14 1
    18   16   17 1
    19   17   18 1
    20   17   22 1
    21   18   19 1
    22   19   20 1
    23   20   21 1
    24   21   22 1
    25    1   23 1
    26    2   24 1
    27    5   25 1
    28    9   26 1
    29   11   27 1
    30   12   28 1
    31   13   29 1
    32   14   30 1
    33   15   31 1
    34   16   32 1
    35   16   33 1
    36   17   34 1
    37   18   35 1
    38   18   36 1
    39   19   37 1
    40   19   38 1
    41   20   39 1
    42   20   40 1
    43   21   41 1
    44   21   42 1
    45   22   43 1
    46   22   44 1
@<TRIPOS>PROPERTY_DATA
  Total_Score	| 2.4754
  Crash		| -0.5891
  Polar		| 2.9945
  FragIndex	| 1
  FragRMSD	| 0.683

