@<TRIPOS>MOLECULE
BindingDB_50292718
 41 43 0 0 0
SMALL
NO_CHARGES


@<TRIPOS>ATOM
1    C        35.3872   -5.1124   13.6649  C     
2    C        36.4456   -4.3270   13.3899  C     
3    N        36.4391   -3.4486   12.3366  N     
4    C        35.3191   -3.3788   11.5817  C     
5    N        34.2685   -4.1479   11.8644  N     
6    C        34.2854   -5.0108   12.8757  C     
7    O        33.3132   -5.7277   13.0581  O     
8    O        35.2065   -2.6578   10.5984  O     
9    C        37.6039   -2.6221   12.0361  C     
10   O        38.7377   -2.8727   12.8830  O     
11   C        39.6279   -1.7486   12.8350  C     
12   C        38.7632   -0.5284   12.4119  C     
13   C        37.3505   -1.1096   12.2176  C     
14   O        36.6423   -0.5039   11.1341  O     
15   O        39.2782    0.0676   11.2210  O     
16   C        40.3385   -1.5613   14.2115  C     
17   N        41.2893   -2.6096   14.6932  N     
18   C        42.6998   -2.4935   14.2605  C     
19   C        43.3536   -3.8365   14.6501  C     
20   C        42.1826   -4.7864   14.9631  C     
21   C        40.9353   -4.0297   14.4809  C     
22   H        35.4134   -5.7502   14.4270  H     
23   H        37.2377   -4.4081   13.9842  H     
24   H        33.4769   -4.0914   11.3075  H     
25   H        37.9281   -2.8159   11.0078  H     
26   H        40.3799   -1.9577   12.0697  H     
27   H        38.7366    0.2480   13.1802  H     
28   H        36.7678   -0.9556   13.1319  H     
29   H        37.1172   -0.7780   10.3185  H     
30   H        39.1025   -0.5818   10.5028  H     
31   H        40.8946   -0.6200   14.1806  H     
32   H        39.5658   -1.4407   14.9761  H     
33   H        41.3105   -2.4925   15.7094  H     
34   H        42.7793   -2.3416   13.1807  H     
35   H        43.1865   -1.6573   14.7709  H     
36   H        43.9591   -4.2208   13.8248  H     
37   H        43.9913   -3.7218   15.5289  H     
38   H        42.2894   -5.7460   14.4488  H     
39   H        42.1162   -4.9647   16.0408  H     
40   H        40.0519   -4.3076   15.0634  H     
41   H        40.7598   -4.2581   13.4265  H     
@<TRIPOS>BOND
     1    1    2 2
     2    1    6 1
     3    2    3 1
     4    3    4 1
     5    9    3 1
     6    4    5 1
     7    4    8 2
     8    5    6 1
     9    6    7 2
    10    9   10 1
    11    9   13 1
    12   10   11 1
    13   11   12 1
    14   11   16 1
    15   12   13 1
    16   12   15 1
    17   13   14 1
    18   16   17 1
    19   17   18 1
    20   17   21 1
    21   18   19 1
    22   19   20 1
    23   20   21 1
    24    1   22 1
    25    2   23 1
    26    5   24 1
    27    9   25 1
    28   11   26 1
    29   12   27 1
    30   13   28 1
    31   14   29 1
    32   15   30 1
    33   16   31 1
    34   16   32 1
    35   17   33 1
    36   18   34 1
    37   18   35 1
    38   19   36 1
    39   19   37 1
    40   20   38 1
    41   20   39 1
    42   21   40 1
    43   21   41 1
@<TRIPOS>PROPERTY_DATA
  Total_Score	| 2.4705
  Crash		| -0.6816
  Polar		| 3.0520
  FragIndex	| 1
  FragRMSD	| 0.676

