@<TRIPOS>MOLECULE
BindingDB_50292724
 32 33 0 0 0
SMALL
NO_CHARGES


@<TRIPOS>ATOM
1    C        35.5438   -4.8671   13.6640  C     
2    C        36.4713   -3.9433   13.3418  C     
3    N        36.3014   -3.0967   12.2801  N     
4    C        35.1510   -3.1867   11.5741  C     
5    N        34.2368   -4.0991   11.8959  N     
6    C        34.4140   -4.9384   12.9112  C     
7    O        33.5544   -5.7758   13.1411  O     
8    O        34.8931   -2.4698   10.6169  O     
9    C        37.3359   -2.1423   11.8963  C     
10   O        38.5024   -2.1479   12.7338  O     
11   C        39.1094   -0.8505   12.6651  C     
12   C        37.8963    0.1132   12.6963  C     
13   C        36.8803   -0.6578   11.8273  C     
14   O        35.5326   -0.4079   12.2316  O     
15   O        38.0655    1.4305   12.1239  O     
16   C        40.1546   -0.7425   13.8060  C     
17   O        39.6502   -1.1875   15.0618  O     
18   P        38.5316    2.6130   13.0256  P     
19   O        40.0514    2.8594   12.9149  O     
20   O        37.8610    3.8865   12.4671  O     
21   O        38.1352    2.4883   14.4064  O     
22   H        35.6848   -5.4821   14.4309  H     
23   H        37.2899   -3.8994   13.9025  H     
24   H        33.4275   -4.1637   11.3670  H     
25   H        37.7086   -2.4359   10.9085  H     
26   H        39.6382   -0.7530   11.7105  H     
27   H        37.4941    0.1759   13.7138  H     
28   H        36.9636   -0.3217   10.7857  H     
29   H        35.5085   -0.4791   13.2080  H     
30   H        41.0175   -1.3618   13.5565  H     
31   H        40.5189    0.2768   13.9021  H     
32   H        39.0156   -0.4942   15.3398  H     
@<TRIPOS>BOND
     1    1    2 2
     2    1    6 1
     3    2    3 1
     4    3    4 1
     5    9    3 1
     6    4    5 1
     7    4    8 2
     8    5    6 1
     9    6    7 2
    10    9   10 1
    11    9   13 1
    12   10   11 1
    13   11   12 1
    14   11   16 1
    15   12   13 1
    16   12   15 1
    17   13   14 1
    18   15   18 1
    19   16   17 1
    20   18   19 1
    21   18   20 1
    22   18   21 2
    23    1   22 1
    24    2   23 1
    25    5   24 1
    26    9   25 1
    27   11   26 1
    28   12   27 1
    29   13   28 1
    30   14   29 1
    31   16   30 1
    32   16   31 1
    33   17   32 1
@<TRIPOS>PROPERTY_DATA
  Total_Score	| 3.9638
  Crash		| -0.4494
  Polar		| 4.3235
  FragIndex	| 1
  FragRMSD	| 0.799

