@<TRIPOS>MOLECULE
BindingDB_50292715
 53 55 0 0 0
SMALL
NO_CHARGES


@<TRIPOS>ATOM
1    C        35.4599   -5.0671   13.7270  C     
2    C        36.4783   -4.2210   13.4815  C     
3    N        36.4413   -3.3318   12.4387  N     
4    C        35.3314   -3.3100   11.6659  C     
5    N        34.3193   -4.1388   11.9200  N     
6    C        34.3668   -5.0143   12.9198  C     
7    O        33.4270   -5.7781   13.0855  O     
8    O        35.1951   -2.5737   10.6982  O     
9    C        37.5791   -2.4687   12.1405  C     
10   O        38.7184   -2.6530   13.0014  O     
11   C        39.5683   -1.5122   12.8480  C     
12   C        38.5700   -0.3335   12.8275  C     
13   C        37.2784   -0.9490   12.2424  C     
14   O        36.9093   -0.3803   10.9844  O     
15   O        39.0764    0.7905   12.1080  O     
16   C        40.6889   -1.4105   13.9346  C     
17   N        41.2160   -2.6812   14.5392  N     
18   C        41.5696   -3.7354   13.5374  C     
19   C        42.2165   -4.9733   14.2089  C     
20   C        41.3157   -5.5671   15.3348  C     
21   C        41.0181   -4.4358   16.3638  C     
22   C        40.3903   -3.1908   15.6825  C     
23   C        40.0992   -6.2501   14.8104  C     
24   O        40.2082   -7.0178   13.6917  O     
25   O        38.9120   -6.1800   15.4627  O     
26   C        39.1978   -7.7738   13.0115  C     
27   C        39.6167   -9.2531   12.9363  C     
28   H        35.5096   -5.7133   14.4818  H     
29   H        37.2617   -4.2669   14.0893  H     
30   H        33.5341   -4.1148   11.3511  H     
31   H        37.9211   -2.7102   11.1260  H     
32   H        40.0591   -1.5925   11.8696  H     
33   H        38.3602   -0.0004   13.8478  H     
34   H        36.4500   -0.7776   12.9367  H     
35   H        37.5558   -0.7196   10.3295  H     
36   H        39.2779    0.4605   11.2071  H     
37   H        41.5375   -0.8917   13.4791  H     
38   H        40.3577   -0.7569   14.7459  H     
39   H        42.1067   -2.4166   14.9674  H     
40   H        40.6895   -4.0616   12.9795  H     
41   H        42.2842   -3.3246   12.8191  H     
42   H        42.4332   -5.7288   13.4496  H     
43   H        43.1746   -4.6714   14.6409  H     
44   H        41.8974   -6.3398   15.8457  H     
45   H        40.3536   -4.8008   17.1512  H     
46   H        41.9521   -4.1344   16.8462  H     
47   H        40.3018   -2.4108   16.4441  H     
48   H        39.3815   -3.4399   15.3537  H     
49   H        38.2263   -7.6965   13.5053  H     
50   H        39.0992   -7.3765   11.9985  H     
51   H        40.5860   -9.3418   12.4444  H     
52   H        38.8799   -9.8201   12.3655  H     
53   H        39.6881   -9.6746   13.9407  H     
@<TRIPOS>BOND
     1    1    2 2
     2    1    6 1
     3    2    3 1
     4    3    4 1
     5    9    3 1
     6    4    5 1
     7    4    8 2
     8    5    6 1
     9    6    7 2
    10    9   10 1
    11    9   13 1
    12   10   11 1
    13   11   12 1
    14   11   16 1
    15   12   13 1
    16   12   15 1
    17   13   14 1
    18   16   17 1
    19   17   18 1
    20   17   22 1
    21   18   19 1
    22   19   20 1
    23   20   21 1
    24   20   23 1
    25   21   22 1
    26   23   24 1
    27   23   25 2
    28   24   26 1
    29   26   27 1
    30    1   28 1
    31    2   29 1
    32    5   30 1
    33    9   31 1
    34   11   32 1
    35   12   33 1
    36   13   34 1
    37   14   35 1
    38   15   36 1
    39   16   37 1
    40   16   38 1
    41   17   39 1
    42   18   40 1
    43   18   41 1
    44   19   42 1
    45   19   43 1
    46   20   44 1
    47   21   45 1
    48   21   46 1
    49   22   47 1
    50   22   48 1
    51   26   49 1
    52   26   50 1
    53   27   51 1
    54   27   52 1
    55   27   53 1
@<TRIPOS>PROPERTY_DATA
  Total_Score	| 3.4098
  Crash		| -0.4196
  Polar		| 3.4495
  FragIndex	| 1
  FragRMSD	| 0.687

