@<TRIPOS>MOLECULE
BindingDB_50292714
 46 48 0 0 0
SMALL
NO_CHARGES


@<TRIPOS>ATOM
1    C        35.0911   -5.5695   13.7401  C     
2    C        36.1177   -4.7340   13.9586  C     
3    N        36.2944   -3.5926   13.2158  N     
4    C        35.4137   -3.3406   12.2170  C     
5    N        34.3876   -4.1740   12.0128  N     
6    C        34.2083   -5.2565   12.7662  C     
7    O        33.2382   -5.9791   12.5641  O     
8    O        35.5049   -2.3869   11.4595  O     
9    C        37.4273   -2.7406   13.5843  C     
10   O        37.6184   -1.4645   12.9541  O     
11   C        38.9704   -1.0226   13.2443  C     
12   C        39.8814   -2.3053   13.2306  C     
13   C        38.8103   -3.4250   13.3664  C     
14   O        38.7519   -4.1756   12.1417  O     
15   N        40.9793   -2.4879   14.2413  N     
16   C        42.0356   -1.4310   14.1756  C     
17   C        42.9602   -1.5177   15.4259  C     
18   C        43.5682   -2.9377   15.5969  C     
19   C        42.4918   -4.0483   15.4598  C     
20   C        41.6497   -3.8322   14.1669  C     
21   C        39.3224   -0.0127   12.0995  C     
22   O        39.8959   -0.6455   10.9610  O     
23   C        38.9395   -0.3059   14.5714  C     
24   O        39.1655   -0.9529   15.7497  O     
25   O        38.6877    1.0252   14.6889  O     
26   H        35.0015   -6.4006   14.2798  H     
27   H        36.7620   -4.9653   14.6885  H     
28   H        33.7621   -3.9863   11.2992  H     
29   H        37.2812   -2.5335   14.6479  H     
30   H        40.3655   -2.3997   12.2544  H     
31   H        39.0712   -4.1009   14.2211  H     
32   H        38.3218   -3.5528   11.5068  H     
33   H        40.5363   -2.4184   15.1622  H     
34   H        42.6366   -1.5220   13.2719  H     
35   H        41.6304   -0.4240   14.1730  H     
36   H        43.7663   -0.7697   15.3486  H     
37   H        42.3718   -1.2649   16.3358  H     
38   H        44.3323   -3.0700   14.8240  H     
39   H        44.0698   -3.0020   16.5746  H     
40   H        42.9996   -5.0157   15.4344  H     
41   H        41.8434   -4.0211   16.3330  H     
42   H        40.8912   -4.6387   14.0466  H     
43   H        42.3258   -3.8922   13.2959  H     
44   H        38.4243    0.5254   11.7489  H     
45   H        40.0580    0.7194   12.4395  H     
46   H        39.1299   -0.8754   10.3710  H     
@<TRIPOS>BOND
     1    1    2 2
     2    1    6 1
     3    2    3 1
     4    3    4 1
     5    9    3 1
     6    4    5 1
     7    4    8 2
     8    5    6 1
     9    6    7 2
    10    9   10 1
    11    9   13 1
    12   10   11 1
    13   11   12 1
    14   11   21 1
    15   11   23 1
    16   12   13 1
    17   12   15 1
    18   13   14 1
    19   15   16 1
    20   15   20 1
    21   16   17 1
    22   17   18 1
    23   18   19 1
    24   19   20 1
    25   21   22 1
    26   23   24 1
    27   23   25 2
    28    1   26 1
    29    2   27 1
    30    5   28 1
    31    9   29 1
    32   12   30 1
    33   13   31 1
    34   14   32 1
    35   15   33 1
    36   16   34 1
    37   16   35 1
    38   17   36 1
    39   17   37 1
    40   18   38 1
    41   18   39 1
    42   19   40 1
    43   19   41 1
    44   20   42 1
    45   20   43 1
    46   21   44 1
    47   21   45 1
    48   22   46 1
@<TRIPOS>PROPERTY_DATA
  Total_Score	| 1.0551
  Crash		| -1.0772
  Polar		| 2.3856
  FragIndex	| 1
  FragRMSD	| 1.160

