@<TRIPOS>MOLECULE
BindingDB_50342006
 46 48 0 0 0
SMALL
NO_CHARGES


@<TRIPOS>ATOM
1    C        38.5225   -0.4813   13.0581  C     
2    C        37.2599   -1.0027   12.3384  C     
3    C        37.5409   -2.5163   12.1120  C     
4    O        38.7314   -2.7947   12.8747  O     
5    C        39.5361   -1.6151   12.8139  C     
6    N        36.4015   -3.3712   12.4105  N     
7    O        37.0151   -0.3234   11.1047  O     
8    O        38.9924    0.7809   12.5823  O     
9    C        40.7178   -1.6665   13.8199  C     
10   N        41.5757   -2.9015   13.7873  N     
11   C        41.8177   -3.5317   12.4492  C     
12   C        42.7558   -2.6850   11.5543  C     
13   C        44.1191   -2.4251   12.2595  C     
14   C        43.9295   -1.8981   13.7140  C     
15   C        42.8790   -2.7261   14.5114  C     
16   C        44.9574   -1.5107   11.4464  C     
17   O        46.1389   -1.9230   10.9378  O     
18   O        44.5114   -0.2845   11.0872  O     
19   C        36.4309   -4.2548   13.4561  C     
20   C        35.4004   -5.0832   13.7073  C     
21   C        34.3082   -5.0235   12.8975  C     
22   N        34.2674   -4.1439   11.8997  N     
23   C        35.2867   -3.3249   11.6468  C     
24   O        35.1540   -2.5694   10.6924  O     
25   O        33.3623   -5.7805   13.0592  O     
26   H        38.3133   -0.3871   14.1290  H     
27   H        36.3890   -0.8557   12.9843  H     
28   H        37.8253   -2.6892   11.0662  H     
29   H        39.9505   -1.5059   11.8048  H     
30   H        37.6179   -0.7331   10.4478  H     
31   H        38.2975    1.4227   12.8382  H     
32   H        41.3167   -0.7710   13.6488  H     
33   H        40.3045   -1.5925   14.8289  H     
34   H        41.0508   -3.6008   14.3198  H     
35   H        42.2680   -4.5175   12.5990  H     
36   H        40.8819   -3.7167   11.9228  H     
37   H        42.9237   -3.2145   10.6121  H     
38   H        42.2594   -1.7394   11.3197  H     
39   H        44.6398   -3.3866   12.3320  H     
40   H        44.8876   -1.9397   14.2396  H     
41   H        43.6162   -0.8512   13.6962  H     
42   H        42.7125   -2.2556   15.4853  H     
43   H        43.2989   -3.7152   14.7124  H     
44   H        37.2175   -4.3066   14.0618  H     
45   H        35.4376   -5.7220   14.4706  H     
46   H        33.4863   -4.1171   11.3246  H     
@<TRIPOS>BOND
     1    1    2 1
     2    1    5 1
     3    1    8 1
     4    2    3 1
     5    2    7 1
     6    3    4 1
     7    3    6 1
     8    4    5 1
     9    5    9 1
    10    6   19 1
    11    6   23 1
    12    9   10 1
    13   10   11 1
    14   10   15 1
    15   11   12 1
    16   12   13 1
    17   13   14 1
    18   13   16 1
    19   14   15 1
    20   16   17 1
    21   16   18 2
    22   19   20 2
    23   20   21 1
    24   21   22 1
    25   21   25 2
    26   22   23 1
    27   23   24 2
    28    1   26 1
    29    2   27 1
    30    3   28 1
    31    5   29 1
    32    7   30 1
    33    8   31 1
    34    9   32 1
    35    9   33 1
    36   10   34 1
    37   11   35 1
    38   11   36 1
    39   12   37 1
    40   12   38 1
    41   13   39 1
    42   14   40 1
    43   14   41 1
    44   15   42 1
    45   15   43 1
    46   19   44 1
    47   20   45 1
    48   22   46 1
@<TRIPOS>PROPERTY_DATA
  Total_Score	| 5.0055
  Crash		| -0.4704
  Polar		| 5.0554
  FragIndex	| 1
  FragRMSD	| 0.913

