@<TRIPOS>MOLECULE
BindingDB_50292722
 32 33 0 0 0
SMALL
NO_CHARGES


@<TRIPOS>ATOM
1    O        41.2046   -2.6340   12.4030  O     
2    C        40.5772   -1.4705   12.9272  C     
3    C        39.3010   -1.1266   12.1327  C     
4    C        38.3918   -0.0886   12.8670  C     
5    O        38.2317    1.1995   12.2188  O     
6    C        37.0147   -0.8091   12.8768  C     
7    O        35.9259    0.0259   12.4969  O     
8    C        37.1634   -1.9698   11.8866  C     
9    O        38.5474   -2.3294   11.9588  O     
10   N        36.2383   -3.0596   12.1929  N     
11   C        35.0668   -3.2186   11.5224  C     
12   O        34.7331   -2.5127   10.5833  O     
13   N        34.2109   -4.1726   11.8884  N     
14   C        34.4593   -4.9887   12.9046  C     
15   C        35.6043   -4.8404   13.6337  C     
16   C        36.4775   -3.8772   13.2662  C     
17   P        38.6162    2.5144   12.9703  P     
18   O        37.8367    3.6597   12.2727  O     
19   O        40.0190    2.8199   12.8096  O     
20   O        38.2186    2.4895   14.4634  O     
21   O        33.6585   -5.8683   13.1698  O     
22   H        41.4473   -2.3931   11.4754  H     
23   H        40.3201   -1.6504   13.9673  H     
24   H        41.2897   -0.6364   12.8841  H     
25   H        39.5657   -0.7354   11.1551  H     
26   H        38.7131    0.0473   13.9171  H     
27   H        36.8347   -1.2014   13.8796  H     
28   H        35.3467    0.0439   13.3088  H     
29   H        37.0013   -1.6219   10.8485  H     
30   H        33.3821   -4.2729   11.3948  H     
31   H        35.7776   -5.4069   14.4295  H     
32   H        37.2900   -3.7643   13.8190  H     
@<TRIPOS>BOND
     1    1    2 1
     2    3    2 1
     3    3    4 1
     4    3    9 1
     5    4    5 1
     6    4    6 1
     7    5   17 1
     8    6    7 1
     9    6    8 1
    10    8    9 1
    11    8   10 1
    12   10   11 1
    13   10   16 1
    14   11   12 2
    15   11   13 1
    16   13   14 1
    17   14   15 1
    18   14   21 2
    19   15   16 2
    20   17   18 1
    21   17   19 2
    22   17   20 1
    23    1   22 1
    24    2   23 1
    25    2   24 1
    26    3   25 1
    27    4   26 1
    28    6   27 1
    29    7   28 1
    30    8   29 1
    31   13   30 1
    32   15   31 1
    33   16   32 1
@<TRIPOS>PROPERTY_DATA
  Total_Score	| 3.3892
  Crash		| -0.5143
  Polar		| 3.9833
  FragIndex	| 1
  FragRMSD	| 0.764

