@<TRIPOS>MOLECULE
BindingDB_50342007
 48 50 0 0 0
SMALL
NO_CHARGES


@<TRIPOS>ATOM
1    C        38.4910   -0.3840   12.9183  C     
2    C        37.2300   -0.9929   12.2803  C     
3    C        37.5683   -2.4942   12.0778  C     
4    O        38.7097   -2.7191   12.9292  O     
5    C        39.5122   -1.5377   12.8768  C     
6    N        36.4441   -3.3999   12.2949  N     
7    O        38.9549    0.7820   12.2412  O     
8    C        40.5696   -1.5083   14.0178  C     
9    N        41.5000   -2.6856   14.1553  N     
10   C        41.7843   -3.4960   12.9295  C     
11   C        42.6599   -2.7201   11.9164  C     
12   C        44.0003   -2.2426   12.5497  C     
13   C        43.7864   -1.5521   13.9325  C     
14   C        42.7933   -2.3412   14.8376  C     
15   C        44.7208   -1.3603   11.5981  C     
16   O        44.2297   -0.1415   11.2792  O     
17   O        45.8083   -1.7910   10.9173  O     
18   C        36.5569   -4.4910   13.1172  C     
19   C        35.5607   -5.3972   13.2623  C     
20   C        34.3793   -5.1317   12.6106  C     
21   N        34.2755   -4.0783   11.8095  N     
22   C        35.2811   -3.2281   11.6302  C     
23   O        35.0819   -2.3180   10.8393  O     
24   O        33.3961   -5.8530   12.7220  O     
25   C        35.7370   -6.6288   14.0263  C     
26   H        38.2679   -0.1066   13.9528  H     
27   H        36.3719   -0.8684   12.9426  H     
28   H        37.0032   -0.5183   11.3227  H     
29   H        37.9085   -2.6444   11.0477  H     
30   H        40.0319   -1.5234   11.9153  H     
31   H        39.0907    0.5110   11.3074  H     
32   H        41.1249   -0.5829   13.8799  H     
33   H        40.0326   -1.4222   14.9670  H     
34   H        41.0149   -3.3302   14.7819  H     
35   H        42.3072   -4.4092   13.2169  H     
36   H        40.8569   -3.8112   12.4466  H     
37   H        42.8710   -3.3665   11.0559  H     
38   H        42.0896   -1.8669   11.5508  H     
39   H        44.6153   -3.1336   12.7197  H     
40   H        44.7506   -1.4813   14.4464  H     
41   H        43.4236   -0.5337   13.7985  H     
42   H        42.5932   -1.7675   15.7440  H     
43   H        43.2763   -3.2674   15.1595  H     
44   H        37.4045   -4.6492   13.6118  H     
45   H        33.4500   -3.9415   11.3250  H     
46   H        36.7517   -6.7439   14.4185  H     
47   H        35.5290   -7.4918   13.3890  H     
48   H        35.0403   -6.6389   14.8663  H     
@<TRIPOS>BOND
     1    1    2 1
     2    1    5 1
     3    1    7 1
     4    2    3 1
     5    3    4 1
     6    3    6 1
     7    4    5 1
     8    5    8 1
     9    6   18 1
    10    6   22 1
    11    8    9 1
    12    9   10 1
    13    9   14 1
    14   10   11 1
    15   11   12 1
    16   12   13 1
    17   12   15 1
    18   13   14 1
    19   15   16 1
    20   15   17 2
    21   18   19 2
    22   19   20 1
    23   19   25 1
    24   20   21 1
    25   20   24 2
    26   21   22 1
    27   22   23 2
    28    1   26 1
    29    2   27 1
    30    2   28 1
    31    3   29 1
    32    5   30 1
    33    7   31 1
    34    8   32 1
    35    8   33 1
    36    9   34 1
    37   10   35 1
    38   10   36 1
    39   11   37 1
    40   11   38 1
    41   12   39 1
    42   13   40 1
    43   13   41 1
    44   14   42 1
    45   14   43 1
    46   18   44 1
    47   21   45 1
    48   25   46 1
    49   25   47 1
    50   25   48 1
@<TRIPOS>PROPERTY_DATA
  Total_Score	| 4.0569
  Crash		| -0.5310
  Polar		| 3.7857
  FragIndex	| 1
  FragRMSD	| 1.170

