@<TRIPOS>MOLECULE
BindingDB_50292723
 32 33 0 0 0
SMALL
NO_CHARGES


@<TRIPOS>ATOM
1    O        41.5301   -1.7647   13.9467  O     
2    C        40.2979   -2.4774   13.7831  C     
3    C        39.5926   -2.0756   12.4570  C     
4    C        38.9071   -0.6793   12.5390  C     
5    O        39.0444    0.0516   11.3146  O     
6    C        37.4229   -1.0321   12.8408  C     
7    O        36.4560   -0.0413   12.3890  O     
8    C        37.3080   -2.3478   12.0170  C     
9    O        38.5771   -3.0238   12.1470  O     
10   N        36.2056   -3.2251   12.3774  N     
11   C        35.0601   -3.2720   11.6597  C     
12   O        34.8130   -2.5190   10.7257  O     
13   N        34.1445   -4.2023   11.9268  N     
14   C        34.3131   -5.0864   12.9063  C     
15   O        33.4669   -5.9521   13.0663  O     
16   C        35.4244   -5.0336   13.6881  C     
17   C        36.3500   -4.0929   13.4249  C     
18   P        36.4288    1.3271   13.1646  P     
19   O        37.5068    1.5382   14.2676  O     
20   O        36.8637    2.3774   12.1274  O     
21   O        35.1464    1.8166   13.6635  O     
22   H        42.1062   -2.1376   13.2392  H     
23   H        40.5263   -3.5574   13.7877  H     
24   H        39.6654   -2.2711   14.6549  H     
25   H        40.3288   -2.0745   11.6505  H     
26   H        39.3258   -0.0675   13.3503  H     
27   H        38.8230   -0.5717   10.5861  H     
28   H        37.2969   -1.2705   13.9146  H     
29   H        37.2441   -2.0930   10.9487  H     
30   H        33.3498   -4.2409   11.3793  H     
31   H        35.5561   -5.6873   14.4279  H     
32   H        37.1577   -4.0752   14.0058  H     
@<TRIPOS>BOND
     1    1    2 1
     2    3    2 1
     3    3    4 1
     4    3    9 1
     5    4    5 1
     6    4    6 1
     7    6    7 1
     8    6    8 1
     9    7   18 1
    10    8    9 1
    11    8   10 1
    12   10   11 1
    13   10   17 1
    14   11   12 2
    15   11   13 1
    16   13   14 1
    17   14   15 2
    18   14   16 1
    19   16   17 2
    20   18   19 1
    21   18   20 1
    22   18   21 2
    23    1   22 1
    24    2   23 1
    25    2   24 1
    26    3   25 1
    27    4   26 1
    28    5   27 1
    29    6   28 1
    30    8   29 1
    31   13   30 1
    32   16   31 1
    33   17   32 1
@<TRIPOS>PROPERTY_DATA
  Total_Score	| 4.8059
  Crash		| -0.3831
  Polar		| 4.8898
  FragIndex	| 1
  FragRMSD	| 0.825

