@<TRIPOS>MOLECULE
BindingDB_50292717
 46 48 0 0 0
SMALL
NO_CHARGES


@<TRIPOS>ATOM
1    C        35.6415   -5.5007   13.0671  C     
2    C        36.6545   -4.6271   12.8544  C     
3    N        36.4947   -3.4766   12.1283  N     
4    C        35.2819   -3.2350   11.5822  C     
5    N        34.2733   -4.0754   11.7995  N     
6    C        34.4077   -5.1622   12.5562  C     
7    O        33.4064   -5.8451   12.7288  O     
8    O        35.0471   -2.2823   10.8449  O     
9    C        37.6075   -2.5570   11.9150  C     
10   O        38.8336   -2.9090   12.5955  O     
11   C        39.6464   -1.7370   12.7956  C     
12   C        38.7386   -0.5029   12.4721  C     
13   C        37.3229   -1.1149   12.3903  C     
14   O        39.1015    0.0988   11.2228  O     
15   C        40.2111   -1.6894   14.2479  C     
16   N        40.9106   -2.9143   14.7527  N     
17   C        42.0223   -3.3785   13.8692  C     
18   C        42.8523   -4.4984   14.5664  C     
19   C        41.9516   -5.6677   15.0460  C     
20   C        40.7793   -5.1437   15.9145  C     
21   C        40.0014   -4.0336   15.1624  C     
22   C        35.9000   -6.7675   13.7447  C     
23   H        37.5557   -4.8629   13.2114  H     
24   H        33.4160   -3.8923   11.3927  H     
25   H        37.8291   -2.5358   10.8401  H     
26   H        40.4916   -1.7877   12.1028  H     
27   H        38.7655    0.2782   13.2416  H     
28   H        36.6802   -0.5588   11.6936  H     
29   H        36.8574   -1.1272   13.3897  H     
30   H        38.9581   -0.5994   10.5424  H     
31   H        40.9151   -0.8516   14.2935  H     
32   H        39.3926   -1.4357   14.9298  H     
33   H        41.3646   -2.6114   15.6185  H     
34   H        41.6247   -3.7398   12.9180  H     
35   H        42.7023   -2.5459   13.6617  H     
36   H        43.6027   -4.8907   13.8700  H     
37   H        43.3779   -4.0797   15.4334  H     
38   H        41.5496   -6.1991   14.1738  H     
39   H        42.5473   -6.3802   15.6304  H     
40   H        40.1053   -5.9736   16.1484  H     
41   H        41.1715   -4.7426   16.8559  H     
42   H        39.2247   -3.6533   15.8329  H     
43   H        39.5133   -4.4814   14.2860  H     
44   H        36.5898   -7.3676   13.1449  H     
45   H        34.9960   -7.3588   13.9099  H     
46   H        36.3582   -6.5799   14.7172  H     
@<TRIPOS>BOND
     1    1    2 2
     2    1    6 1
     3    1   22 1
     4    2    3 1
     5    3    4 1
     6    9    3 1
     7    4    5 1
     8    4    8 2
     9    5    6 1
    10    6    7 2
    11    9   10 1
    12    9   13 1
    13   10   11 1
    14   11   12 1
    15   11   15 1
    16   12   13 1
    17   12   14 1
    18   15   16 1
    19   16   17 1
    20   16   21 1
    21   17   18 1
    22   18   19 1
    23   19   20 1
    24   20   21 1
    25    2   23 1
    26    5   24 1
    27    9   25 1
    28   11   26 1
    29   12   27 1
    30   13   28 1
    31   13   29 1
    32   14   30 1
    33   15   31 1
    34   15   32 1
    35   16   33 1
    36   17   34 1
    37   17   35 1
    38   18   36 1
    39   18   37 1
    40   19   38 1
    41   19   39 1
    42   20   40 1
    43   20   41 1
    44   21   42 1
    45   21   43 1
    46   22   44 1
    47   22   45 1
    48   22   46 1
@<TRIPOS>PROPERTY_DATA
  Total_Score	| 1.4252
  Crash		| -0.6754
  Polar		| 1.8292
  FragIndex	| 1
  FragRMSD	| 0.840

