@<TRIPOS>MOLECULE
BindingDB_7913
 40 42 0 0 0
SMALL
NO_CHARGES


@<TRIPOS>ATOM
1    C        -3.4242   75.8301    4.6304  C     
2    C        -4.3997   75.9419    3.6535  C     
3    C        -4.2721   77.8184    4.7011  C     
4    N        -4.9084   77.1797    3.7020  N     
5    N        -3.3627   77.0054    5.2814  N     
6    C        -2.4619   77.3226    6.3569  C     
7    C        -1.0884   77.7977    5.8158  C     
8    C         0.0651   77.8391    6.8661  C     
9    N         1.0044   76.8045    6.7351  N     
10   C         0.8669   75.5544    7.0517  C     
11   S         0.3132   75.1427    8.6100  S     
12   N         1.5534   74.5889    6.4326  N     
13   C         2.0505   74.5094    5.1656  C     
14   C         2.3655   75.2407    2.8390  C     
15   C         1.8571   75.4603    4.1319  C     
16   C         2.7902   73.3436    4.8647  C     
17   C         3.0971   74.0732    2.5528  C     
18   C         3.3296   73.1285    3.5841  C     
19   C         4.8388   71.9432    2.1614  C     
20   C         4.0708   72.5689    0.9714  C     
21   O         3.6316   73.9067    1.2939  O     
22   O         4.0097   71.9545    3.3409  O     
23   H        -2.8507   75.0047    4.8099  H     
24   H        -4.6828   75.2070    3.0009  H     
25   H        -4.4578   78.7883    4.9650  H     
26   H        -2.9037   78.1044    6.9841  H     
27   H        -2.3254   76.4428    6.9928  H     
28   H        -0.7875   77.1547    4.9857  H     
29   H        -1.2266   78.8025    5.4095  H     
30   H         0.6260   78.7632    6.7033  H     
31   H        -0.3327   77.8831    7.8871  H     
32   H         1.8006   77.0230    6.2940  H     
33   H         1.7059   73.7957    6.9731  H     
34   H         2.1877   75.9257    2.1004  H     
35   H         1.3118   76.3072    4.2850  H     
36   H         2.9369   72.6310    5.5868  H     
37   H         5.1181   70.9126    1.9310  H     
38   H         5.7517   72.5140    2.3524  H     
39   H         4.7081   72.6034    0.0858  H     
40   H         3.1964   71.9515    0.7522  H     
@<TRIPOS>BOND
     1    1    2 2
     2    1    5 1
     3    2    4 1
     4    3    4 2
     5    3    5 1
     6    5    6 1
     7    6    7 1
     8    7    8 1
     9    8    9 1
    10    9   10 am
    11   10   11 2
    12   10   12 am
    13   12   13 1
    14   13   15 1
    15   13   16 2
    16   14   15 2
    17   14   17 1
    18   16   18 1
    19   17   18 2
    20   17   21 1
    21   18   22 1
    22   19   20 1
    23   19   22 1
    24   20   21 1
    25    1   23 1
    26    2   24 1
    27    3   25 1
    28    6   26 1
    29    6   27 1
    30    7   28 1
    31    7   29 1
    32    8   30 1
    33    8   31 1
    34    9   32 1
    35   12   33 1
    36   14   34 1
    37   15   35 1
    38   16   36 1
    39   19   37 1
    40   19   38 1
    41   20   39 1
    42   20   40 1
@<TRIPOS>PROPERTY_DATA
  Total_Score	| 3.8841
  Crash		| -1.4142
  Polar		| 2.2967
  FragIndex	| 1
  FragRMSD	| 0.724

