@<TRIPOS>MOLECULE
BindingDB_7908
 41 42 0 0 0
SMALL
NO_CHARGES


@<TRIPOS>ATOM
1    C        -5.2656   74.6933    4.5309  C     
2    C        -5.8699   75.1098    3.3521  C     
3    C        -4.6471   76.7244    4.0920  C     
4    N        -5.4801   76.3679    3.1014  N     
5    N        -4.5087   75.7151    4.9740  N     
6    C        -3.6783   75.7260    6.1419  C     
7    C        -2.1952   75.4049    5.7952  C     
8    C        -1.2482   75.5286    7.0147  C     
9    N         0.0725   75.6736    6.5791  N     
10   C         1.0663   74.8733    6.8319  C     
11   S         1.4432   74.4645    8.4452  S     
12   N         1.7214   74.2105    5.8770  N     
13   C         2.0550   74.5921    4.6161  C     
14   C         2.8978   73.8904    2.4202  C     
15   C         2.5478   73.5925    3.7486  C     
16   C         1.9851   75.9228    4.1170  C     
17   C         2.3511   76.2282    2.8032  C     
18   C         2.7959   75.2081    1.9245  C     
19   O         3.2324   75.4374    0.6419  O     
20   C         2.4758   76.3464   -0.1860  C     
21   C         3.0755   76.3612   -1.6079  C     
22   H        -5.3702   73.7760    4.9674  H     
23   H        -6.4973   74.5494    2.7737  H     
24   H        -4.1956   77.6370    4.1546  H     
25   H        -3.7425   76.7062    6.6199  H     
26   H        -4.0364   74.9889    6.8694  H     
27   H        -2.1446   74.3801    5.4091  H     
28   H        -1.8665   76.0790    4.9911  H     
29   H        -1.5032   76.4199    7.5813  H     
30   H        -1.3877   74.6591    7.6598  H     
31   H         0.2147   76.3314    5.9281  H     
32   H         1.9914   73.3142    6.1231  H     
33   H         3.2408   73.1414    1.8081  H     
34   H         2.6383   72.6298    4.0761  H     
35   H         1.7197   76.6944    4.7366  H     
36   H         2.3222   77.1991    2.4798  H     
37   H         1.4298   76.0406   -0.2543  H     
38   H         2.5236   77.3531    0.2256  H     
39   H         4.1345   76.6191   -1.5570  H     
40   H         2.5489   77.1030   -2.2203  H     
41   H         2.9637   75.3736   -2.0737  H     
@<TRIPOS>BOND
     1    1    2 2
     2    1    5 1
     3    2    4 1
     4    3    4 2
     5    3    5 1
     6    5    6 1
     7    6    7 1
     8    7    8 1
     9    8    9 1
    10    9   10 am
    11   10   11 2
    12   10   12 am
    13   12   13 1
    14   13   15 1
    15   13   16 2
    16   14   15 2
    17   14   18 1
    18   16   17 1
    19   17   18 2
    20   18   19 1
    21   19   20 1
    22   20   21 1
    23    1   22 1
    24    2   23 1
    25    3   24 1
    26    6   25 1
    27    6   26 1
    28    7   27 1
    29    7   28 1
    30    8   29 1
    31    8   30 1
    32    9   31 1
    33   12   32 1
    34   14   33 1
    35   15   34 1
    36   16   35 1
    37   17   36 1
    38   20   37 1
    39   20   38 1
    40   21   39 1
    41   21   40 1
    42   21   41 1
@<TRIPOS>PROPERTY_DATA
  Total_Score	| 5.3407
  Crash		| -0.9154
  Polar		| 1.8679
  FragIndex	| 1
  FragRMSD	| 0.288

