@<TRIPOS>MOLECULE
BindingDB_7924
 45 46 0 0 0
SMALL
NO_CHARGES


@<TRIPOS>ATOM
1    C        -1.3271   75.0839    7.7039  C     
2    N        -0.0834   75.7384    7.5465  N     
3    C         0.8833   75.1337    6.8921  C     
4    N         1.1952   75.5938    5.6771  N     
5    C         1.9035   75.0866    4.6306  C     
6    C         2.6691   75.5391    2.3406  C     
7    C         2.0067   75.9483    3.5093  C     
8    C         2.4928   73.7963    4.5490  C     
9    C         3.2658   74.2631    2.2655  C     
10   C         3.1570   73.3825    3.3705  C     
11   O         3.9109   73.8469    1.1258  O     
12   C         4.9887   74.7249    0.7432  C     
13   O         3.7568   72.1515    3.3208  O     
14   C         3.0935   71.2057    2.4642  C     
15   S         1.9541   74.1474    7.7895  S     
16   C        -3.4899   75.8412    6.4445  C     
17   C        -4.4628   76.9020    4.4085  C     
18   C        -5.4494   75.2329    3.4759  C     
19   C        -4.8372   74.7880    4.6387  C     
20   N        -4.2194   75.8410    5.2038  N     
21   N        -5.2128   76.5471    3.3505  N     
22   C        -2.1834   74.9901    6.4025  C     
23   C         0.1429   76.9910    8.1545  C     
24   H        -1.1618   74.0706    8.0870  H     
25   H        -1.9255   75.5733    8.4738  H     
26   H         0.7629   76.4291    5.4741  H     
27   H         2.7226   76.1825    1.5475  H     
28   H         1.5832   76.8877    3.5375  H     
29   H         2.4281   73.1478    5.3421  H     
30   H         4.5963   75.6974    0.4128  H     
31   H         5.5134   74.2541   -0.0923  H     
32   H         5.7062   74.8757    1.5642  H     
33   H         2.0606   71.0473    2.7918  H     
34   H         3.6385   70.2620    2.5326  H     
35   H         3.1055   71.5336    1.4181  H     
36   H        -3.2301   76.8651    6.7217  H     
37   H        -4.1457   75.4439    7.2260  H     
38   H        -4.1377   77.8569    4.5786  H     
39   H        -6.0001   74.6596    2.8300  H     
40   H        -4.8696   73.8265    4.9932  H     
41   H        -1.5947   75.2928    5.5357  H     
42   H        -2.4791   73.9456    6.2513  H     
43   H        -0.6010   77.7021    7.7934  H     
44   H         1.1321   77.4121    7.9411  H     
45   H         0.0468   76.9114    9.2418  H     
@<TRIPOS>BOND
     1    1    2 1
     2    1   22 1
     3    2    3 am
     4    2   23 1
     5    3    4 am
     6    3   15 2
     7    4    5 1
     8    5    7 1
     9    5    8 2
    10    6    7 2
    11    6    9 1
    12    8   10 1
    13    9   10 2
    14    9   11 1
    15   10   13 1
    16   11   12 1
    17   13   14 1
    18   16   20 1
    19   16   22 1
    20   17   20 1
    21   17   21 2
    22   18   19 2
    23   18   21 1
    24   19   20 1
    25    1   24 1
    26    1   25 1
    27    4   26 1
    28    6   27 1
    29    7   28 1
    30    8   29 1
    31   12   30 1
    32   12   31 1
    33   12   32 1
    34   14   33 1
    35   14   34 1
    36   14   35 1
    37   16   36 1
    38   16   37 1
    39   17   38 1
    40   18   39 1
    41   19   40 1
    42   22   41 1
    43   22   42 1
    44   23   43 1
    45   23   44 1
    46   23   45 1
@<TRIPOS>PROPERTY_DATA
  Total_Score	| 5.0752
  Crash		| -1.3007
  Polar		| 2.1225
  FragIndex	| 1
  FragRMSD	| 0.840

