@<TRIPOS>MOLECULE
BindingDB_7920
 45 46 0 0 0
SMALL
NO_CHARGES


@<TRIPOS>ATOM
1    C        -0.2337   76.1602    8.2232  C     
2    N         0.8382   75.3810    7.8106  N     
3    C         1.6113   75.6415    6.8198  C     
4    N         2.0347   74.5979    6.1325  N     
5    C         2.3892   74.5299    4.8182  C     
6    C         2.5231   75.3913    2.5218  C     
7    C         2.1342   75.5498    3.8670  C     
8    C         3.0179   73.3427    4.3698  C     
9    C         3.1861   74.2245    2.1102  C     
10   C         3.4173   73.1861    3.0359  C     
11   O         3.5596   74.0578    0.8042  O     
12   C         4.7254   74.8206    0.4058  C     
13   O         4.1188   72.0782    2.6560  O     
14   C         3.3229   71.0410    2.0547  C     
15   S         2.5295   77.0810    6.8323  S     
16   C        -1.5560   75.3973    8.0058  C     
17   C        -1.9828   75.3290    6.5037  C     
18   C        -3.3171   74.5320    6.3015  C     
19   C        -5.5625   74.6526    3.4771  C     
20   C        -5.2553   74.2994    4.7837  C     
21   C        -3.5143   75.2219    3.8793  C     
22   N        -3.9823   74.6746    5.0247  N     
23   N        -4.4825   75.2175    2.9428  N     
24   H        -0.1408   76.3680    9.2901  H     
25   H        -0.2934   77.1238    7.7105  H     
26   H         1.0232   74.5938    8.2929  H     
27   H         2.0999   73.7557    6.6213  H     
28   H         2.2932   76.1390    1.8583  H     
29   H         1.6208   76.3946    4.1441  H     
30   H         3.2011   72.5742    5.0326  H     
31   H         4.4473   75.8933    0.3367  H     
32   H         5.0479   74.4701   -0.5554  H     
33   H         5.5486   74.7049    1.1225  H     
34   H         2.5584   70.6745    2.7478  H     
35   H         3.9847   70.2218    1.7957  H     
36   H         2.8426   71.3885    1.1307  H     
37   H        -1.4941   74.3809    8.4320  H     
38   H        -2.3526   75.9070    8.5498  H     
39   H        -2.1137   76.3544    6.0976  H     
40   H        -1.1714   74.8317    5.9301  H     
41   H        -3.1301   73.4678    6.4633  H     
42   H        -4.0285   74.8381    7.0740  H     
43   H        -6.4547   74.5083    2.9915  H     
44   H        -5.9026   73.8721    5.4503  H     
45   H        -2.5687   75.6058    3.7343  H     
@<TRIPOS>BOND
     1    1    2 1
     2    1   16 1
     3    2    3 am
     4    3    4 am
     5    3   15 2
     6    4    5 1
     7    5    7 1
     8    5    8 2
     9    6    7 2
    10    6    9 1
    11    8   10 1
    12    9   10 2
    13    9   11 1
    14   10   13 1
    15   11   12 1
    16   13   14 1
    17   16   17 1
    18   17   18 1
    19   18   22 1
    20   19   20 2
    21   19   23 1
    22   20   22 1
    23   21   22 1
    24   21   23 2
    25    1   24 1
    26    1   25 1
    27    2   26 1
    28    4   27 1
    29    6   28 1
    30    7   29 1
    31    8   30 1
    32   12   31 1
    33   12   32 1
    34   12   33 1
    35   14   34 1
    36   14   35 1
    37   14   36 1
    38   16   37 1
    39   16   38 1
    40   17   39 1
    41   17   40 1
    42   18   41 1
    43   18   42 1
    44   19   43 1
    45   20   44 1
    46   21   45 1
@<TRIPOS>PROPERTY_DATA
  Total_Score	| 4.8642
  Crash		| -1.1044
  Polar		| 1.2075
  FragIndex	| 1
  FragRMSD	| 0.269

