@<TRIPOS>MOLECULE
BindingDB_7918
 42 43 0 0 0
SMALL
NO_CHARGES


@<TRIPOS>ATOM
1    C        -3.7892   75.7137    4.7143  C     
2    C        -4.6907   75.8874    3.6715  C     
3    C        -4.4368   77.7787    4.6631  C     
4    N        -5.0618   77.1752    3.6397  N     
5    N        -3.6646   76.8976    5.3341  N     
6    C        -2.8785   77.1686    6.5015  C     
7    C        -1.4077   77.5587    6.1666  C     
8    C        -0.3276   76.9466    7.1025  C     
9    N         0.1054   75.6885    6.6542  N     
10   C         1.0982   75.0095    7.1487  C     
11   N         1.8516   74.2050    6.3974  N     
12   C         2.2404   74.3027    5.0959  C     
13   C         2.4703   75.4281    2.9259  C     
14   C         2.0296   75.4279    4.2615  C     
15   C         2.9321   73.1946    4.5551  C     
16   C         3.1570   74.3179    2.3994  C     
17   C         3.3707   73.1824    3.2123  C     
18   O         3.5680   74.3229    1.0908  O     
19   C         4.8321   74.9804    0.8872  C     
20   O         4.0686   72.1028    2.7342  O     
21   C         3.2497   71.1376    2.0495  C     
22   S         1.0899   74.6314    8.8096  S     
23   H        -3.3308   74.8333    4.9644  H     
24   H        -5.0142   75.1668    3.0284  H     
25   H        -4.5376   78.7692    4.9005  H     
26   H        -3.3415   77.9898    7.0604  H     
27   H        -2.9143   76.3059    7.1684  H     
28   H        -1.1680   77.2880    5.1337  H     
29   H        -1.3271   78.6488    6.2284  H     
30   H         0.5243   77.6303    7.1241  H     
31   H        -0.7222   76.8822    8.1253  H     
32   H        -0.2387   75.3904    5.8328  H     
33   H         2.1885   73.4228    6.8613  H     
34   H         2.2962   76.2465    2.3367  H     
35   H         1.5696   76.2641    4.6173  H     
36   H         3.1138   72.3698    5.1352  H     
37   H         4.7817   76.0374    1.1620  H     
38   H         5.0801   74.9195   -0.1724  H     
39   H         5.6311   74.4950    1.4546  H     
40   H         2.4872   70.7127    2.7091  H     
41   H         3.8951   70.3304    1.7062  H     
42   H         2.7699   71.5726    1.1710  H     
@<TRIPOS>BOND
     1    1    2 2
     2    1    5 1
     3    2    4 1
     4    3    4 2
     5    3    5 1
     6    5    6 1
     7    6    7 1
     8    7    8 1
     9    8    9 1
    10    9   10 am
    11   10   11 am
    12   10   22 2
    13   11   12 1
    14   12   14 1
    15   12   15 2
    16   13   14 2
    17   13   16 1
    18   15   17 1
    19   16   17 2
    20   16   18 1
    21   17   20 1
    22   18   19 1
    23   20   21 1
    24    1   23 1
    25    2   24 1
    26    3   25 1
    27    6   26 1
    28    6   27 1
    29    7   28 1
    30    7   29 1
    31    8   30 1
    32    8   31 1
    33    9   32 1
    34   11   33 1
    35   13   34 1
    36   14   35 1
    37   15   36 1
    38   19   37 1
    39   19   38 1
    40   19   39 1
    41   21   40 1
    42   21   41 1
    43   21   42 1
@<TRIPOS>PROPERTY_DATA
  Total_Score	| 5.3098
  Crash		| -0.6672
  Polar		| 2.3186
  FragIndex	| 1
  FragRMSD	| 0.263

