@<TRIPOS>MOLECULE
BindingDB_7917
 46 47 0 0 0
SMALL
NO_CHARGES


@<TRIPOS>ATOM
1    C        -1.0540   79.7182    6.7000  C     
2    C        -2.2945   79.7794    6.0768  C     
3    C        -2.1869   77.9407    7.1886  C     
4    N        -2.9837   78.6723    6.3808  N     
5    N        -1.0046   78.5631    7.3956  N     
6    C         0.1592   78.1384    8.1435  C     
7    C        -0.0018   76.9422    9.1274  C     
8    C         1.1809   75.9142    9.1141  C     
9    N         1.0452   74.8269    8.2369  N     
10   C         1.0725   74.9042    6.9485  C     
11   N         1.8125   74.0068    6.3124  N     
12   C         2.4403   74.1384    5.1113  C     
13   C         3.3004   75.4568    3.2196  C     
14   C         2.6348   75.3796    4.4571  C     
15   C         2.9645   72.9796    4.5192  C     
16   C         3.8086   74.2765    2.6398  C     
17   C         3.6278   73.0353    3.2768  C     
18   O         4.5894   74.3547    1.5214  O     
19   C         3.8888   74.6030    0.2963  C     
20   O         4.1952   71.9104    2.7445  O     
21   C         3.2822   71.0746    2.0052  C     
22   S        -0.3212   75.5054    6.1478  S     
23   O         3.6118   76.6729    2.6802  O     
24   C         2.4815   77.4775    2.3047  C     
25   H        -0.3080   80.4186    6.6258  H     
26   H        -2.6212   80.5411    5.4767  H     
27   H        -2.4790   77.0399    7.5645  H     
28   H         0.9299   77.8856    7.4108  H     
29   H         0.5324   78.9955    8.7236  H     
30   H        -0.1059   77.3298   10.1506  H     
31   H        -0.9020   76.3854    8.8765  H     
32   H         2.1286   76.4250    8.9140  H     
33   H         1.2787   75.4833   10.1128  H     
34   H         1.2744   73.9873    8.5880  H     
35   H         1.9145   73.1567    6.7688  H     
36   H         2.3468   76.2431    4.9225  H     
37   H         2.8798   72.0784    4.9978  H     
38   H         3.2034   73.7851    0.0677  H     
39   H         4.6259   74.6749   -0.5134  H     
40   H         3.3333   75.5438    0.3283  H     
41   H         2.5271   70.6328    2.6624  H     
42   H         3.8647   70.2672    1.5540  H     
43   H         2.7884   71.6284    1.2014  H     
44   H         1.8392   76.9663    1.5849  H     
45   H         2.8622   78.3941    1.8550  H     
46   H         1.8836   77.7522    3.1731  H     
@<TRIPOS>BOND
     1    1    2 2
     2    1    5 1
     3    2    4 1
     4    3    4 2
     5    3    5 1
     6    5    6 1
     7    6    7 1
     8    7    8 1
     9    8    9 1
    10    9   10 am
    11   10   11 am
    12   10   22 2
    13   11   12 1
    14   12   14 1
    15   12   15 2
    16   13   14 2
    17   13   16 1
    18   13   23 1
    19   15   17 1
    20   16   17 2
    21   16   18 1
    22   17   20 1
    23   18   19 1
    24   20   21 1
    25   23   24 1
    26    1   25 1
    27    2   26 1
    28    3   27 1
    29    6   28 1
    30    6   29 1
    31    7   30 1
    32    7   31 1
    33    8   32 1
    34    8   33 1
    35    9   34 1
    36   11   35 1
    37   14   36 1
    38   15   37 1
    39   19   38 1
    40   19   39 1
    41   19   40 1
    42   21   41 1
    43   21   42 1
    44   21   43 1
    45   24   44 1
    46   24   45 1
    47   24   46 1
@<TRIPOS>PROPERTY_DATA
  Total_Score	| 3.3023
  Crash		| -1.5383
  Polar		| 0.0000
  FragIndex	| 1
  FragRMSD	| 0.653

