@<TRIPOS>MOLECULE
BindingDB_7914
 42 43 0 0 0
SMALL
NO_CHARGES


@<TRIPOS>ATOM
1    C        -4.9531   74.8606    4.6106  C     
2    C        -5.5412   75.1624    3.3923  C     
3    C        -4.6201   76.9528    4.1654  C     
4    N        -5.3233   76.4647    3.1321  N     
5    N        -4.3960   75.9911    5.0828  N     
6    C        -3.7310   76.1394    6.3456  C     
7    C        -2.1982   75.8013    6.2900  C     
8    C        -1.6507   75.1033    7.5683  C     
9    N        -0.2956   75.3047    7.8642  N     
10   C         0.6854   74.9089    7.1353  C     
11   S         1.1796   76.0005    5.9140  S     
12   N         1.6141   74.1336    7.6911  N     
13   C         2.5224   73.3683    7.0381  C     
14   C         4.7189   72.2718    7.0897  C     
15   C         3.6933   72.9659    7.7457  C     
16   C         2.3807   72.9414    5.7083  C     
17   C         4.5798   71.9136    5.7328  C     
18   C         3.4000   72.2309    5.0260  C     
19   O         5.8831   72.0048    7.7691  O     
20   C         5.9403   70.6736    8.3090  C     
21   O         3.2260   71.7638    3.7515  O     
22   C         3.1711   72.7789    2.7290  C     
23   H        -4.9580   73.9462    5.0705  H     
24   H        -6.0595   74.5096    2.8009  H     
25   H        -4.3162   77.9264    4.2374  H     
26   H        -3.8529   77.1670    6.6970  H     
27   H        -4.2429   75.5139    7.0813  H     
28   H        -1.9903   75.1709    5.4260  H     
29   H        -1.6664   76.7406    6.1412  H     
30   H        -2.1933   75.4840    8.4318  H     
31   H        -1.8526   74.0269    7.5018  H     
32   H        -0.0889   75.5447    8.7483  H     
33   H         1.7177   74.2076    8.6646  H     
34   H         3.8000   73.2226    8.7222  H     
35   H         1.5111   73.1174    5.2052  H     
36   H         5.3247   71.3999    5.2557  H     
37   H         5.1045   70.4752    8.9845  H     
38   H         6.8671   70.5765    8.8739  H     
39   H         5.9494   69.9332    7.5077  H     
40   H         2.2678   73.3900    2.8189  H     
41   H         3.1411   72.2797    1.7581  H     
42   H         4.0556   73.4242    2.7562  H     
@<TRIPOS>BOND
     1    1    2 2
     2    1    5 1
     3    2    4 1
     4    3    4 2
     5    3    5 1
     6    5    6 1
     7    6    7 1
     8    7    8 1
     9    8    9 1
    10    9   10 am
    11   10   11 2
    12   10   12 am
    13   12   13 1
    14   13   15 1
    15   13   16 2
    16   14   15 2
    17   14   17 1
    18   14   19 1
    19   16   18 1
    20   17   18 2
    21   18   21 1
    22   19   20 1
    23   21   22 1
    24    1   23 1
    25    2   24 1
    26    3   25 1
    27    6   26 1
    28    6   27 1
    29    7   28 1
    30    7   29 1
    31    8   30 1
    32    8   31 1
    33    9   32 1
    34   12   33 1
    35   15   34 1
    36   16   35 1
    37   17   36 1
    38   20   37 1
    39   20   38 1
    40   20   39 1
    41   22   40 1
    42   22   41 1
    43   22   42 1
@<TRIPOS>PROPERTY_DATA
  Total_Score	| 5.6197
  Crash		| -1.0315
  Polar		| 1.9835
  FragIndex	| 1
  FragRMSD	| 1.202

