@<TRIPOS>MOLECULE
BindingDB_7910
 37 39 0 0 0
SMALL
NO_CHARGES


@<TRIPOS>ATOM
1    C        -5.2640   74.8183    4.6996  C     
2    C        -5.7489   75.2302    3.4652  C     
3    C        -4.5682   76.8288    4.2986  C     
4    N        -5.3186   76.4837    3.2416  N     
5    N        -4.5194   75.8238    5.2006  N     
6    C        -3.8231   75.8295    6.4537  C     
7    C        -2.4700   75.0571    6.4113  C     
8    C        -1.4882   75.4310    7.5649  C     
9    N        -0.2777   75.9526    7.0978  N     
10   C         0.6903   75.2100    6.6597  C     
11   S         1.6279   74.3695    7.8200  S     
12   N         1.2116   75.5780    5.4895  N     
13   C         1.8845   74.8432    4.5665  C     
14   C         3.0623   74.8798    2.3989  C     
15   C         2.3670   75.5442    3.4264  C     
16   C         2.0961   73.4378    4.6245  C     
17   C         3.2586   73.4931    2.4921  C     
18   C         2.7698   72.7818    3.5810  C     
19   C         3.6124   71.3949    2.1566  C     
20   O         3.9028   72.7035    1.6172  O     
21   O         3.0272   71.4654    3.4765  O     
22   H        -5.4552   73.9091    5.1382  H     
23   H        -6.3514   74.6816    2.8447  H     
24   H        -4.1173   77.7351    4.4024  H     
25   H        -3.6186   76.8671    6.7588  H     
26   H        -4.4687   75.3798    7.2237  H     
27   H        -2.7080   73.9890    6.4911  H     
28   H        -1.9918   75.1983    5.4389  H     
29   H        -1.9361   76.1862    8.2226  H     
30   H        -1.3167   74.5580    8.1933  H     
31   H        -0.3191   76.8332    6.7605  H     
32   H         1.0256   76.4944    5.2144  H     
33   H         3.4170   75.3943    1.5878  H     
34   H         2.2202   76.5500    3.3468  H     
35   H         1.7353   72.8771    5.3959  H     
36   H         2.9188   70.8797    1.4826  H     
37   H         4.5430   70.8100    2.2054  H     
@<TRIPOS>BOND
     1    1    2 2
     2    1    5 1
     3    2    4 1
     4    3    4 2
     5    3    5 1
     6    5    6 1
     7    6    7 1
     8    7    8 1
     9    8    9 1
    10    9   10 am
    11   10   11 2
    12   10   12 am
    13   12   13 1
    14   13   15 1
    15   13   16 2
    16   14   15 2
    17   14   17 1
    18   16   18 1
    19   17   18 2
    20   17   20 1
    21   18   21 1
    22   19   20 1
    23   19   21 1
    24    1   22 1
    25    2   23 1
    26    3   24 1
    27    6   25 1
    28    6   26 1
    29    7   27 1
    30    7   28 1
    31    8   29 1
    32    8   30 1
    33    9   31 1
    34   12   32 1
    35   14   33 1
    36   15   34 1
    37   16   35 1
    38   19   36 1
    39   19   37 1
@<TRIPOS>PROPERTY_DATA
  Total_Score	| 6.1380
  Crash		| -0.5807
  Polar		| 1.9948
  FragIndex	| 1
  FragRMSD	| 0.687

