@<TRIPOS>MOLECULE
BindingDB_50299849
 45 46 0 0 0
SMALL
NO_CHARGES


@<TRIPOS>ATOM
1    N        -3.5537   75.2532    4.8474  N     
2    C        -2.7593   74.8645    5.8569  C     
3    N        -2.5666   75.8733    6.7245  N     
4    C        -3.2557   76.9293    6.2550  C     
5    C        -3.8821   76.5355    5.0784  C     
6    C        -1.8410   75.8300    7.9544  C     
7    C        -0.8859   77.0406    8.1933  C     
8    C         0.2102   77.3088    7.1221  C     
9    N         1.2800   76.4324    6.9069  N     
10   C         1.3852   75.1813    7.1884  C     
11   N         1.9162   74.2809    6.3556  N     
12   S         1.3828   74.6972    8.8282  S     
13   C        -4.7771   77.3434    4.2336  C     
14   C         2.2550   74.3380    5.0378  C     
15   C         2.9120   73.1940    4.5287  C     
16   C         3.1900   74.2561    2.3484  C     
17   C         2.4953   75.3823    2.8234  C     
18   C         3.3682   73.1400    3.1954  C     
19   C         2.0231   75.4198    4.1493  C     
20   O         4.0576   72.0386    2.7665  O     
21   C         3.2381   71.0979    2.0554  C     
22   O         3.6131   74.2141    1.0456  O     
23   C         4.8359   74.9309    0.8128  C     
24   H        -2.3731   73.9267    5.9484  H     
25   H        -3.3324   77.8433    6.7014  H     
26   H        -2.5726   75.8252    8.7803  H     
27   H        -1.2735   74.8984    8.0275  H     
28   H        -1.5034   77.9435    8.2647  H     
29   H        -0.4083   76.8983    9.1664  H     
30   H        -0.2876   77.4657    6.1633  H     
31   H         0.6787   78.2663    7.3821  H     
32   H         1.9828   76.7854    6.4040  H     
33   H         2.1381   73.4364    6.7826  H     
34   H        -4.3547   77.4235    3.2297  H     
35   H        -4.9042   78.3494    4.6456  H     
36   H        -5.7546   76.8607    4.1680  H     
37   H         3.0836   72.3894    5.1413  H     
38   H         2.3218   76.1731    2.1998  H     
39   H         1.4981   76.2423    4.4374  H     
40   H         2.4482   70.6946    2.6936  H     
41   H         3.8715   70.2745    1.7325  H     
42   H         2.7967   71.5487    1.1643  H     
43   H         4.7213   75.9895    1.0541  H     
44   H         5.0802   74.8457   -0.2446  H     
45   H         5.6602   74.5083    1.3899  H     
@<TRIPOS>BOND
     1    1    2 2
     2    1    5 1
     3    2    3 1
     4    3    4 1
     5    3    6 1
     6    4    5 2
     7    5   13 1
     8    6    7 1
     9    7    8 1
    10    8    9 1
    11    9   10 am
    12   10   11 am
    13   10   12 2
    14   11   14 1
    15   14   15 2
    16   14   19 1
    17   15   18 1
    18   16   17 1
    19   16   18 2
    20   16   22 1
    21   17   19 2
    22   18   20 1
    23   20   21 1
    24   22   23 1
    25    2   24 1
    26    4   25 1
    27    6   26 1
    28    6   27 1
    29    7   28 1
    30    7   29 1
    31    8   30 1
    32    8   31 1
    33    9   32 1
    34   11   33 1
    35   13   34 1
    36   13   35 1
    37   13   36 1
    38   15   37 1
    39   17   38 1
    40   19   39 1
    41   21   40 1
    42   21   41 1
    43   21   42 1
    44   23   43 1
    45   23   44 1
    46   23   45 1
@<TRIPOS>PROPERTY_DATA
  Total_Score	| 4.2823
  Crash		| -0.9674
  Polar		| 0.2249
  FragIndex	| 1
  FragRMSD	| 0.239

