@<TRIPOS>MOLECULE
BindingDB_7922
 45 46 0 0 0
SMALL
NO_CHARGES


@<TRIPOS>ATOM
1    C        -0.2056   75.3045    8.1827  C     
2    N         1.0282   74.6201    8.2373  N     
3    C         1.8945   74.2987    7.3282  C     
4    N         1.9939   74.9994    6.2035  N     
5    C         2.4024   74.6565    4.9498  C     
6    C         2.4934   75.4293    2.6260  C     
7    C         2.1753   75.6511    3.9744  C     
8    C         2.9525   73.4197    4.5399  C     
9    C         3.1042   74.2184    2.2331  C     
10   C         3.3271   73.2088    3.1951  C     
11   O         3.4158   73.9653    0.9218  O     
12   C         4.5572   74.6953    0.4292  C     
13   O         4.0006   72.0676    2.8588  O     
14   C         3.2481   71.1113    2.0974  C     
15   S         3.2453   73.4199    7.8886  S     
16   C        -0.6258   76.2632    7.0038  C     
17   C        -0.8619   75.6102    5.6040  C     
18   C        -2.8554   75.0203    4.2495  C     
19   C        -3.8737   73.6456    5.5632  C     
20   C        -2.7335   74.1038    6.2014  C     
21   N        -2.1189   74.9634    5.3764  N     
22   N        -3.9234   74.2181    4.3539  N     
23   C        -1.8444   77.1594    7.4031  C     
24   H        -0.9894   74.5486    8.3194  H     
25   H        -0.1943   75.9112    9.0950  H     
26   H         1.2909   74.3688    9.1061  H     
27   H         1.6667   75.9096    6.2810  H     
28   H         2.3048   76.1584    1.9294  H     
29   H         1.7718   76.5572    4.2297  H     
30   H         3.1081   72.6837    5.2123  H     
31   H         4.3802   75.7680    0.4104  H     
32   H         4.7380   74.3787   -0.6015  H     
33   H         5.4567   74.4771    1.0099  H     
34   H         2.4252   70.7112    2.6875  H     
35   H         3.9170   70.2905    1.8376  H     
36   H         2.8670   71.5377    1.1722  H     
37   H         0.1885   76.9711    6.8777  H     
38   H        -0.7304   76.4024    4.8661  H     
39   H        -0.0885   74.8730    5.4039  H     
40   H        -2.6374   75.5780    3.4276  H     
41   H        -4.5396   72.9740    5.9277  H     
42   H        -2.4145   73.8187    7.1225  H     
43   H        -2.7390   76.5568    7.6012  H     
44   H        -2.0672   77.8694    6.6038  H     
45   H        -1.6161   77.7318    8.3073  H     
@<TRIPOS>BOND
     1    1    2 1
     2    1   16 1
     3    2    3 am
     4    3    4 am
     5    3   15 2
     6    4    5 1
     7    5    7 1
     8    5    8 2
     9    6    7 2
    10    6    9 1
    11    8   10 1
    12    9   10 2
    13    9   11 1
    14   10   13 1
    15   11   12 1
    16   13   14 1
    17   16   17 1
    18   16   23 1
    19   17   21 1
    20   18   21 1
    21   18   22 2
    22   19   20 2
    23   19   22 1
    24   20   21 1
    25    1   24 1
    26    1   25 1
    27    2   26 1
    28    4   27 1
    29    6   28 1
    30    7   29 1
    31    8   30 1
    32   12   31 1
    33   12   32 1
    34   12   33 1
    35   14   34 1
    36   14   35 1
    37   14   36 1
    38   16   37 1
    39   17   38 1
    40   17   39 1
    41   18   40 1
    42   19   41 1
    43   20   42 1
    44   23   43 1
    45   23   44 1
    46   23   45 1
@<TRIPOS>PROPERTY_DATA
  Total_Score	| 4.1149
  Crash		| -1.8433
  Polar		| 0.0866
  FragIndex	| 1
  FragRMSD	| 0.320

