@<TRIPOS>MOLECULE
BindingDB_7921
 45 46 0 0 0
SMALL
NO_CHARGES


@<TRIPOS>ATOM
1    C        -0.3858   75.6751    8.3943  C     
2    N         0.7761   76.0630    7.7026  N     
3    C         1.4893   75.2679    6.9708  C     
4    N         1.5807   75.6081    5.6970  N     
5    C         2.1497   75.0498    4.5968  C     
6    C         2.6363   75.4343    2.2199  C     
7    C         2.0933   75.8616    3.4403  C     
8    C         2.7349   73.7601    4.4752  C     
9    C         3.2613   74.1725    2.1114  C     
10   C         3.2779   73.3259    3.2391  C     
11   O         3.7342   73.7565    0.9030  O     
12   C         4.9384   74.4393    0.4811  C     
13   O         3.8836   72.0901    3.1927  O     
14   C         3.1847   71.0834    2.4263  C     
15   S         2.6830   74.3426    7.7920  S     
16   C        -1.7074   75.8612    7.5601  C     
17   C        -1.9303   74.6601    6.5783  C     
18   C        -2.7573   75.6202    4.4244  C     
19   C        -4.4832   74.3916    4.0257  C     
20   C        -3.9501   74.0173    5.2532  C     
21   N        -2.8714   74.7938    5.4933  N     
22   N        -3.7370   75.3880    3.5174  N     
23   C        -1.7927   77.3070    6.9411  C     
24   H        -0.3092   74.6314    8.7572  H     
25   H        -0.4575   76.3116    9.2838  H     
26   H         0.8311   76.9742    7.4801  H     
27   H         1.1059   76.4427    5.5021  H     
28   H         2.5862   76.0475    1.4087  H     
29   H         1.6418   76.7818    3.4784  H     
30   H         2.7874   73.1223    5.2629  H     
31   H         4.7481   75.5041    0.3079  H     
32   H         5.2643   73.9939   -0.4650  H     
33   H         5.7394   74.3172    1.2173  H     
34   H         2.1384   70.9626    2.7334  H     
35   H         3.6841   70.1263    2.5871  H     
36   H         3.2253   71.3110    1.3552  H     
37   H        -2.5252   75.8098    8.2977  H     
38   H        -0.9941   74.3738    6.1020  H     
39   H        -2.2260   73.8056    7.2042  H     
40   H        -1.9940   76.2781    4.2631  H     
41   H        -5.2805   73.9796    3.5493  H     
42   H        -4.2838   73.2418    5.8140  H     
43   H        -1.5992   78.0716    7.7191  H     
44   H        -2.8082   77.4673    6.5499  H     
45   H        -1.0472   77.3900    6.1206  H     
@<TRIPOS>BOND
     1    1    2 1
     2    1   16 1
     3    2    3 am
     4    3    4 am
     5    3   15 2
     6    4    5 1
     7    5    7 1
     8    5    8 2
     9    6    7 2
    10    6    9 1
    11    8   10 1
    12    9   10 2
    13    9   11 1
    14   10   13 1
    15   11   12 1
    16   13   14 1
    17   16   17 1
    18   16   23 1
    19   17   21 1
    20   18   21 1
    21   18   22 2
    22   19   20 2
    23   19   22 1
    24   20   21 1
    25    1   24 1
    26    1   25 1
    27    2   26 1
    28    4   27 1
    29    6   28 1
    30    7   29 1
    31    8   30 1
    32   12   31 1
    33   12   32 1
    34   12   33 1
    35   14   34 1
    36   14   35 1
    37   14   36 1
    38   16   37 1
    39   17   38 1
    40   17   39 1
    41   18   40 1
    42   19   41 1
    43   20   42 1
    44   23   43 1
    45   23   44 1
    46   23   45 1
@<TRIPOS>PROPERTY_DATA
  Total_Score	| 3.1909
  Crash		| -2.0463
  Polar		| 0.9927
  FragIndex	| 1
  FragRMSD	| 0.748

