@<TRIPOS>MOLECULE
BindingDB_50299853
 45 46 0 0 0
SMALL
NO_CHARGES


@<TRIPOS>ATOM
1    N        -2.7366   74.3137    5.8725  N     
2    C        -1.6779   75.1332    5.8248  C     
3    N        -2.0593   76.4238    5.7374  N     
4    C        -3.4122   76.4230    5.6980  C     
5    C        -3.8193   75.0941    5.7991  C     
6    C        -1.1815   77.5665    5.7682  C     
7    C        -0.6747   77.8794    7.2153  C     
8    C         0.8659   77.8381    7.4412  C     
9    N         1.5658   76.7359    6.9040  N     
10   C         1.4872   75.4570    7.1854  C     
11   N         2.0130   74.5226    6.4055  N     
12   S         0.8199   74.8801    8.6589  S     
13   C         2.3513   74.5004    5.0808  C     
14   C         2.9525   73.3314    4.5922  C     
15   C         3.1008   74.2586    2.3380  C     
16   C         2.4456   75.4192    2.7886  C     
17   C         3.3312   73.1893    3.2378  C     
18   C         2.0738   75.5402    4.1368  C     
19   O         4.0312   72.0851    2.8259  O     
20   C         3.2391   71.0892    2.1617  C     
21   O         3.4540   74.1579    1.0208  O     
22   C         4.6790   74.8471    0.7197  C     
23   C        -4.3251   77.5785    5.6218  C     
24   H        -0.7179   74.7965    5.8689  H     
25   H        -4.7850   74.7595    5.8280  H     
26   H        -0.3433   77.3855    5.0865  H     
27   H        -1.6892   78.4497    5.3746  H     
28   H        -1.0086   78.8916    7.4922  H     
29   H        -1.1554   77.2189    7.9486  H     
30   H         1.2902   78.7294    6.9732  H     
31   H         1.0912   77.8960    8.5060  H     
32   H         2.1916   76.9591    6.2500  H     
33   H         2.1586   73.6632    6.8590  H     
34   H         3.1678   72.5517    5.2453  H     
35   H         2.2312   76.1833    2.1476  H     
36   H         1.5896   76.3834    4.3968  H     
37   H         2.4673   70.6859    2.8221  H     
38   H         3.9061   70.2778    1.8743  H     
39   H         2.7780   71.4757    1.2511  H     
40   H         4.5965   75.9213    0.9096  H     
41   H         4.8853   74.7037   -0.3387  H     
42   H         5.5142   74.4375    1.2932  H     
43   H        -4.0823   78.2755    6.4265  H     
44   H        -5.3680   77.2566    5.7316  H     
45   H        -4.2098   78.0831    4.6578  H     
@<TRIPOS>BOND
     1    1    2 2
     2    1    5 1
     3    2    3 1
     4    3    4 1
     5    3    6 1
     6    4    5 2
     7    4   23 1
     8    6    7 1
     9    7    8 1
    10    8    9 1
    11    9   10 am
    12   10   11 am
    13   10   12 2
    14   11   13 1
    15   13   14 2
    16   13   18 1
    17   14   17 1
    18   15   16 1
    19   15   17 2
    20   15   21 1
    21   16   18 2
    22   17   19 1
    23   19   20 1
    24   21   22 1
    25    2   24 1
    26    5   25 1
    27    6   26 1
    28    6   27 1
    29    7   28 1
    30    7   29 1
    31    8   30 1
    32    8   31 1
    33    9   32 1
    34   11   33 1
    35   14   34 1
    36   16   35 1
    37   18   36 1
    38   20   37 1
    39   20   38 1
    40   20   39 1
    41   22   40 1
    42   22   41 1
    43   22   42 1
    44   23   43 1
    45   23   44 1
    46   23   45 1
@<TRIPOS>PROPERTY_DATA
  Total_Score	| 3.7452
  Crash		| -0.5708
  Polar		| 0.5722
  FragIndex	| 1
  FragRMSD	| 0.199

