@<TRIPOS>MOLECULE
BindingDB_7909
 38 39 0 0 0
SMALL
NO_CHARGES


@<TRIPOS>ATOM
1    C        -4.9821   74.7349    4.5469  C     
2    C        -5.5861   75.1822    3.3811  C     
3    C        -4.5061   76.8375    4.2707  C     
4    N        -5.2844   76.4859    3.2304  N     
5    N        -4.3204   75.7718    5.0899  N     
6    C        -3.6568   75.7922    6.3662  C     
7    C        -2.1509   75.4501    6.3058  C     
8    C        -1.5284   75.2127    7.7291  C     
9    N        -0.1502   75.1318    7.8873  N     
10   C         0.7073   75.1731    6.9450  C     
11   S         1.1395   76.7224    6.3486  S     
12   N         1.6388   74.2250    6.9561  N     
13   C         2.3436   73.7313    5.8868  C     
14   C         2.9145   73.5689    3.4943  C     
15   C         2.1926   74.1758    4.5437  C     
16   C         3.2640   72.6927    6.1491  C     
17   C         3.9630   72.0701    5.0994  C     
18   C         3.7754   72.4816    3.7592  C     
19   O         4.4259   71.8142    2.7760  O     
20   C         3.5496   71.0027    1.9608  C     
21   H        -5.0586   73.7922    4.9286  H     
22   H        -6.1819   74.6360    2.7635  H     
23   H        -4.1631   77.7756    4.4189  H     
24   H        -3.7986   76.7856    6.8130  H     
25   H        -4.1414   75.0752    7.0415  H     
26   H        -1.9923   74.5398    5.7084  H     
27   H        -1.6176   76.2730    5.8305  H     
28   H        -1.8748   76.0586    8.3608  H     
29   H        -1.9630   74.3021    8.1702  H     
30   H         0.1618   75.1125    8.7652  H     
31   H         1.7693   73.7280    7.7764  H     
32   H         2.7821   73.8873    2.5332  H     
33   H         1.5205   74.9212    4.3139  H     
34   H         3.4094   72.3668    7.1113  H     
35   H         4.5972   71.2824    5.3146  H     
36   H         2.8528   70.4041    2.5592  H     
37   H         4.1645   70.3232    1.3767  H     
38   H         2.9801   71.6378    1.2722  H     
@<TRIPOS>BOND
     1    1    2 2
     2    1    5 1
     3    2    4 1
     4    3    4 2
     5    3    5 1
     6    5    6 1
     7    6    7 1
     8    7    8 1
     9    8    9 1
    10    9   10 am
    11   10   11 2
    12   10   12 am
    13   12   13 1
    14   13   15 1
    15   13   16 2
    16   14   15 2
    17   14   18 1
    18   16   17 1
    19   17   18 2
    20   18   19 1
    21   19   20 1
    22    1   21 1
    23    2   22 1
    24    3   23 1
    25    6   24 1
    26    6   25 1
    27    7   26 1
    28    7   27 1
    29    8   28 1
    30    8   29 1
    31    9   30 1
    32   12   31 1
    33   14   32 1
    34   15   33 1
    35   16   34 1
    36   17   35 1
    37   20   36 1
    38   20   37 1
    39   20   38 1
@<TRIPOS>PROPERTY_DATA
  Total_Score	| 4.8011
  Crash		| -1.5167
  Polar		| 2.0889
  FragIndex	| 1
  FragRMSD	| 1.202

