@<TRIPOS>MOLECULE
BindingDB_7923
 46 48 0 0 0
SMALL
NO_CHARGES


@<TRIPOS>ATOM
1    C         0.9998   77.5588    7.7733  C     
2    N         1.6693   76.4799    7.1976  N     
3    C         1.4870   75.2113    7.4059  C     
4    N         1.9075   74.2761    6.5499  N     
5    C         2.2076   74.3369    5.2218  C     
6    C         2.3419   75.4342    3.0293  C     
7    C         1.9591   75.4489    4.3758  C     
8    C         2.8256   73.1968    4.6514  C     
9    C         2.9990   74.3133    2.4894  C     
10   C         3.2254   73.1794    3.2992  C     
11   O         3.3707   74.3328    1.1752  O     
12   C         4.6745   74.9081    0.9581  C     
13   O         3.9489   72.1159    2.8296  O     
14   C         3.1878   71.1618    2.0767  C     
15   S         1.1298   74.6418    8.9715  S     
16   C        -1.6549   77.0626    7.6032  C     
17   C        -1.3817   75.2328    5.8679  C     
18   C        -3.3452   74.3466    5.9668  C     
19   C        -3.2819   75.3850    6.8828  C     
20   N        -2.0533   75.9329    6.8104  N     
21   N        -2.1583   74.2678    5.3472  N     
22   C        -0.3950   77.8682    7.1376  C     
23   C        -0.6404   79.3836    6.9089  C     
24   C        -0.4086   78.4625    5.7098  C     
25   H         0.8770   77.4131    8.8517  H     
26   H         1.6679   78.4209    7.6640  H     
27   H         2.3344   76.6950    6.5795  H     
28   H         2.0412   73.4012    6.9538  H     
29   H         2.1625   76.2574    2.4503  H     
30   H         1.4926   76.2857    4.7183  H     
31   H         3.0253   72.3814    5.2392  H     
32   H         4.7213   75.9446    1.3093  H     
33   H         4.8710   74.9038   -0.1139  H     
34   H         5.4504   74.3203    1.4547  H     
35   H         2.4241   70.6817    2.6964  H     
36   H         3.8672   70.3891    1.7134  H     
37   H         2.7168   71.6230    1.2044  H     
38   H        -2.5170   77.7329    7.6569  H     
39   H        -1.4744   76.6914    8.6182  H     
40   H        -0.4245   75.4041    5.5558  H     
41   H        -4.1539   73.7448    5.7844  H     
42   H        -4.0466   75.6867    7.4920  H     
43   H        -1.6575   79.7714    6.9378  H     
44   H         0.1710   80.0919    7.0763  H     
45   H         0.5547   78.5764    5.2124  H     
46   H        -1.3000   78.2855    5.1065  H     
@<TRIPOS>BOND
     1    1    2 1
     2    1   22 1
     3    2    3 am
     4    3    4 am
     5    3   15 2
     6    4    5 1
     7    5    7 1
     8    5    8 2
     9    6    7 2
    10    6    9 1
    11    8   10 1
    12    9   10 2
    13    9   11 1
    14   10   13 1
    15   11   12 1
    16   13   14 1
    17   16   20 1
    18   16   22 1
    19   17   20 1
    20   17   21 2
    21   18   19 2
    22   18   21 1
    23   19   20 1
    24   22   23 1
    25   22   24 1
    26   23   24 1
    27    1   25 1
    28    1   26 1
    29    2   27 1
    30    4   28 1
    31    6   29 1
    32    7   30 1
    33    8   31 1
    34   12   32 1
    35   12   33 1
    36   12   34 1
    37   14   35 1
    38   14   36 1
    39   14   37 1
    40   16   38 1
    41   16   39 1
    42   17   40 1
    43   18   41 1
    44   19   42 1
    45   23   43 1
    46   23   44 1
    47   24   45 1
    48   24   46 1
@<TRIPOS>PROPERTY_DATA
  Total_Score	| 3.6507
  Crash		| -1.2887
  Polar		| 0.4301
  FragIndex	| 1
  FragRMSD	| 0.332

