@<TRIPOS>MOLECULE
BindingDB_7911
 38 39 0 0 0
SMALL
NO_CHARGES


@<TRIPOS>ATOM
1    C        -5.2465   74.8090    4.7154  C     
2    C        -5.7012   75.2094    3.4536  C     
3    C        -4.6076   76.8461    4.3300  C     
4    N        -5.2989   76.4705    3.2424  N     
5    N        -4.5682   75.8477    5.2398  N     
6    C        -4.0071   75.9855    6.5592  C     
7    C        -2.7168   75.1799    6.8356  C     
8    C        -1.4562   75.7086    6.0921  C     
9    N        -0.2871   75.2805    6.7373  N     
10   C         0.8517   74.9545    6.1862  C     
11   S         2.0110   74.3934    7.2956  S     
12   N         1.2372   75.5091    5.0519  N     
13   C         2.1075   75.0943    4.0984  C     
14   C         3.5647   73.4419    2.9957  C     
15   C         2.7030   73.7962    4.0630  C     
16   C         2.3929   76.0022    3.0738  C     
17   C         3.8674   74.3947    2.0070  C     
18   C         3.2811   75.6743    2.0394  C     
19   O         4.1036   72.1922    2.9275  O     
20   C         3.2715   71.2610    2.2207  C     
21   H        -5.4420   73.9023    5.1414  H     
22   H        -6.2605   74.6427    2.8123  H     
23   H        -4.1978   77.7697    4.4561  H     
24   H        -3.8021   77.0439    6.7730  H     
25   H        -4.7740   75.6610    7.2704  H     
26   H        -2.5532   75.1800    7.9210  H     
27   H        -2.8910   74.1377    6.5467  H     
28   H        -1.4371   75.3012    5.0766  H     
29   H        -1.4978   76.8029    5.9976  H     
30   H        -0.3817   75.0364    7.6297  H     
31   H         0.7957   76.3523    4.8326  H     
32   H         2.5024   73.1028    4.7757  H     
33   H         1.9769   76.9486    3.0822  H     
34   H         4.5092   74.1543    1.2488  H     
35   H         3.5021   76.3630    1.3118  H     
36   H         2.3384   71.0683    2.7610  H     
37   H         3.8125   70.3115    2.1334  H     
38   H         3.0385   71.6080    1.2084  H     
@<TRIPOS>BOND
     1    1    2 2
     2    1    5 1
     3    2    4 1
     4    3    4 2
     5    3    5 1
     6    5    6 1
     7    6    7 1
     8    7    8 1
     9    8    9 1
    10    9   10 am
    11   10   11 2
    12   10   12 am
    13   12   13 1
    14   13   15 1
    15   13   16 2
    16   14   15 2
    17   14   17 1
    18   14   19 1
    19   16   18 1
    20   17   18 2
    21   19   20 1
    22    1   21 1
    23    2   22 1
    24    3   23 1
    25    6   24 1
    26    6   25 1
    27    7   26 1
    28    7   27 1
    29    8   28 1
    30    8   29 1
    31    9   30 1
    32   12   31 1
    33   15   32 1
    34   16   33 1
    35   17   34 1
    36   18   35 1
    37   20   36 1
    38   20   37 1
    39   20   38 1
@<TRIPOS>PROPERTY_DATA
  Total_Score	| 4.8346
  Crash		| -0.9177
  Polar		| 1.9757
  FragIndex	| 1
  FragRMSD	| 0.850

