@<TRIPOS>MOLECULE
BindingDB_50350923
 80 83 0 0 0
SMALL
NO_CHARGES


@<TRIPOS>ATOM
1    C        31.1481   -7.3528  -11.1292  C     
2    C        31.2864   -8.5082  -11.9414  C     
3    C        31.3232   -9.7772  -11.3187  C     
4    C        31.1457   -9.8817   -9.9293  C     
5    C        30.9553   -8.7283   -9.1397  C     
6    C        30.9377   -7.4513   -9.7372  C     
7    C        28.9281  -10.7468  -14.1712  C     
8    C        28.4924   -9.4391  -13.4232  C     
9    C        26.9423   -9.5153  -13.1986  C     
10   N        26.6281  -10.7178  -12.4321  N     
11   C        26.8914  -11.9547  -13.1622  C     
12   C        28.4096  -12.0369  -13.4792  C     
13   C        26.3179  -10.7279  -11.1111  C     
14   O        25.8919  -11.7658  -10.6109  O     
15   C        29.0450   -8.1198  -14.1017  C     
16   C        28.6195   -6.8303  -13.3003  C     
17   C        29.3060   -5.4957  -13.7392  C     
18   C        28.8987   -4.2572  -12.8893  C     
19   N        27.5025   -4.1607  -12.6259  N     
20   C        30.5639   -8.1823  -14.3350  C     
21   C        31.0425   -8.0101  -15.6647  C     
22   C        32.4045   -8.0739  -16.0007  C     
23   C        33.3533   -8.3123  -15.0039  C     
24   C        32.9450   -8.4642  -13.6746  C     
25   C        31.5660   -8.3842  -13.3205  C     
26   C        26.5728   -9.6267  -10.1594  C     
27   C        25.3495   -9.0323   -9.4376  C     
28   C        25.9669   -8.2477   -8.2453  C     
29   C        27.3840   -8.8193   -8.0170  C     
30   C        27.4875  -10.0232   -8.9732  C     
31   N        25.1208   -8.2712   -7.0376  N     
32   O        27.6831   -9.2241   -6.6815  O     
33   C        30.7724   -6.2170   -8.9334  C     
34   F        33.8850   -8.6723  -12.7796  F     
35   C        26.5548   -3.7506  -13.4978  C     
36   O        26.8629   -3.1950  -14.6992  O     
37   C        25.9202   -2.7475  -15.6781  C     
38   O        25.2698   -3.8525  -13.0898  O     
39   O        28.3348   -8.0393  -15.3530  O     
40   H        31.1807   -6.4160  -11.5622  H     
41   H        31.4750  -10.6233  -11.8759  H     
42   H        31.1419  -10.7977   -9.4889  H     
43   H        30.8066   -8.8258   -8.1357  H     
44   H        28.5480  -10.7256  -15.1962  H     
45   H        30.0149  -10.8182  -14.2175  H     
46   H        28.9077   -9.4884  -12.4210  H     
47   H        26.5529   -8.6129  -12.7232  H     
48   H        26.4250   -9.5537  -14.1620  H     
49   H        26.6134  -12.8581  -12.6131  H     
50   H        26.3093  -11.9695  -14.0882  H     
51   H        28.5908  -12.9036  -14.1235  H     
52   H        28.9594  -12.1927  -12.5437  H     
53   H        27.5459   -6.6826  -13.4124  H     
54   H        28.7854   -6.9762  -12.2349  H     
55   H        30.3939   -5.6153  -13.6194  H     
56   H        29.0982   -5.3115  -14.7967  H     
57   H        29.3981   -4.3358  -11.9155  H     
58   H        29.2770   -3.3525  -13.3775  H     
59   H        27.2006   -4.4894  -11.7663  H     
60   H        30.4084   -7.8282  -16.4439  H     
61   H        32.7088   -7.9486  -16.9658  H     
62   H        34.3425   -8.3582  -15.2427  H     
63   H        27.1077   -8.8050  -10.6559  H     
64   H        24.7928   -8.3658  -10.0990  H     
65   H        24.6888   -9.8283   -9.0775  H     
66   H        26.0607   -7.1964   -8.5302  H     
67   H        28.1328   -8.0774   -8.3099  H     
68   H        27.1290  -10.9305   -8.4770  H     
69   H        28.5158  -10.2050   -9.2977  H     
70   H        24.2065   -7.8535   -7.2373  H     
71   H        25.5855   -7.7046   -6.3154  H     
72   H        24.9971   -9.2407   -6.7079  H     
73   H        27.6750   -8.3982   -6.1574  H     
74   H        31.6772   -5.6086   -8.9837  H     
75   H        30.5684   -6.4452   -7.8871  H     
76   H        29.9332   -5.6381   -9.3229  H     
77   H        25.4810   -3.6062  -16.1829  H     
78   H        26.4346   -2.1438  -16.4236  H     
79   H        25.1236   -2.1494  -15.2239  H     
80   H        27.4249   -7.7204  -15.1800  H     
@<TRIPOS>BOND
     1    1    2 2
     2    1    6 1
     3    2    3 1
     4    2   25 1
     5    3    4 2
     6    4    5 1
     7    5    6 2
     8    6   33 1
     9    7    8 1
    10    7   12 1
    11    8    9 1
    12    8   15 1
    13    9   10 1
    14   10   11 1
    15   10   13 am
    16   11   12 1
    17   13   14 2
    18   26   13 1
    19   15   16 1
    20   15   20 1
    21   15   39 1
    22   16   17 1
    23   17   18 1
    24   18   19 1
    25   19   35 am
    26   20   21 2
    27   20   25 1
    28   21   22 1
    29   22   23 2
    30   23   24 1
    31   24   25 2
    32   24   34 1
    33   26   27 1
    34   26   30 1
    35   27   28 1
    36   28   29 1
    37   28   31 1
    38   29   30 1
    39   29   32 1
    40   35   36 1
    41   35   38 2
    42   36   37 1
    43    1   40 1
    44    3   41 1
    45    4   42 1
    46    5   43 1
    47    7   44 1
    48    7   45 1
    49    8   46 1
    50    9   47 1
    51    9   48 1
    52   11   49 1
    53   11   50 1
    54   12   51 1
    55   12   52 1
    56   16   53 1
    57   16   54 1
    58   17   55 1
    59   17   56 1
    60   18   57 1
    61   18   58 1
    62   19   59 1
    63   21   60 1
    64   22   61 1
    65   23   62 1
    66   26   63 1
    67   27   64 1
    68   27   65 1
    69   28   66 1
    70   29   67 1
    71   30   68 1
    72   30   69 1
    73   31   70 1
    74   31   71 1
    75   31   72 1
    76   32   73 1
    77   33   74 1
    78   33   75 1
    79   33   76 1
    80   37   77 1
    81   37   78 1
    82   37   79 1
    83   39   80 1
@<TRIPOS>PROPERTY_DATA
  Total_Score	| 11.9193
  Crash		| -3.3029
  Polar		| 7.0879
  FragIndex	| 1
  FragRMSD	| 0.540

