@<TRIPOS>MOLECULE
BindingDB_50350925
 76 79 0 0 0
SMALL
NO_CHARGES


@<TRIPOS>ATOM
1    C        28.9312  -10.8973  -13.9600  C     
2    C        28.3676   -9.5483  -13.3989  C     
3    C        26.8247   -9.7165  -13.1805  C     
4    N        26.5340  -10.8643  -12.3194  N     
5    C        26.9590  -12.1359  -12.8915  C     
6    C        28.4930  -12.1221  -13.1170  C     
7    C        25.9752  -10.7805  -11.0872  C     
8    O        25.7743  -11.8119  -10.4551  O     
9    C        28.8327   -8.2869  -14.2410  C     
10   C        28.4330   -6.9332  -13.5476  C     
11   C        29.0773   -5.6482  -14.1295  C     
12   C        28.6129   -4.3326  -13.4389  C     
13   C        27.1687   -3.8931  -13.8071  C     
14   O        26.9823   -2.4990  -13.4918  O     
15   C        25.6079   -2.0924  -13.3934  C     
16   C        30.3263   -8.3122  -14.6159  C     
17   C        30.6872   -8.1975  -15.9923  C     
18   C        32.0125   -8.2638  -16.4435  C     
19   C        33.0427   -8.4518  -15.5295  C     
20   C        32.7580   -8.5363  -14.1583  C     
21   C        31.4140   -8.4270  -13.6872  C     
22   C        25.6660   -9.5231  -10.3752  C     
23   C        24.8930   -9.5950   -9.0231  C     
24   C        25.3871   -8.3658   -8.2382  C     
25   C        26.8944   -8.3317   -8.5442  C     
26   C        26.9448   -8.6872  -10.0503  C     
27   N        25.0428   -8.4029   -6.8211  N     
28   O        27.6327   -9.2964   -7.7755  O     
29   O        28.0287   -8.3505  -15.4336  O     
30   C        31.2359   -8.4669  -12.2752  C     
31   C        31.5228   -9.6606  -11.5689  C     
32   C        31.4488   -9.6908  -10.1593  C     
33   C        31.1151   -8.5257   -9.4442  C     
34   C        30.8746   -7.3253  -10.1336  C     
35   C        30.9550   -7.2893  -11.5399  C     
36   Cl       31.7565  -11.1296   -9.3358  Cl    
37   Cl       34.1018   -8.8121  -13.1523  Cl    
38   H        28.5801  -11.0382  -14.9871  H     
39   H        30.0250  -10.8764  -13.9760  H     
40   H        28.7608   -9.4389  -12.3951  H     
41   H        26.4211   -8.7904  -12.7843  H     
42   H        26.3378   -9.8608  -14.1483  H     
43   H        26.7169  -13.0130  -12.2832  H     
44   H        26.4557  -12.2852  -13.8517  H     
45   H        28.7987  -13.0421  -13.6285  H     
46   H        28.9972  -12.0877  -12.1448  H     
47   H        27.3548   -6.7950  -13.6303  H     
48   H        28.6554   -6.9883  -12.4844  H     
49   H        30.1572   -5.7096  -14.0164  H     
50   H        28.8674   -5.6064  -15.1984  H     
51   H        28.6891   -4.4447  -12.3533  H     
52   H        29.3060   -3.5381  -13.7314  H     
53   H        27.0063   -4.0376  -14.8782  H     
54   H        26.4523   -4.5043  -13.2521  H     
55   H        25.0862   -2.2447  -14.3384  H     
56   H        25.5789   -1.0252  -13.1603  H     
57   H        25.0936   -2.6317  -12.6021  H     
58   H        29.9846   -8.0395  -16.7126  H     
59   H        32.2258   -8.1784  -17.4376  H     
60   H        34.0055   -8.5252  -15.8743  H     
61   H        25.0028   -8.9341  -11.0161  H     
62   H        23.8027   -9.5524   -9.1614  H     
63   H        25.1331  -10.5102   -8.4613  H     
64   H        24.9243   -7.4626   -8.6528  H     
65   H        27.3195   -7.3326   -8.3543  H     
66   H        27.8783   -9.2236  -10.2691  H     
67   H        26.9418   -7.7585  -10.6373  H     
68   H        24.0207   -8.3805   -6.7231  H     
69   H        25.4458   -7.5794   -6.3557  H     
70   H        25.4179   -9.2586   -6.3932  H     
71   H        27.8871   -8.8295   -6.9403  H     
72   H        27.6259   -7.4724  -15.5723  H     
73   H        31.7712  -10.5137  -12.0816  H     
74   H        31.0526   -8.5476   -8.4245  H     
75   H        30.6517   -6.4750   -9.6105  H     
76   H        30.8258   -6.3906  -12.0147  H     
@<TRIPOS>BOND
     1    1    2 1
     2    1    6 1
     3    2    3 1
     4    2    9 1
     5    3    4 1
     6    4    5 1
     7    4    7 am
     8    5    6 1
     9    7    8 2
    10   22    7 1
    11    9   10 1
    12    9   16 1
    13    9   29 1
    14   10   11 1
    15   11   12 1
    16   12   13 1
    17   13   14 1
    18   14   15 1
    19   16   17 2
    20   16   21 1
    21   17   18 1
    22   18   19 2
    23   19   20 1
    24   20   21 2
    25   20   37 1
    26   21   30 1
    27   22   23 1
    28   22   26 1
    29   23   24 1
    30   24   25 1
    31   24   27 1
    32   25   26 1
    33   25   28 1
    34   30   31 2
    35   30   35 1
    36   31   32 1
    37   32   33 2
    38   32   36 1
    39   33   34 1
    40   34   35 2
    41    1   38 1
    42    1   39 1
    43    2   40 1
    44    3   41 1
    45    3   42 1
    46    5   43 1
    47    5   44 1
    48    6   45 1
    49    6   46 1
    50   10   47 1
    51   10   48 1
    52   11   49 1
    53   11   50 1
    54   12   51 1
    55   12   52 1
    56   13   53 1
    57   13   54 1
    58   15   55 1
    59   15   56 1
    60   15   57 1
    61   17   58 1
    62   18   59 1
    63   19   60 1
    64   22   61 1
    65   23   62 1
    66   23   63 1
    67   24   64 1
    68   25   65 1
    69   26   66 1
    70   26   67 1
    71   27   68 1
    72   27   69 1
    73   27   70 1
    74   28   71 1
    75   29   72 1
    76   31   73 1
    77   33   74 1
    78   34   75 1
    79   35   76 1
@<TRIPOS>PROPERTY_DATA
  Total_Score	| 12.1133
  Crash		| -2.7680
  Polar		| 7.5555
  FragIndex	| 1
  FragRMSD	| 0.314

