@<TRIPOS>MOLECULE
BindingDB_50350928
 79 82 0 0 0
SMALL
NO_CHARGES


@<TRIPOS>ATOM
1    C        28.9948  -10.7082  -13.8442  C     
2    C        28.5068   -9.3728  -13.1727  C     
3    C        26.9408   -9.4585  -13.0766  C     
4    N        26.5110  -10.6694  -12.3671  N     
5    C        26.8591  -11.8954  -13.0744  C     
6    C        28.4023  -11.9944  -13.1985  C     
7    C        25.9365  -10.6931  -11.1394  C     
8    O        25.6796  -11.7752  -10.6190  O     
9    C        29.1112   -8.0855  -13.8915  C     
10   C        28.7345   -6.6959  -13.2316  C     
11   C        28.6456   -5.4741  -14.2193  C     
12   C        27.4040   -4.5493  -14.0097  C     
13   C        27.5399   -3.4536  -12.9217  C     
14   O        26.8306   -2.2424  -13.2587  O     
15   C        25.4135   -2.3578  -13.4874  C     
16   C        30.6302   -8.1586  -14.0937  C     
17   C        31.1411   -8.0855  -15.4259  C     
18   C        32.5018   -8.2541  -15.7444  C     
19   C        33.4305   -8.4813  -14.7228  C     
20   C        32.9914   -8.5111  -13.3929  C     
21   C        31.6173   -8.3544  -13.0629  C     
22   C        25.7647   -9.5254  -10.2603  C     
23   C        24.9364   -9.6707   -8.9565  C     
24   C        25.3361   -8.4125   -8.1569  C     
25   C        26.8582   -8.2807   -8.3909  C     
26   C        27.1218   -8.9648   -9.7531  C     
27   N        24.9755   -8.4490   -6.7356  N     
28   O        27.6261   -8.9100   -7.3575  O     
29   O        28.4361   -8.1174  -15.1571  O     
30   C        31.3468   -8.4602  -11.6693  C     
31   C        31.1243   -7.3127  -10.8800  C     
32   C        30.8575   -7.4167   -9.4938  C     
33   C        30.9080   -8.6921   -8.8824  C     
34   C        31.1830   -9.8403   -9.6472  C     
35   C        31.4190   -9.7215  -11.0282  C     
36   C        30.5728   -6.1919   -8.7114  C     
37   F        32.9043   -8.2329  -16.9875  F     
38   H        28.7186  -10.7145  -14.9018  H     
39   H        30.0805  -10.7905  -13.7950  H     
40   H        28.8317   -9.3839  -12.1361  H     
41   H        26.5545   -8.5655  -12.6061  H     
42   H        26.4958   -9.4722  -14.0751  H     
43   H        26.4976  -12.8165  -12.5977  H     
44   H        26.4112  -11.8785  -14.0787  H     
45   H        28.6604  -12.8675  -13.8104  H     
46   H        28.8294  -12.1395  -12.1990  H     
47   H        27.7514   -6.7886  -12.7615  H     
48   H        29.4425   -6.4346  -12.4357  H     
49   H        29.5566   -4.8655  -14.1549  H     
50   H        28.5731   -5.8257  -15.2542  H     
51   H        27.1899   -4.0366  -14.9577  H     
52   H        26.5215   -5.1610  -13.7832  H     
53   H        27.2306   -3.8355  -11.9402  H     
54   H        28.5851   -3.1629  -12.8414  H     
55   H        25.1987   -2.9262  -14.3970  H     
56   H        25.0014   -1.3514  -13.6075  H     
57   H        24.9126   -2.8295  -12.6379  H     
58   H        30.5201   -7.9160  -16.2161  H     
59   H        34.4236   -8.6181  -14.9403  H     
60   H        33.6974   -8.6732  -12.6575  H     
61   H        25.2349   -8.7497  -10.8234  H     
62   H        23.8629   -9.6827   -9.1635  H     
63   H        25.2057  -10.5719   -8.3996  H     
64   H        24.8297   -7.5438   -8.5930  H     
65   H        27.1379   -7.2215   -8.4281  H     
66   H        27.8514   -9.7707   -9.6276  H     
67   H        27.5326   -8.2381  -10.4563  H     
68   H        23.9598   -8.4037   -6.6414  H     
69   H        25.4012   -7.6362   -6.2815  H     
70   H        25.3261   -9.3066   -6.3031  H     
71   H        27.5535   -8.3013   -6.5915  H     
72   H        27.6356   -7.5665  -15.0711  H     
73   H        31.1626   -6.3865  -11.3157  H     
74   H        30.7531   -8.8002   -7.8748  H     
75   H        31.2226  -10.7635   -9.1993  H     
76   H        31.6471  -10.5664  -11.5628  H     
77   H        31.4502   -5.5418   -8.7239  H     
78   H        30.3165   -6.4134   -7.6728  H     
79   H        29.7346   -5.6509   -9.1567  H     
@<TRIPOS>BOND
     1    1    2 1
     2    1    6 1
     3    2    3 1
     4    2    9 1
     5    3    4 1
     6    4    5 1
     7    4    7 am
     8    5    6 1
     9    7    8 2
    10   22    7 1
    11    9   10 1
    12    9   16 1
    13    9   29 1
    14   10   11 1
    15   11   12 1
    16   12   13 1
    17   13   14 1
    18   14   15 1
    19   16   17 2
    20   16   21 1
    21   17   18 1
    22   18   19 2
    23   18   37 1
    24   19   20 1
    25   20   21 2
    26   21   30 1
    27   22   23 1
    28   22   26 1
    29   23   24 1
    30   24   25 1
    31   24   27 1
    32   25   26 1
    33   25   28 1
    34   30   31 2
    35   30   35 1
    36   31   32 1
    37   32   33 2
    38   32   36 1
    39   33   34 1
    40   34   35 2
    41    1   38 1
    42    1   39 1
    43    2   40 1
    44    3   41 1
    45    3   42 1
    46    5   43 1
    47    5   44 1
    48    6   45 1
    49    6   46 1
    50   10   47 1
    51   10   48 1
    52   11   49 1
    53   11   50 1
    54   12   51 1
    55   12   52 1
    56   13   53 1
    57   13   54 1
    58   15   55 1
    59   15   56 1
    60   15   57 1
    61   17   58 1
    62   19   59 1
    63   20   60 1
    64   22   61 1
    65   23   62 1
    66   23   63 1
    67   24   64 1
    68   25   65 1
    69   26   66 1
    70   26   67 1
    71   27   68 1
    72   27   69 1
    73   27   70 1
    74   28   71 1
    75   29   72 1
    76   31   73 1
    77   33   74 1
    78   34   75 1
    79   35   76 1
    80   36   77 1
    81   36   78 1
    82   36   79 1
@<TRIPOS>PROPERTY_DATA
  Total_Score	| 15.3339
  Crash		| -2.0106
  Polar		| 7.7740
  FragIndex	| 1
  FragRMSD	| 0.445

