@<TRIPOS>MOLECULE
BindingDB_50350929
 79 82 0 0 0
SMALL
NO_CHARGES


@<TRIPOS>ATOM
1    C        28.9249  -10.8859  -13.8649  C     
2    C        28.3865   -9.5448  -13.2516  C     
3    C        26.8241   -9.6714  -13.1287  C     
4    N        26.4656  -10.8429  -12.3362  N     
5    C        26.8559  -12.0971  -12.9636  C     
6    C        28.4011  -12.1407  -13.1158  C     
7    C        25.9081  -10.7937  -11.1013  C     
8    O        25.5983  -11.8420  -10.5453  O     
9    C        28.9301   -8.2605  -14.0066  C     
10   C        28.5049   -6.8992  -13.3392  C     
11   C        28.6297   -5.6468  -14.2578  C     
12   C        27.5041   -4.5870  -14.0629  C     
13   C        27.7183   -3.5238  -12.9551  C     
14   O        27.0335   -2.2823  -13.2423  O     
15   C        25.6110   -2.3531  -13.4340  C     
16   C        30.4506   -8.2738  -14.2205  C     
17   C        30.9494   -8.1120  -15.5512  C     
18   C        32.3198   -8.1565  -15.8631  C     
19   C        33.2533   -8.3795  -14.8495  C     
20   C        32.8199   -8.4884  -13.5219  C     
21   C        31.4410   -8.4174  -13.1851  C     
22   C        25.7029   -9.5658  -10.3069  C     
23   C        24.9281   -9.6753   -8.9674  C     
24   C        25.3095   -8.3858   -8.2193  C     
25   C        26.8195   -8.2338   -8.4959  C     
26   C        27.0330   -8.8687   -9.8929  C     
27   N        24.9565   -8.4305   -6.7954  N     
28   O        27.6139   -8.9000   -7.5111  O     
29   O        28.2437   -8.3306  -15.2759  O     
30   C        31.1900   -8.5036  -11.7875  C     
31   C        31.0369   -7.3325  -11.0105  C     
32   C        30.8918   -7.3960   -9.6035  C     
33   C        30.9449   -8.6592   -8.9703  C     
34   C        31.1484   -9.8272   -9.7233  C     
35   C        31.2963   -9.7483  -11.1194  C     
36   C        30.7300   -6.1464   -8.8265  C     
37   F        34.5234   -8.4891  -15.1345  F     
38   H        28.6236  -10.9630  -14.9145  H     
39   H        30.0166  -10.9153  -13.8348  H     
40   H        28.7351   -9.4941  -12.2256  H     
41   H        26.4080   -8.7707  -12.7075  H     
42   H        26.3741   -9.7533  -14.1222  H     
43   H        26.5516  -12.9905  -12.4127  H     
44   H        26.3903  -12.1760  -13.9510  H     
45   H        28.6915  -13.0448  -13.6564  H     
46   H        28.8554  -12.1834  -12.1184  H     
47   H        27.4647   -6.9698  -13.0297  H     
48   H        29.0893   -6.7222  -12.4305  H     
49   H        29.6143   -5.1874  -14.1123  H     
50   H        28.5815   -5.9649  -15.3020  H     
51   H        27.3949   -4.0478  -15.0054  H     
52   H        26.5530   -5.0990  -13.8907  H     
53   H        27.4330   -3.9204  -11.9712  H     
54   H        28.7793   -3.2676  -12.9114  H     
55   H        25.3595   -2.8804  -14.3564  H     
56   H        25.2295   -1.3319  -13.5161  H     
57   H        25.1250   -2.8428  -12.5875  H     
58   H        30.3234   -7.9599  -16.3417  H     
59   H        32.6386   -8.0414  -16.8324  H     
60   H        33.5302   -8.6264  -12.7914  H     
61   H        25.1049   -8.8783  -10.9096  H     
62   H        23.8473   -9.7391   -9.1293  H     
63   H        25.2532  -10.5460   -8.3871  H     
64   H        24.7741   -7.5388   -8.6646  H     
65   H        27.1046   -7.1774   -8.5041  H     
66   H        27.8602   -9.5843   -9.8542  H     
67   H        27.2943   -8.0876  -10.6094  H     
68   H        23.9392   -8.3934   -6.7115  H     
69   H        25.3751   -7.6228   -6.3303  H     
70   H        25.3083   -9.2931   -6.3739  H     
71   H        27.5707   -8.3172   -6.7239  H     
72   H        27.4657   -7.7418  -15.2356  H     
73   H        31.0637   -6.4186  -11.4691  H     
74   H        30.8470   -8.7332   -7.9546  H     
75   H        31.2038  -10.7341   -9.2516  H     
76   H        31.4804  -10.6081  -11.6437  H     
77   H        31.5990   -5.5033   -8.9844  H     
78   H        30.6344   -6.3358   -7.7572  H     
79   H        29.8345   -5.6178   -9.1586  H     
@<TRIPOS>BOND
     1    1    2 1
     2    1    6 1
     3    2    3 1
     4    2    9 1
     5    3    4 1
     6    4    5 1
     7    4    7 am
     8    5    6 1
     9    7    8 2
    10   22    7 1
    11    9   10 1
    12    9   16 1
    13    9   29 1
    14   10   11 1
    15   11   12 1
    16   12   13 1
    17   13   14 1
    18   14   15 1
    19   16   17 2
    20   16   21 1
    21   17   18 1
    22   18   19 2
    23   19   20 1
    24   19   37 1
    25   20   21 2
    26   21   30 1
    27   22   23 1
    28   22   26 1
    29   23   24 1
    30   24   25 1
    31   24   27 1
    32   25   26 1
    33   25   28 1
    34   30   31 2
    35   30   35 1
    36   31   32 1
    37   32   33 2
    38   32   36 1
    39   33   34 1
    40   34   35 2
    41    1   38 1
    42    1   39 1
    43    2   40 1
    44    3   41 1
    45    3   42 1
    46    5   43 1
    47    5   44 1
    48    6   45 1
    49    6   46 1
    50   10   47 1
    51   10   48 1
    52   11   49 1
    53   11   50 1
    54   12   51 1
    55   12   52 1
    56   13   53 1
    57   13   54 1
    58   15   55 1
    59   15   56 1
    60   15   57 1
    61   17   58 1
    62   18   59 1
    63   20   60 1
    64   22   61 1
    65   23   62 1
    66   23   63 1
    67   24   64 1
    68   25   65 1
    69   26   66 1
    70   26   67 1
    71   27   68 1
    72   27   69 1
    73   27   70 1
    74   28   71 1
    75   29   72 1
    76   31   73 1
    77   33   74 1
    78   34   75 1
    79   35   76 1
    80   36   77 1
    81   36   78 1
    82   36   79 1
@<TRIPOS>PROPERTY_DATA
  Total_Score	| 14.9918
  Crash		| -2.1103
  Polar		| 8.2514
  FragIndex	| 1
  FragRMSD	| 0.404

