@<TRIPOS>MOLECULE
BindingDB_50350932
 79 82 0 0 0
SMALL
NO_CHARGES


@<TRIPOS>ATOM
1    C        28.7777  -10.8042  -14.2098  C     
2    C        28.4467   -9.4697  -13.4510  C     
3    C        26.9062   -9.4537  -13.1558  C     
4    N        26.5167  -10.6413  -12.3989  N     
5    C        26.7074  -11.8758  -13.1564  C     
6    C        28.2105  -12.0563  -13.4872  C     
7    C        26.1148  -10.6501  -11.1067  C     
8    O        25.8490  -11.7262  -10.5869  O     
9    C        29.0298   -8.1955  -14.1939  C     
10   C        28.6337   -6.8477  -13.4837  C     
11   C        29.2243   -5.5478  -14.0977  C     
12   C        28.7417   -4.2258  -13.4339  C     
13   C        27.2495   -3.8963  -13.6883  C     
14   O        27.0033   -2.4914  -13.4919  O     
15   C        25.6098   -2.1381  -13.4279  C     
16   C        30.5459   -8.2599  -14.4288  C     
17   C        31.0365   -8.1066  -15.7593  C     
18   C        32.4049   -8.1283  -16.0745  C     
19   C        33.3503   -8.3007  -15.0596  C     
20   C        32.9192   -8.4402  -13.7352  C     
21   C        31.5410   -8.4230  -13.4023  C     
22   C        26.1325   -9.5110  -10.1747  C     
23   C        25.0887   -9.5203   -9.0249  C     
24   C        25.6023   -8.4130   -8.0801  C     
25   C        27.1525   -8.5191   -8.1560  C     
26   C        27.4743   -9.3810   -9.4058  C     
27   N        25.0437   -8.4920   -6.7256  N     
28   O        27.7319   -9.0989   -6.9816  O     
29   O        28.3383   -8.1740  -15.4545  O     
30   C        31.2775   -8.6096  -12.0201  C     
31   C        31.3554   -9.9065  -11.4592  C     
32   C        31.1821  -10.1004  -10.0772  C     
33   C        30.9391   -8.9986   -9.2268  C     
34   C        30.8836   -7.7012   -9.7819  C     
35   C        31.0508   -7.5108  -11.1660  C     
36   C        30.7763   -9.2259   -7.7761  C     
37   H        28.3571  -10.7687  -15.2225  H     
38   H        29.8582  -10.9317  -14.3071  H     
39   H        28.9127   -9.5329  -12.4689  H     
40   H        26.6502   -8.5378  -12.6522  H     
41   H        26.3445   -9.4255  -14.0992  H     
42   H        26.3698  -12.7782  -12.6384  H     
43   H        26.1308  -11.8364  -14.0915  H     
44   H        28.3471  -12.9378  -14.1247  H     
45   H        28.7659  -12.2217  -12.5588  H     
46   H        27.5506   -6.7389  -13.5257  H     
47   H        28.8969   -6.8881  -12.4305  H     
48   H        30.3169   -5.5743  -14.0099  H     
49   H        28.9731   -5.5154  -15.1589  H     
50   H        28.9163   -4.2767  -12.3581  H     
51   H        29.3516   -3.4081  -13.8288  H     
52   H        26.9915   -4.1591  -14.7156  H     
53   H        26.6299   -4.4856  -13.0095  H     
54   H        25.1087   -2.3657  -14.3705  H     
55   H        25.5313   -1.0657  -13.2468  H     
56   H        25.1034   -2.6595  -12.6128  H     
57   H        30.4043   -7.9578  -16.5468  H     
58   H        32.7136   -8.0147  -17.0426  H     
59   H        34.3464   -8.3145  -15.2829  H     
60   H        33.6346   -8.5636  -13.0117  H     
61   H        25.9439   -8.5797  -10.7101  H     
62   H        24.0779   -9.3003   -9.3905  H     
63   H        25.0806  -10.4787   -8.4961  H     
64   H        25.2921   -7.4470   -8.4953  H     
65   H        27.5825   -7.5168   -8.2847  H     
66   H        27.8297  -10.3647   -9.0939  H     
67   H        28.2535   -8.9147  -10.0152  H     
68   H        24.0237   -8.4651   -6.7763  H     
69   H        25.3838   -7.6829   -6.2033  H     
70   H        25.3464   -9.3562   -6.2720  H     
71   H        27.7348   -8.3665   -6.3269  H     
72   H        27.5277   -7.6338  -15.3575  H     
73   H        31.5426  -10.7205  -12.0526  H     
74   H        31.2490  -11.0479   -9.6953  H     
75   H        30.7296   -6.8882   -9.1813  H     
76   H        31.0238   -6.5575  -11.5439  H     
77   H        29.9043   -9.8589   -7.6209  H     
78   H        30.6375   -8.2961   -7.2198  H     
79   H        31.6609   -9.7291   -7.3813  H     
@<TRIPOS>BOND
     1    1    2 1
     2    1    6 1
     3    2    3 1
     4    2    9 1
     5    3    4 1
     6    4    5 1
     7    4    7 am
     8    5    6 1
     9    7    8 2
    10   22    7 1
    11    9   10 1
    12    9   16 1
    13    9   29 1
    14   10   11 1
    15   11   12 1
    16   12   13 1
    17   13   14 1
    18   14   15 1
    19   16   17 2
    20   16   21 1
    21   17   18 1
    22   18   19 2
    23   19   20 1
    24   20   21 2
    25   21   30 1
    26   22   23 1
    27   22   26 1
    28   23   24 1
    29   24   25 1
    30   24   27 1
    31   25   26 1
    32   25   28 1
    33   30   31 2
    34   30   35 1
    35   31   32 1
    36   32   33 2
    37   33   34 1
    38   33   36 1
    39   34   35 2
    40    1   37 1
    41    1   38 1
    42    2   39 1
    43    3   40 1
    44    3   41 1
    45    5   42 1
    46    5   43 1
    47    6   44 1
    48    6   45 1
    49   10   46 1
    50   10   47 1
    51   11   48 1
    52   11   49 1
    53   12   50 1
    54   12   51 1
    55   13   52 1
    56   13   53 1
    57   15   54 1
    58   15   55 1
    59   15   56 1
    60   17   57 1
    61   18   58 1
    62   19   59 1
    63   20   60 1
    64   22   61 1
    65   23   62 1
    66   23   63 1
    67   24   64 1
    68   25   65 1
    69   26   66 1
    70   26   67 1
    71   27   68 1
    72   27   69 1
    73   27   70 1
    74   28   71 1
    75   29   72 1
    76   31   73 1
    77   32   74 1
    78   34   75 1
    79   35   76 1
    80   36   77 1
    81   36   78 1
    82   36   79 1
@<TRIPOS>PROPERTY_DATA
  Total_Score	| 13.8164
  Crash		| -1.8860
  Polar		| 8.1419
  FragIndex	| 1
  FragRMSD	| 0.223

