@<TRIPOS>MOLECULE
BindingDB_50350922
 80 83 0 0 0
SMALL
NO_CHARGES


@<TRIPOS>ATOM
1    C        31.0764   -7.6164  -11.3258  C     
2    C        31.2094   -8.7604  -12.1448  C     
3    C        31.2173  -10.0310  -11.5313  C     
4    C        31.0462  -10.1626  -10.1408  C     
5    C        30.8828   -9.0153   -9.3399  C     
6    C        30.8922   -7.7287   -9.9277  C     
7    C        28.8681  -11.0388  -13.9240  C     
8    C        28.3685   -9.6441  -13.3914  C     
9    C        26.8128   -9.6880  -13.2080  C     
10   N        26.4224  -10.8300  -12.3869  N     
11   C        26.7307  -12.1093  -13.0140  C     
12   C        28.2661  -12.2479  -13.1596  C     
13   C        25.9263  -10.7544  -11.1264  C     
14   O        25.6202  -11.7927  -10.5454  O     
15   C        28.9303   -8.3957  -14.2025  C     
16   C        28.6297   -7.0125  -13.4979  C     
17   C        29.3711   -5.7574  -14.0666  C     
18   C        29.5453   -4.5799  -13.0612  C     
19   N        28.6303   -3.4846  -13.0040  N     
20   C        30.4245   -8.5259  -14.5231  C     
21   C        30.8463   -8.4485  -15.8830  C     
22   C        32.1938   -8.4930  -16.2660  C     
23   C        33.1884   -8.6350  -15.3001  C     
24   C        32.8342   -8.7310  -13.9463  C     
25   C        31.4668   -8.6515  -13.5418  C     
26   C        25.7846   -9.5181  -10.3347  C     
27   C        24.9877   -9.6047   -9.0017  C     
28   C        25.4020   -8.3380   -8.2391  C     
29   C        26.9199   -8.2128   -8.5203  C     
30   C        27.1464   -8.9235   -9.8740  C     
31   N        25.0527   -8.3919   -6.8119  N     
32   O        27.7219   -8.8186   -7.5003  O     
33   C        30.7058   -6.4976   -9.1198  C     
34   Cl       34.1246   -8.9854  -12.8692  Cl    
35   C        27.3076   -3.4457  -13.2505  C     
36   O        26.7500   -2.2139  -13.2341  O     
37   C        25.3800   -1.9160  -13.4698  C     
38   O        26.5365   -4.5310  -13.5116  O     
39   O        28.1679   -8.3572  -15.4260  O     
40   H        31.0921   -6.6896  -11.7572  H     
41   H        31.2964  -10.8671  -12.1166  H     
42   H        31.0262  -11.0948   -9.7177  H     
43   H        30.7576   -9.1266   -8.3307  H     
44   H        28.6033  -11.1248  -14.9816  H     
45   H        29.9623  -11.1354  -13.8359  H     
46   H        28.7342   -9.5512  -12.3755  H     
47   H        26.4683   -8.7442  -12.7974  H     
48   H        26.3266   -9.7673  -14.1846  H     
49   H        26.3605  -12.9787  -12.4743  H     
50   H        26.2652  -12.1623  -14.0010  H     
51   H        28.5037  -13.1718  -13.6927  H     
52   H        28.7162  -12.3065  -12.1646  H     
53   H        27.5622   -6.7974  -13.5430  H     
54   H        28.8554   -7.0979  -12.4407  H     
55   H        30.3857   -6.0334  -14.3590  H     
56   H        28.8749   -5.4139  -14.9752  H     
57   H        29.5876   -4.9897  -12.0542  H     
58   H        30.5232   -4.1249  -13.2469  H     
59   H        29.0381   -2.6254  -12.8036  H     
60   H        30.1779   -8.3534  -16.6445  H     
61   H        32.4485   -8.4335  -17.2554  H     
62   H        34.1653   -8.6967  -15.5953  H     
63   H        25.2502   -8.7870  -10.9504  H     
64   H        23.9089   -9.6376   -9.1742  H     
65   H        25.2830  -10.4850   -8.4221  H     
66   H        24.8807   -7.4729   -8.6631  H     
67   H        27.1957   -7.1576   -8.5844  H     
68   H        27.8848   -9.7184   -9.7602  H     
69   H        27.5169   -8.2085  -10.6069  H     
70   H        24.0354   -8.3472   -6.7176  H     
71   H        25.4835   -7.6011   -6.3336  H     
72   H        25.4038   -9.2567   -6.3996  H     
73   H        27.7150   -8.1933   -6.7525  H     
74   H        31.5768   -5.8402   -9.2266  H     
75   H        30.5734   -6.7134   -8.0588  H     
76   H        29.8230   -5.9536   -9.4670  H     
77   H        25.0804   -2.2546  -14.4609  H     
78   H        25.2421   -0.8412  -13.4143  H     
79   H        24.7472   -2.3971  -12.7217  H     
80   H        27.6521   -7.5339  -15.4501  H     
@<TRIPOS>BOND
     1    1    2 2
     2    1    6 1
     3    2    3 1
     4    2   25 1
     5    3    4 2
     6    4    5 1
     7    5    6 2
     8    6   33 1
     9    7    8 1
    10    7   12 1
    11    8    9 1
    12    8   15 1
    13    9   10 1
    14   10   11 1
    15   10   13 am
    16   11   12 1
    17   13   14 2
    18   26   13 1
    19   15   16 1
    20   15   20 1
    21   15   39 1
    22   16   17 1
    23   17   18 1
    24   18   19 1
    25   19   35 am
    26   20   21 2
    27   20   25 1
    28   21   22 1
    29   22   23 2
    30   23   24 1
    31   24   25 2
    32   24   34 1
    33   26   27 1
    34   26   30 1
    35   27   28 1
    36   28   29 1
    37   28   31 1
    38   29   30 1
    39   29   32 1
    40   35   36 1
    41   35   38 2
    42   36   37 1
    43    1   40 1
    44    3   41 1
    45    4   42 1
    46    5   43 1
    47    7   44 1
    48    7   45 1
    49    8   46 1
    50    9   47 1
    51    9   48 1
    52   11   49 1
    53   11   50 1
    54   12   51 1
    55   12   52 1
    56   16   53 1
    57   16   54 1
    58   17   55 1
    59   17   56 1
    60   18   57 1
    61   18   58 1
    62   19   59 1
    63   21   60 1
    64   22   61 1
    65   23   62 1
    66   26   63 1
    67   27   64 1
    68   27   65 1
    69   28   66 1
    70   29   67 1
    71   30   68 1
    72   30   69 1
    73   31   70 1
    74   31   71 1
    75   31   72 1
    76   32   73 1
    77   33   74 1
    78   33   75 1
    79   33   76 1
    80   37   77 1
    81   37   78 1
    82   37   79 1
    83   39   80 1
@<TRIPOS>PROPERTY_DATA
  Total_Score	| 14.1966
  Crash		| -2.2628
  Polar		| 8.2037
  FragIndex	| 1
  FragRMSD	| 0.316

