@<TRIPOS>MOLECULE
BindingDB_50350934
 79 82 0 0 0
SMALL
NO_CHARGES


@<TRIPOS>ATOM
1    C        28.8981  -10.7659  -14.0574  C     
2    C        28.4730   -9.4268  -13.3476  C     
3    C        26.9258   -9.5106  -13.0820  C     
4    N        26.5750  -10.6958  -12.3110  N     
5    C        26.9102  -11.9506  -12.9870  C     
6    C        28.4376  -12.0091  -13.2586  C     
7    C        26.0383  -10.6724  -11.0691  C     
8    O        25.7669  -11.7354  -10.5164  O     
9    C        28.9974   -8.1526  -14.1054  C     
10   C        28.4842   -6.7977  -13.4573  C     
11   C        29.1158   -5.5013  -14.0368  C     
12   C        28.5914   -4.1860  -13.3752  C     
13   C        27.1268   -3.8610  -13.7502  C     
14   O        26.8758   -2.4664  -13.4953  O     
15   C        25.4808   -2.1089  -13.4851  C     
16   C        30.5173   -8.1617  -14.2928  C     
17   C        31.0238   -8.1095  -15.6339  C     
18   C        32.3990   -8.1879  -15.9378  C     
19   C        33.3264   -8.2885  -14.8944  C     
20   C        32.8784   -8.2850  -13.5773  C     
21   C        31.5060   -8.2356  -13.2327  C     
22   C        25.7934   -9.4615  -10.2580  C     
23   C        24.9893   -9.6110   -8.9350  C     
24   C        25.3550   -8.3442   -8.1416  C     
25   C        26.8708   -8.1893   -8.3888  C     
26   C        27.1039   -8.7502   -9.8116  C     
27   N        24.9936   -8.4340   -6.7203  N     
28   O        27.6356   -8.9238   -7.4267  O     
29   O        28.3275   -8.1977  -15.3890  O     
30   C        31.2509   -8.2076  -11.8251  C     
31   C        31.5125   -9.3284  -10.9499  C     
32   C        31.1935   -9.2291   -9.5720  C     
33   C        30.7381   -8.0216   -9.0222  C     
34   C        30.5987   -6.8992   -9.8523  C     
35   C        30.8626   -6.9759  -11.2356  C     
36   C        32.1591  -10.5734  -11.4411  C     
37   H        28.4553  -10.7983  -15.0527  H     
38   H        29.9810  -10.8139  -14.1789  H     
39   H        28.9252   -9.4350  -12.3504  H     
40   H        26.6022   -8.5909  -12.6069  H     
41   H        26.3943   -9.5432  -14.0389  H     
42   H        26.6433  -12.8464  -12.4264  H     
43   H        26.3621  -12.0104  -13.9357  H     
44   H        28.6737  -12.9198  -13.8276  H     
45   H        28.9783  -12.0480  -12.3075  H     
46   H        27.4050   -6.7120  -13.6403  H     
47   H        28.6350   -6.8150  -12.3720  H     
48   H        30.1942   -5.5227  -13.8592  H     
49   H        28.9270   -5.4636  -15.1105  H     
50   H        28.6911   -4.2545  -12.2966  H     
51   H        29.2201   -3.3694  -13.7216  H     
52   H        26.9640   -4.0503  -14.8195  H     
53   H        26.4417   -4.4891  -13.1757  H     
54   H        24.9956   -2.3998  -14.4203  H     
55   H        25.4072   -1.0295  -13.3741  H     
56   H        24.9783   -2.5874  -12.6448  H     
57   H        30.4106   -8.0168  -16.4463  H     
58   H        32.7217   -8.1646  -16.9093  H     
59   H        34.3239   -8.3628  -15.1117  H     
60   H        33.6005   -8.3227  -12.8412  H     
61   H        25.1976   -8.7699  -10.8652  H     
62   H        23.9120   -9.6642   -9.1201  H     
63   H        25.3016  -10.4957   -8.3722  H     
64   H        24.8260   -7.4842   -8.5642  H     
65   H        27.1672   -7.1391   -8.3299  H     
66   H        27.9559   -9.4372   -9.8141  H     
67   H        27.3400   -7.9253  -10.4918  H     
68   H        23.9759   -8.4146   -6.6331  H     
69   H        25.4014   -7.6323   -6.2343  H     
70   H        25.3596   -9.2991   -6.3181  H     
71   H        27.6911   -8.3262   -6.6516  H     
72   H        27.4965   -7.6951  -15.3257  H     
73   H        31.3362  -10.0358   -8.9437  H     
74   H        30.5356   -7.9623   -8.0143  H     
75   H        30.2886   -6.0082   -9.4400  H     
76   H        30.8163   -6.1208  -11.8176  H     
77   H        31.5574  -11.0324  -12.2196  H     
78   H        32.3162  -11.3096  -10.6361  H     
79   H        33.1625  -10.3412  -11.8297  H     
@<TRIPOS>BOND
     1    1    2 1
     2    1    6 1
     3    2    3 1
     4    2    9 1
     5    3    4 1
     6    4    5 1
     7    4    7 am
     8    5    6 1
     9    7    8 2
    10   22    7 1
    11    9   10 1
    12    9   16 1
    13    9   29 1
    14   10   11 1
    15   11   12 1
    16   12   13 1
    17   13   14 1
    18   14   15 1
    19   16   17 2
    20   16   21 1
    21   17   18 1
    22   18   19 2
    23   19   20 1
    24   20   21 2
    25   21   30 1
    26   22   23 1
    27   22   26 1
    28   23   24 1
    29   24   25 1
    30   24   27 1
    31   25   26 1
    32   25   28 1
    33   30   31 2
    34   30   35 1
    35   31   32 1
    36   31   36 1
    37   32   33 2
    38   33   34 1
    39   34   35 2
    40    1   37 1
    41    1   38 1
    42    2   39 1
    43    3   40 1
    44    3   41 1
    45    5   42 1
    46    5   43 1
    47    6   44 1
    48    6   45 1
    49   10   46 1
    50   10   47 1
    51   11   48 1
    52   11   49 1
    53   12   50 1
    54   12   51 1
    55   13   52 1
    56   13   53 1
    57   15   54 1
    58   15   55 1
    59   15   56 1
    60   17   57 1
    61   18   58 1
    62   19   59 1
    63   20   60 1
    64   22   61 1
    65   23   62 1
    66   23   63 1
    67   24   64 1
    68   25   65 1
    69   26   66 1
    70   26   67 1
    71   27   68 1
    72   27   69 1
    73   27   70 1
    74   28   71 1
    75   29   72 1
    76   32   73 1
    77   33   74 1
    78   34   75 1
    79   35   76 1
    80   36   77 1
    81   36   78 1
    82   36   79 1
@<TRIPOS>PROPERTY_DATA
  Total_Score	| 13.9624
  Crash		| -2.2767
  Polar		| 8.0739
  FragIndex	| 1
  FragRMSD	| 0.448

