@<TRIPOS>MOLECULE
BindingDB_50350931
 76 79 0 0 0
SMALL
NO_CHARGES


@<TRIPOS>ATOM
1    C        28.3246  -11.5003  -14.5483  C     
2    C        28.7758  -10.4369  -13.4877  C     
3    C        28.1417  -10.8465  -12.1007  C     
4    N        26.6896  -10.9956  -12.1357  N     
5    C        26.2823  -12.0458  -13.0884  C     
6    C        26.7971  -11.7659  -14.5200  C     
7    C        25.7767  -10.3656  -11.3510  C     
8    O        24.5970  -10.6252  -11.5488  O     
9    C        28.7314   -8.9266  -14.0218  C     
10   C        28.3257   -7.8692  -12.9433  C     
11   C        28.7877   -6.3778  -13.0488  C     
12   C        27.8090   -5.3652  -13.7058  C     
13   C        27.9439   -3.9469  -13.0759  C     
14   O        27.1485   -2.9195  -13.6976  O     
15   C        25.7281   -3.1314  -13.6869  C     
16   C        30.0595   -8.5577  -14.6980  C     
17   C        30.0708   -8.3277  -16.1029  C     
18   C        31.2441   -7.9870  -16.8013  C     
19   C        32.4581   -7.8707  -16.1156  C     
20   C        32.5004   -8.1154  -14.7382  C     
21   C        31.3287   -8.4585  -14.0171  C     
22   C        25.9157   -9.2494  -10.3860  C     
23   C        24.9156   -9.2283   -9.1886  C     
24   C        25.4611   -8.1686   -8.2068  C     
25   C        26.9971   -8.1683   -8.3914  C     
26   C        27.2486   -9.0575   -9.6302  C     
27   N        25.0451   -8.3782   -6.8142  N     
28   O        27.7076   -8.6782   -7.2524  O     
29   O        27.6199   -8.8524  -14.9365  O     
30   C        31.5358   -8.6917  -12.6240  C     
31   C        31.3314   -7.6661  -11.6737  C     
32   C        31.5091   -7.9083  -10.2964  C     
33   C        31.9786   -9.1603   -9.8619  C     
34   C        32.2970  -10.1507  -10.8077  C     
35   C        32.0867   -9.9151  -12.1805  C     
36   Cl       31.1308   -6.6931   -9.1857  Cl    
37   H        28.6267  -11.1984  -15.5527  H     
38   H        28.8250  -12.4503  -14.3300  H     
39   H        29.8243  -10.6668  -13.3474  H     
40   H        28.5493  -11.8379  -11.8479  H     
41   H        28.5492  -10.2320  -11.3140  H     
42   H        26.6898  -13.0026  -12.7522  H     
43   H        25.2045  -12.1903  -13.1684  H     
44   H        26.2466  -10.9212  -14.9423  H     
45   H        26.5794  -12.6383  -15.1548  H     
46   H        27.2433   -7.8645  -12.8541  H     
47   H        28.6898   -8.2341  -11.9923  H     
48   H        28.9614   -6.0626  -12.0113  H     
49   H        29.7462   -6.3130  -13.5754  H     
50   H        28.0270   -5.3031  -14.7805  H     
51   H        26.7788   -5.7187  -13.5843  H     
52   H        27.7212   -4.0027  -12.0058  H     
53   H        28.9827   -3.6298  -13.1785  H     
54   H        25.4654   -4.0011  -14.2887  H     
55   H        25.2468   -2.2542  -14.1216  H     
56   H        25.3487   -3.2617  -12.6700  H     
57   H        29.2109   -8.4067  -16.6571  H     
58   H        31.2128   -7.8415  -17.8123  H     
59   H        33.3158   -7.6384  -16.6221  H     
60   H        33.4079   -8.0361  -14.2623  H     
61   H        25.7185   -8.3307  -10.9505  H     
62   H        23.9068   -8.9534   -9.5192  H     
63   H        24.8698  -10.2161   -8.7089  H     
64   H        25.0621   -7.1930   -8.5072  H     
65   H        27.3378   -7.1489   -8.5813  H     
66   H        27.6238  -10.0366   -9.3076  H     
67   H        27.9637   -8.5687  -10.2931  H     
68   H        24.0261   -8.3480   -6.7592  H     
69   H        25.4396   -7.6133   -6.2691  H     
70   H        25.3870   -9.2778   -6.4660  H     
71   H        28.6540   -8.5052   -7.4370  H     
72   H        27.5083   -7.9195  -15.2176  H     
73   H        31.0039   -6.7453  -11.9768  H     
74   H        32.1010   -9.3458   -8.8634  H     
75   H        32.6637  -11.0488  -10.4869  H     
76   H        32.3184  -10.6516  -12.8532  H     
@<TRIPOS>BOND
     1    1    2 1
     2    1    6 1
     3    2    3 1
     4    2    9 1
     5    3    4 1
     6    4    5 1
     7    4    7 am
     8    5    6 1
     9    7    8 2
    10   22    7 1
    11    9   10 1
    12    9   16 1
    13    9   29 1
    14   10   11 1
    15   11   12 1
    16   12   13 1
    17   13   14 1
    18   14   15 1
    19   16   17 2
    20   16   21 1
    21   17   18 1
    22   18   19 2
    23   19   20 1
    24   20   21 2
    25   21   30 1
    26   22   23 1
    27   22   26 1
    28   23   24 1
    29   24   25 1
    30   24   27 1
    31   25   26 1
    32   25   28 1
    33   30   31 2
    34   30   35 1
    35   31   32 1
    36   32   33 2
    37   32   36 1
    38   33   34 1
    39   34   35 2
    40    1   37 1
    41    1   38 1
    42    2   39 1
    43    3   40 1
    44    3   41 1
    45    5   42 1
    46    5   43 1
    47    6   44 1
    48    6   45 1
    49   10   46 1
    50   10   47 1
    51   11   48 1
    52   11   49 1
    53   12   50 1
    54   12   51 1
    55   13   52 1
    56   13   53 1
    57   15   54 1
    58   15   55 1
    59   15   56 1
    60   17   57 1
    61   18   58 1
    62   19   59 1
    63   20   60 1
    64   22   61 1
    65   23   62 1
    66   23   63 1
    67   24   64 1
    68   25   65 1
    69   26   66 1
    70   26   67 1
    71   27   68 1
    72   27   69 1
    73   27   70 1
    74   28   71 1
    75   29   72 1
    76   31   73 1
    77   33   74 1
    78   34   75 1
    79   35   76 1
@<TRIPOS>PROPERTY_DATA
  Total_Score	| 10.0713
  Crash		| -2.8259
  Polar		| 5.7775
  FragIndex	| 1
  FragRMSD	| 1.063

