@<TRIPOS>MOLECULE
BindingDB_50350933
 79 82 0 0 0
SMALL
NO_CHARGES


@<TRIPOS>ATOM
1    C        28.3036  -11.2885  -14.6975  C     
2    C        28.9655  -10.3355  -13.6291  C     
3    C        28.3461  -10.5920  -12.1984  C     
4    N        26.9376  -10.9612  -12.1679  N     
5    C        26.5859  -12.0808  -13.0550  C     
6    C        27.6802  -12.5486  -14.0600  C     
7    C        25.9917  -10.4475  -11.3438  C     
8    O        24.8686  -10.9379  -11.4189  O     
9    C        29.1919   -8.8167  -14.1054  C     
10   C        28.5608   -7.6612  -13.2293  C     
11   C        28.1183   -6.3825  -14.0109  C     
12   C        28.4003   -5.0220  -13.2968  C     
13   C        27.2756   -3.9897  -13.5626  C     
14   O        27.6432   -2.6416  -13.2110  O     
15   C        26.8774   -2.0206  -12.1754  C     
16   C        30.6833   -8.5521  -14.3505  C     
17   C        31.1478   -8.3863  -15.6904  C     
18   C        32.5075   -8.2370  -16.0101  C     
19   C        33.4644   -8.2562  -14.9915  C     
20   C        33.0571   -8.3905  -13.6563  C     
21   C        31.6873   -8.5281  -13.3173  C     
22   C        26.0154   -9.2667  -10.4494  C     
23   C        25.0926   -9.3754   -9.1984  C     
24   C        25.5059   -8.2146   -8.2790  C     
25   C        27.0365   -8.1375   -8.4364  C     
26   C        27.3431   -8.8216   -9.7894  C     
27   N        25.0641   -8.3701   -6.8872  N     
28   O        27.7287   -8.8213   -7.3919  O     
29   O        28.4617   -8.6387  -15.3359  O     
30   C        31.4449   -8.6463  -11.9189  C     
31   C        31.2063   -7.4899  -11.1346  C     
32   C        31.0329   -7.5742   -9.7348  C     
33   C        31.1334   -8.8355   -9.1086  C     
34   C        31.4476   -9.9824   -9.8654  C     
35   C        31.6249   -9.8825  -11.2573  C     
36   C        30.7576   -6.3401   -8.9623  C     
37   H        27.4844  -10.7960  -15.2241  H     
38   H        29.0429  -11.5808  -15.4498  H     
39   H        29.9606  -10.7846  -13.5445  H     
40   H        28.8581  -11.4599  -11.7653  H     
41   H        28.6377   -9.7844  -11.5438  H     
42   H        26.2894  -12.9469  -12.4610  H     
43   H        25.7186  -11.7917  -13.6558  H     
44   H        27.2392  -13.1873  -14.8336  H     
45   H        28.4536  -13.1305  -13.5466  H     
46   H        27.6729   -8.0451  -12.7205  H     
47   H        29.2356   -7.3629  -12.4470  H     
48   H        28.6000   -6.3404  -14.9947  H     
49   H        27.0384   -6.4766  -14.1879  H     
50   H        28.4902   -5.1651  -12.2212  H     
51   H        29.3545   -4.6342  -13.6593  H     
52   H        27.0738   -3.9586  -14.6300  H     
53   H        26.3489   -4.3123  -13.0790  H     
54   H        25.8310   -1.9301  -12.4746  H     
55   H        27.2730   -1.0159  -12.0105  H     
56   H        26.9520   -2.5813  -11.2414  H     
57   H        30.5038   -8.3904  -16.4832  H     
58   H        32.8053   -8.1463  -16.9862  H     
59   H        34.4572   -8.1922  -15.2246  H     
60   H        33.7858   -8.4010  -12.9342  H     
61   H        25.6506   -8.4211  -11.0480  H     
62   H        24.0289   -9.2887   -9.4549  H     
63   H        25.2575  -10.3336   -8.6918  H     
64   H        25.0576   -7.2915   -8.6630  H     
65   H        27.3635   -7.0944   -8.4416  H     
66   H        27.9662   -9.6988   -9.5988  H     
67   H        27.8749   -8.1410  -10.4672  H     
68   H        24.0467   -8.2850   -6.8242  H     
69   H        25.4997   -7.6297   -6.3365  H     
70   H        25.3557   -9.2817   -6.5255  H     
71   H        27.7150   -8.2014   -6.6369  H     
72   H        27.5119   -8.7126  -15.1085  H     
73   H        31.1444   -6.5732  -11.5956  H     
74   H        31.0021   -8.9318   -8.0967  H     
75   H        31.5496  -10.8890   -9.4010  H     
76   H        31.8806  -10.7233  -11.7843  H     
77   H        31.6086   -5.6608   -9.0502  H     
78   H        30.5907   -6.5473   -7.9055  H     
79   H        29.8686   -5.8404   -9.3538  H     
@<TRIPOS>BOND
     1    1    2 1
     2    1    6 1
     3    2    3 1
     4    2    9 1
     5    3    4 1
     6    4    5 1
     7    4    7 am
     8    5    6 1
     9    7    8 2
    10   22    7 1
    11    9   10 1
    12    9   16 1
    13    9   29 1
    14   10   11 1
    15   11   12 1
    16   12   13 1
    17   13   14 1
    18   14   15 1
    19   16   17 2
    20   16   21 1
    21   17   18 1
    22   18   19 2
    23   19   20 1
    24   20   21 2
    25   21   30 1
    26   22   23 1
    27   22   26 1
    28   23   24 1
    29   24   25 1
    30   24   27 1
    31   25   26 1
    32   25   28 1
    33   30   31 2
    34   30   35 1
    35   31   32 1
    36   32   33 2
    37   32   36 1
    38   33   34 1
    39   34   35 2
    40    1   37 1
    41    1   38 1
    42    2   39 1
    43    3   40 1
    44    3   41 1
    45    5   42 1
    46    5   43 1
    47    6   44 1
    48    6   45 1
    49   10   46 1
    50   10   47 1
    51   11   48 1
    52   11   49 1
    53   12   50 1
    54   12   51 1
    55   13   52 1
    56   13   53 1
    57   15   54 1
    58   15   55 1
    59   15   56 1
    60   17   57 1
    61   18   58 1
    62   19   59 1
    63   20   60 1
    64   22   61 1
    65   23   62 1
    66   23   63 1
    67   24   64 1
    68   25   65 1
    69   26   66 1
    70   26   67 1
    71   27   68 1
    72   27   69 1
    73   27   70 1
    74   28   71 1
    75   29   72 1
    76   31   73 1
    77   33   74 1
    78   34   75 1
    79   35   76 1
    80   36   77 1
    81   36   78 1
    82   36   79 1
@<TRIPOS>PROPERTY_DATA
  Total_Score	| 11.4830
  Crash		| -2.5411
  Polar		| 6.3484
  FragIndex	| 1
  FragRMSD	| 0.648

