@<TRIPOS>MOLECULE
BindingDB_50350927
 79 82 0 0 0
SMALL
NO_CHARGES


@<TRIPOS>ATOM
1    C        28.8419  -10.9224  -14.1066  C     
2    C        28.3913   -9.5272  -13.5328  C     
3    C        26.8460   -9.6107  -13.2488  C     
4    N        26.5084  -10.7681  -12.4185  N     
5    C        26.8478  -12.0480  -13.0325  C     
6    C        28.3747  -12.1211  -13.2498  C     
7    C        25.9895  -10.7085  -11.1692  C     
8    O        25.7022  -11.7510  -10.5907  O     
9    C        28.9387   -8.3430  -14.4450  C     
10   C        28.4234   -6.8689  -14.1737  C     
11   C        29.1766   -5.9166  -13.2016  C     
12   C        28.8153   -4.4059  -13.3248  C     
13   C        27.3317   -4.0806  -13.6077  C     
14   O        27.1271   -2.6526  -13.5383  O     
15   C        25.7415   -2.2739  -13.4942  C     
16   C        30.4577   -8.3417  -14.6727  C     
17   C        30.8982   -8.0414  -15.9949  C     
18   C        32.2456   -8.1091  -16.3811  C     
19   C        33.2237   -8.4269  -15.4391  C     
20   C        32.8619   -8.6356  -14.0989  C     
21   C        31.4963   -8.5642  -13.6882  C     
22   C        25.8006   -9.4844  -10.3731  C     
23   C        24.9963   -9.5814   -9.0480  C     
24   C        25.4093   -8.3139   -8.2739  C     
25   C        26.9315   -8.2168   -8.5225  C     
26   C        27.1423   -8.8374   -9.9307  C     
27   N        25.0376   -8.3640   -6.8562  N     
28   O        27.6888   -8.9357   -7.5432  O     
29   O        28.2927   -8.6728  -15.6944  O     
30   C        31.2722   -8.7178  -12.2786  C     
31   C        31.1607   -7.5941  -11.4251  C     
32   C        30.9866   -7.7297  -10.0246  C     
33   C        30.9697   -9.0330   -9.4692  C     
34   C        31.1659  -10.1571  -10.2890  C     
35   C        31.3494   -9.9966  -11.6734  C     
36   C        30.8543   -6.5192   -9.1798  C     
37   Cl       34.1600   -8.9676  -13.0540  Cl    
38   H        28.4353  -11.0557  -15.1110  H     
39   H        29.9190  -10.9776  -14.2174  H     
40   H        28.8083   -9.3985  -12.5391  H     
41   H        26.5102   -8.6833  -12.8053  H     
42   H        26.3041   -9.6905  -14.1912  H     
43   H        26.5621  -12.9268  -12.4467  H     
44   H        26.3305  -12.1499  -13.9946  H     
45   H        28.6376  -13.0600  -13.7434  H     
46   H        28.8811  -12.0953  -12.2810  H     
47   H        28.3747   -6.3365  -15.1442  H     
48   H        27.3858   -6.9056  -13.8252  H     
49   H        29.0070   -6.2666  -12.1769  H     
50   H        30.2336   -5.9660  -13.4278  H     
51   H        29.0975   -3.8969  -12.3944  H     
52   H        29.4298   -3.9705  -14.1200  H     
53   H        27.0642   -4.4446  -14.6082  H     
54   H        26.7172   -4.5773  -12.8547  H     
55   H        25.2431   -2.5149  -14.4365  H     
56   H        25.6768   -1.1964  -13.3377  H     
57   H        25.2202   -2.7690  -12.6748  H     
58   H        30.2433   -7.7706  -16.7277  H     
59   H        32.5280   -7.9396  -17.3513  H     
60   H        34.2036   -8.4872  -15.7357  H     
61   H        25.2353   -8.7785  -10.9851  H     
62   H        23.9186   -9.6024   -9.2260  H     
63   H        25.2722  -10.4647   -8.4618  H     
64   H        24.9059   -7.4493   -8.7200  H     
65   H        27.2569   -7.1714   -8.4988  H     
66   H        27.9512   -9.5740   -9.8942  H     
67   H        27.4454   -8.0549  -10.6291  H     
68   H        24.0220   -8.2916   -6.7759  H     
69   H        25.4775   -7.5820   -6.3687  H     
70   H        25.3546   -9.2400   -6.4396  H     
71   H        27.7948   -8.3120   -6.7944  H     
72   H        27.5243   -8.0745  -15.7909  H     
73   H        31.2196   -6.6550  -11.8212  H     
74   H        30.8391   -9.1707   -8.4603  H     
75   H        31.2025  -11.0859   -9.8689  H     
76   H        31.5419  -10.8230  -12.2463  H     
77   H        31.7544   -5.9060   -9.2547  H     
78   H        30.6952   -6.7587   -8.1258  H     
79   H        30.0020   -5.9296   -9.5178  H     
@<TRIPOS>BOND
     1    1    2 1
     2    1    6 1
     3    2    3 1
     4    2    9 1
     5    3    4 1
     6    4    5 1
     7    4    7 am
     8    5    6 1
     9    7    8 2
    10   22    7 1
    11    9   10 1
    12    9   16 1
    13    9   29 1
    14   10   11 1
    15   11   12 1
    16   12   13 1
    17   13   14 1
    18   14   15 1
    19   16   17 2
    20   16   21 1
    21   17   18 1
    22   18   19 2
    23   19   20 1
    24   20   21 2
    25   20   37 1
    26   21   30 1
    27   22   23 1
    28   22   26 1
    29   23   24 1
    30   24   25 1
    31   24   27 1
    32   25   26 1
    33   25   28 1
    34   30   31 2
    35   30   35 1
    36   31   32 1
    37   32   33 2
    38   32   36 1
    39   33   34 1
    40   34   35 2
    41    1   38 1
    42    1   39 1
    43    2   40 1
    44    3   41 1
    45    3   42 1
    46    5   43 1
    47    5   44 1
    48    6   45 1
    49    6   46 1
    50   10   47 1
    51   10   48 1
    52   11   49 1
    53   11   50 1
    54   12   51 1
    55   12   52 1
    56   13   53 1
    57   13   54 1
    58   15   55 1
    59   15   56 1
    60   15   57 1
    61   17   58 1
    62   18   59 1
    63   19   60 1
    64   22   61 1
    65   23   62 1
    66   23   63 1
    67   24   64 1
    68   25   65 1
    69   26   66 1
    70   26   67 1
    71   27   68 1
    72   27   69 1
    73   27   70 1
    74   28   71 1
    75   29   72 1
    76   31   73 1
    77   33   74 1
    78   34   75 1
    79   35   76 1
    80   36   77 1
    81   36   78 1
    82   36   79 1
@<TRIPOS>PROPERTY_DATA
  Total_Score	| 13.9361
  Crash		| -2.5910
  Polar		| 8.5774
  FragIndex	| 1
  FragRMSD	| 0.329

