@<TRIPOS>MOLECULE
BindingDB_50350926
 76 79 0 0 0
SMALL
NO_CHARGES


@<TRIPOS>ATOM
1    C        28.9697  -10.8712  -14.0075  C     
2    C        28.5047   -9.5283  -13.3494  C     
3    C        26.9484   -9.5929  -13.1605  C     
4    N        26.5688  -10.7678  -12.3798  N     
5    C        26.8991  -12.0248  -13.0414  C     
6    C        28.4315  -12.1166  -13.2548  C     
7    C        26.0256  -10.7276  -11.1383  C     
8    O        25.7150  -11.7797  -10.5899  O     
9    C        29.0722   -8.2442  -14.0910  C     
10   C        28.6344   -6.9020  -13.3938  C     
11   C        29.1688   -5.5777  -14.0126  C     
12   C        28.6307   -4.2986  -13.3174  C     
13   C        27.1816   -3.9162  -13.7092  C     
14   O        26.9834   -2.5093  -13.4792  O     
15   C        25.6031   -2.1116  -13.3996  C     
16   C        30.5942   -8.2868  -14.2989  C     
17   C        31.1042   -8.0390  -15.6095  C     
18   C        32.4736   -8.0573  -15.9095  C     
19   C        33.4030   -8.3256  -14.9002  C     
20   C        32.9609   -8.5612  -13.5896  C     
21   C        31.5741   -8.5304  -13.2691  C     
22   C        25.8340   -9.5123  -10.3240  C     
23   C        25.0333   -9.6318   -8.9958  C     
24   C        25.4070   -8.3508   -8.2314  C     
25   C        26.9276   -8.2178   -8.4779  C     
26   C        27.1747   -8.8724   -9.8591  C     
27   N        25.0459   -8.4046   -6.8075  N     
28   O        27.6864   -8.8929   -7.4668  O     
29   O        28.3889   -8.2411  -15.3620  O     
30   C        31.2651   -8.7623  -11.9013  C     
31   C        30.9771   -7.6835  -11.0323  C     
32   C        30.7218   -7.9088   -9.6652  C     
33   C        30.7917   -9.2162   -9.1479  C     
34   C        31.1281  -10.2925   -9.9909  C     
35   C        31.3747  -10.0649  -11.3572  C     
36   Cl       30.3608   -6.6106   -8.6424  Cl    
37   F        33.8878   -8.8025  -12.6923  F     
38   H        28.6242  -10.9089  -15.0447  H     
39   H        30.0600  -10.9336  -14.0193  H     
40   H        28.8935   -9.5191  -12.3352  H     
41   H        26.5976   -8.6712  -12.7111  H     
42   H        26.4597   -9.6402  -14.1381  H     
43   H        26.5877  -12.9164  -12.4924  H     
44   H        26.3913  -12.0737  -14.0097  H     
45   H        28.6712  -13.0195  -13.8232  H     
46   H        28.9231  -12.1913  -12.2796  H     
47   H        27.5460   -6.8344  -13.4214  H     
48   H        28.9056   -6.9268  -12.3422  H     
49   H        30.2568   -5.5521  -13.9292  H     
50   H        28.9154   -5.5498  -15.0749  H     
51   H        28.6936   -4.4305  -12.2324  H     
52   H        29.2876   -3.4649  -13.5845  H     
53   H        27.0190   -4.1545  -14.7650  H     
54   H        26.4701   -4.4838  -13.1038  H     
55   H        25.1067   -2.2679  -14.3580  H     
56   H        25.5643   -1.0495  -13.1680  H     
57   H        25.0656   -2.6572  -12.6224  H     
58   H        30.4837   -7.8245  -16.3919  H     
59   H        32.7960   -7.8746  -16.8644  H     
60   H        34.4003   -8.3477  -15.1276  H     
61   H        25.2750   -8.7895  -10.9268  H     
62   H        23.9575   -9.6983   -9.1753  H     
63   H        25.3499  -10.5052   -8.4168  H     
64   H        24.8883   -7.4965   -8.6792  H     
65   H        27.2307   -7.1649   -8.4808  H     
66   H        27.9551   -9.6312   -9.7737  H     
67   H        27.5123   -8.1162  -10.5684  H     
68   H        24.0304   -8.3692   -6.7158  H     
69   H        25.4664   -7.6021   -6.3352  H     
70   H        25.3983   -9.2668   -6.3871  H     
71   H        27.7453   -8.2456   -6.7348  H     
72   H        27.6663   -7.5818  -15.3248  H     
73   H        30.9562   -6.7238  -11.3930  H     
74   H        30.6133   -9.3911   -8.1549  H     
75   H        31.1884  -11.2399   -9.6106  H     
76   H        31.6281  -10.8587  -11.9537  H     
@<TRIPOS>BOND
     1    1    2 1
     2    1    6 1
     3    2    3 1
     4    2    9 1
     5    3    4 1
     6    4    5 1
     7    4    7 am
     8    5    6 1
     9    7    8 2
    10   22    7 1
    11    9   10 1
    12    9   16 1
    13    9   29 1
    14   10   11 1
    15   11   12 1
    16   12   13 1
    17   13   14 1
    18   14   15 1
    19   16   17 2
    20   16   21 1
    21   17   18 1
    22   18   19 2
    23   19   20 1
    24   20   21 2
    25   20   37 1
    26   21   30 1
    27   22   23 1
    28   22   26 1
    29   23   24 1
    30   24   25 1
    31   24   27 1
    32   25   26 1
    33   25   28 1
    34   30   31 2
    35   30   35 1
    36   31   32 1
    37   32   33 2
    38   32   36 1
    39   33   34 1
    40   34   35 2
    41    1   38 1
    42    1   39 1
    43    2   40 1
    44    3   41 1
    45    3   42 1
    46    5   43 1
    47    5   44 1
    48    6   45 1
    49    6   46 1
    50   10   47 1
    51   10   48 1
    52   11   49 1
    53   11   50 1
    54   12   51 1
    55   12   52 1
    56   13   53 1
    57   13   54 1
    58   15   55 1
    59   15   56 1
    60   15   57 1
    61   17   58 1
    62   18   59 1
    63   19   60 1
    64   22   61 1
    65   23   62 1
    66   23   63 1
    67   24   64 1
    68   25   65 1
    69   26   66 1
    70   26   67 1
    71   27   68 1
    72   27   69 1
    73   27   70 1
    74   28   71 1
    75   29   72 1
    76   31   73 1
    77   33   74 1
    78   34   75 1
    79   35   76 1
@<TRIPOS>PROPERTY_DATA
  Total_Score	| 14.4239
  Crash		| -1.5334
  Polar		| 8.4562
  FragIndex	| 1
  FragRMSD	| 0.121

