@<TRIPOS>MOLECULE
BindingDB_50350935
 76 79 0 0 0
SMALL
NO_CHARGES


@<TRIPOS>ATOM
1    C        29.0703  -10.9355  -14.2495  C     
2    C        28.5142   -9.5557  -13.7226  C     
3    C        26.9577   -9.7752  -13.6045  C     
4    N        26.6584  -10.8758  -12.6876  N     
5    C        27.0864  -12.1706  -13.2083  C     
6    C        28.6229  -12.1519  -13.3961  C     
7    C        26.1439  -10.7520  -11.4385  C     
8    O        25.8801  -11.7752  -10.8145  O     
9    C        29.0534   -8.3244  -14.5840  C     
10   C        28.7589   -6.8092  -14.2002  C     
11   C        27.4808   -6.3543  -13.4467  C     
12   C        27.0666   -4.8760  -13.7268  C     
13   C        27.4706   -3.8470  -12.6339  C     
14   O        28.3566   -2.8136  -13.1073  O     
15   C        29.7198   -3.1989  -13.3535  C     
16   C        30.5728   -8.3755  -14.8051  C     
17   C        31.0849   -8.1941  -16.1231  C     
18   C        32.4614   -8.1777  -16.4012  C     
19   C        33.3851   -8.3292  -15.3622  C     
20   C        32.9298   -8.4871  -14.0479  C     
21   C        31.5441   -8.5114  -13.7476  C     
22   C        26.0801   -9.5164  -10.6338  C     
23   C        25.1297   -9.5040   -9.4005  C     
24   C        25.6134   -8.3124   -8.5494  C     
25   C        27.1519   -8.3090   -8.7220  C     
26   C        27.4426   -9.1556   -9.9875  C     
27   N        25.1767   -8.3729   -7.1449  N     
28   O        27.8420   -8.8591   -7.5946  O     
29   O        28.3573   -8.5161  -15.8301  O     
30   C        31.2480   -8.7298  -12.3698  C     
31   C        31.3484  -10.0359  -11.8268  C     
32   C        31.1057  -10.2717  -10.4605  C     
33   C        30.7975   -9.1985   -9.6066  C     
34   C        30.7497   -7.8892  -10.1168  C     
35   C        30.9902   -7.6561  -11.4843  C     
36   H        28.7326  -11.0916  -15.2784  H     
37   H        30.1587  -10.9479  -14.2740  H     
38   H        28.8692   -9.4168  -12.7071  H     
39   H        26.4208   -8.8762  -13.3636  H     
40   H        26.5591  -10.0290  -14.5930  H     
41   H        26.8449  -13.0240  -12.5701  H     
42   H        26.5989  -12.3664  -14.1679  H     
43   H        28.9452  -13.0779  -13.8805  H     
44   H        29.1022  -12.1002  -12.4146  H     
45   H        29.5707   -6.4043  -13.6021  H     
46   H        28.8018   -6.2311  -15.1299  H     
47   H        26.6323   -6.9555  -13.7331  H     
48   H        27.6286   -6.5067  -12.3780  H     
49   H        27.4542   -4.5560  -14.6972  H     
50   H        25.9753   -4.8505  -13.8237  H     
51   H        26.5639   -3.3233  -12.3149  H     
52   H        27.8709   -4.3387  -11.7409  H     
53   H        30.1677   -3.6854  -12.4858  H     
54   H        30.2932   -2.2972  -13.5683  H     
55   H        29.7828   -3.8621  -14.2150  H     
56   H        30.4600   -8.0523  -16.9181  H     
57   H        32.7912   -8.0467  -17.3606  H     
58   H        34.3874   -8.3219  -15.5603  H     
59   H        33.6320   -8.5894  -13.3068  H     
60   H        25.7559   -8.6901  -11.2686  H     
61   H        24.0858   -9.3828   -9.7019  H     
62   H        25.2213  -10.4231   -8.8132  H     
63   H        25.2005   -7.3948   -8.9782  H     
64   H        27.5029   -7.2811   -8.8630  H     
65   H        27.9867  -10.0666   -9.7129  H     
66   H        28.0644   -8.5901  -10.6782  H     
67   H        24.1605   -8.2906   -7.0972  H     
68   H        25.6047   -7.6007   -6.6239  H     
69   H        25.4659   -9.2617   -6.7304  H     
70   H        27.7618   -8.1847   -6.8871  H     
71   H        27.5340   -7.9850  -15.7762  H     
72   H        31.6046  -10.8284  -12.4211  H     
73   H        31.1644  -11.2222  -10.0870  H     
74   H        30.6274   -9.3678   -8.6127  H     
75   H        30.5581   -7.1042   -9.4897  H     
76   H        31.0192   -6.6902  -11.8127  H     
@<TRIPOS>BOND
     1    1    2 1
     2    1    6 1
     3    2    3 1
     4    2    9 1
     5    3    4 1
     6    4    5 1
     7    4    7 am
     8    5    6 1
     9    7    8 2
    10   22    7 1
    11    9   10 1
    12    9   16 1
    13    9   29 1
    14   10   11 1
    15   11   12 1
    16   12   13 1
    17   13   14 1
    18   14   15 1
    19   16   17 2
    20   16   21 1
    21   17   18 1
    22   18   19 2
    23   19   20 1
    24   20   21 2
    25   21   30 1
    26   22   23 1
    27   22   26 1
    28   23   24 1
    29   24   25 1
    30   24   27 1
    31   25   26 1
    32   25   28 1
    33   30   31 2
    34   30   35 1
    35   31   32 1
    36   32   33 2
    37   33   34 1
    38   34   35 2
    39    1   36 1
    40    1   37 1
    41    2   38 1
    42    3   39 1
    43    3   40 1
    44    5   41 1
    45    5   42 1
    46    6   43 1
    47    6   44 1
    48   10   45 1
    49   10   46 1
    50   11   47 1
    51   11   48 1
    52   12   49 1
    53   12   50 1
    54   13   51 1
    55   13   52 1
    56   15   53 1
    57   15   54 1
    58   15   55 1
    59   17   56 1
    60   18   57 1
    61   19   58 1
    62   20   59 1
    63   22   60 1
    64   23   61 1
    65   23   62 1
    66   24   63 1
    67   25   64 1
    68   26   65 1
    69   26   66 1
    70   27   67 1
    71   27   68 1
    72   27   69 1
    73   28   70 1
    74   29   71 1
    75   31   72 1
    76   32   73 1
    77   33   74 1
    78   34   75 1
    79   35   76 1
@<TRIPOS>PROPERTY_DATA
  Total_Score	| 13.0860
  Crash		| -2.8087
  Polar		| 8.7407
  FragIndex	| 1
  FragRMSD	| 0.707

