@<TRIPOS>MOLECULE
BindingDB_50350930
 79 82 0 0 0
SMALL
NO_CHARGES


@<TRIPOS>ATOM
1    C        28.8168  -10.8861  -14.1454  C     
2    C        28.5235   -9.5570  -13.3712  C     
3    C        26.9806   -9.5377  -13.0775  C     
4    N        26.5611  -10.7269  -12.3374  N     
5    C        26.7828  -11.9718  -13.0650  C     
6    C        28.2860  -12.1346  -13.3968  C     
7    C        26.0350  -10.7118  -11.0895  C     
8    O        25.7127  -11.7715  -10.5621  O     
9    C        29.1201   -8.2736  -14.0942  C     
10   C        28.7109   -6.9269  -13.3833  C     
11   C        29.2171   -5.6121  -14.0419  C     
12   C        28.6987   -4.3063  -13.3746  C     
13   C        27.2454   -3.9198  -13.7527  C     
14   O        27.0260   -2.5188  -13.4934  O     
15   C        25.6398   -2.1444  -13.4055  C     
16   C        30.6409   -8.3363  -14.3441  C     
17   C        31.1068   -8.1704  -15.6846  C     
18   C        32.4658   -8.1703  -16.0335  C     
19   C        33.4371   -8.3300  -15.0441  C     
20   C        33.0458   -8.4863  -13.7079  C     
21   C        31.6679   -8.4906  -13.3425  C     
22   C        25.8438   -9.5100  -10.2591  C     
23   C        25.0473   -9.6539   -8.9352  C     
24   C        25.4167   -8.3753   -8.1634  C     
25   C        26.9322   -8.2247   -8.4073  C     
26   C        27.1793   -8.8515   -9.8037  C     
27   N        25.0217   -8.4197   -6.7522  N     
28   O        27.7046   -8.8974   -7.4099  O     
29   O        28.4183   -8.2404  -15.3541  O     
30   C        31.4264   -8.6833  -11.9566  C     
31   C        31.1571   -7.5904  -11.1026  C     
32   C        30.9421   -7.7766   -9.7186  C     
33   C        31.0516   -9.0797   -9.1810  C     
34   C        31.3822  -10.1685  -10.0085  C     
35   C        31.5837   -9.9704  -11.3863  C     
36   C        30.6069   -6.6098   -8.8689  C     
37   F        34.0119   -8.6239  -12.8293  F     
38   H        28.3546  -10.8502  -15.1371  H     
39   H        29.8820  -11.0155  -14.2921  H     
40   H        28.9964   -9.6338  -12.3930  H     
41   H        26.7320   -8.6216  -12.5594  H     
42   H        26.4261   -9.4961  -14.0200  H     
43   H        26.4656  -12.8695  -12.5299  H     
44   H        26.2063  -11.9544  -13.9950  H     
45   H        28.4323  -13.0238  -14.0167  H     
46   H        28.8489  -12.2705  -12.4680  H     
47   H        27.6233   -6.8562  -13.3710  H     
48   H        29.0195   -6.9436  -12.3414  H     
49   H        30.3090   -5.5920  -14.0004  H     
50   H        28.9265   -5.6101  -15.0952  H     
51   H        28.7728   -4.3974  -12.2866  H     
52   H        29.3633   -3.4930  -13.6778  H     
53   H        27.0762   -4.1131  -14.8149  H     
54   H        26.5514   -4.5319  -13.1685  H     
55   H        25.1180   -2.3503  -14.3419  H     
56   H        25.5827   -1.0740  -13.2077  H     
57   H        25.1403   -2.6719  -12.5894  H     
58   H        30.4602   -8.0256  -16.4598  H     
59   H        32.7489   -8.0465  -17.0088  H     
60   H        34.4281   -8.3264  -15.3011  H     
61   H        25.2657   -8.7893  -10.8458  H     
62   H        23.9697   -9.7132   -9.1161  H     
63   H        25.3639  -10.5341   -8.3653  H     
64   H        24.8962   -7.5247   -8.6177  H     
65   H        27.2170   -7.1676   -8.4008  H     
66   H        27.9867   -9.5902   -9.7510  H     
67   H        27.4833   -8.0718  -10.5062  H     
68   H        24.0028   -8.3897   -6.6932  H     
69   H        25.4189   -7.6037   -6.2847  H     
70   H        25.3667   -9.2723   -6.3093  H     
71   H        27.7634   -8.2564   -6.6689  H     
72   H        27.6803   -7.6003  -15.2934  H     
73   H        31.1162   -6.6437  -11.4924  H     
74   H        30.9002   -9.2463   -8.1833  H     
75   H        31.4708  -11.1070   -9.6098  H     
76   H        31.8176  -10.7744  -11.9759  H     
77   H        31.4209   -5.8814   -8.9048  H     
78   H        30.4439   -6.8946   -7.8266  H     
79   H        29.6941   -6.1369   -9.2387  H     
@<TRIPOS>BOND
     1    1    2 1
     2    1    6 1
     3    2    3 1
     4    2    9 1
     5    3    4 1
     6    4    5 1
     7    4    7 am
     8    5    6 1
     9    7    8 2
    10   22    7 1
    11    9   10 1
    12    9   16 1
    13    9   29 1
    14   10   11 1
    15   11   12 1
    16   12   13 1
    17   13   14 1
    18   14   15 1
    19   16   17 2
    20   16   21 1
    21   17   18 1
    22   18   19 2
    23   19   20 1
    24   20   21 2
    25   20   37 1
    26   21   30 1
    27   22   23 1
    28   22   26 1
    29   23   24 1
    30   24   25 1
    31   24   27 1
    32   25   26 1
    33   25   28 1
    34   30   31 2
    35   30   35 1
    36   31   32 1
    37   32   33 2
    38   32   36 1
    39   33   34 1
    40   34   35 2
    41    1   38 1
    42    1   39 1
    43    2   40 1
    44    3   41 1
    45    3   42 1
    46    5   43 1
    47    5   44 1
    48    6   45 1
    49    6   46 1
    50   10   47 1
    51   10   48 1
    52   11   49 1
    53   11   50 1
    54   12   51 1
    55   12   52 1
    56   13   53 1
    57   13   54 1
    58   15   55 1
    59   15   56 1
    60   15   57 1
    61   17   58 1
    62   18   59 1
    63   19   60 1
    64   22   61 1
    65   23   62 1
    66   23   63 1
    67   24   64 1
    68   25   65 1
    69   26   66 1
    70   26   67 1
    71   27   68 1
    72   27   69 1
    73   27   70 1
    74   28   71 1
    75   29   72 1
    76   31   73 1
    77   33   74 1
    78   34   75 1
    79   35   76 1
    80   36   77 1
    81   36   78 1
    82   36   79 1
@<TRIPOS>PROPERTY_DATA
  Total_Score	| 15.0698
  Crash		| -1.6230
  Polar		| 8.3449
  FragIndex	| 1
  FragRMSD	| 0.159

