@<TRIPOS>MOLECULE
BindingDB_50134329
 47 50 0 0 0
SMALL
NO_CHARGES


@<TRIPOS>ATOM
1    S         0.8422   10.7459   10.5259  S     
2    C        -4.5450    3.5993   14.0275  C     
3    C        -3.1203    3.3740   13.4260  C     
4    C        -2.4888    4.6774   12.8348  C     
5    C        -2.3228    5.7236   14.0046  C     
6    C        -1.6911    6.9835   13.4894  C     
7    C        -0.6531    6.8776   12.5131  C     
8    C        -4.8885    2.2191   14.3418  C     
9    C        -4.3629    4.5786   15.2339  C     
10   C        -3.6702    5.9059   14.7986  C     
11   C        -3.2829    2.0824   12.5983  C     
12   C        -1.1382    4.3929   12.1031  C     
13   O         0.1267   10.5111   12.0506  O     
14   C        -2.0311    8.2801   13.9667  C     
15   O         0.2982    9.5913    9.4123  O     
16   O         0.4917   12.2970    9.9493  O     
17   C        -0.0417    8.0509   12.0098  C     
18   C        -0.1019    5.5497   12.1495  C     
19   N         2.5260   10.6502   10.6244  N     
20   C        -0.4030    9.3320   12.4988  C     
21   C        -4.2359    1.2490   13.4868  C     
22   O        -5.8230    1.9118   15.0716  O     
23   C        -1.3870    9.4315   13.5000  C     
24   C        -5.6538    4.1277   13.0463  C     
25   H        -2.4382    3.0769   14.2410  H     
26   H        -3.1734    5.0966   12.0829  H     
27   H        -1.6009    5.3036   14.7086  H     
28   H        -5.3348    4.8061   15.6833  H     
29   H        -3.7607    4.1025   16.0142  H     
30   H        -3.4787    6.4754   15.7066  H     
31   H        -4.3663    6.4877   14.1886  H     
32   H        -3.7309    2.2967   11.6246  H     
33   H        -2.3308    1.5682   12.4464  H     
34   H        -0.6556    3.5100   12.5354  H     
35   H        -1.3540    4.1451   11.0557  H     
36   H        -2.7400    8.3949   14.6897  H     
37   H         0.7004    8.0007   11.3046  H     
38   H         0.4443    5.5977   11.1967  H     
39   H         0.6362    5.3079   12.9275  H     
40   H         3.0589   10.7457    9.8114  H     
41   H         2.9681   10.5018   11.4834  H     
42   H        -3.6762    0.5407   14.1047  H     
43   H        -4.9651    0.7070   12.8821  H     
44   H        -1.6661   10.3547   13.8631  H     
45   H        -5.4472    5.1364   12.6940  H     
46   H        -6.6244    4.1492   13.5506  H     
47   H        -5.7522    3.4914   12.1627  H     
@<TRIPOS>BOND
     1    1   13 1
     2    1   15 2
     3    1   16 2
     4    1   19 am
     5    2    3 1
     6    2    8 1
     7    2    9 1
     8    2   24 1
     9    3    4 1
    10    3   11 1
    11    4    5 1
    12    4   12 1
    13    5    6 1
    14    5   10 1
    15    6    7 1
    16    6   14 2
    17    7   17 2
    18    7   18 1
    19    8   21 1
    20    8   22 2
    21    9   10 1
    22   11   21 1
    23   12   18 1
    24   13   20 1
    25   14   23 1
    26   17   20 1
    27   20   23 2
    28    3   25 1
    29    4   26 1
    30    5   27 1
    31    9   28 1
    32    9   29 1
    33   10   30 1
    34   10   31 1
    35   11   32 1
    36   11   33 1
    37   12   34 1
    38   12   35 1
    39   14   36 1
    40   17   37 1
    41   18   38 1
    42   18   39 1
    43   19   40 1
    44   19   41 1
    45   21   42 1
    46   21   43 1
    47   23   44 1
    48   24   45 1
    49   24   46 1
    50   24   47 1
@<TRIPOS>PROPERTY_DATA
  Total_Score	| 0.7070
  Crash		| -0.5100
  Polar		| 0.0002
  FragIndex	| 1
  FragRMSD	| 0.876

