@<TRIPOS>MOLECULE
BindingDB_5483
 32 34 0 0 0
SMALL
NO_CHARGES


@<TRIPOS>ATOM
1    C         0.0764   28.5976    8.1500  C     
2    C         1.8417   29.2313    6.6530  C     
3    C        -0.2741   29.9534    8.2554  C     
4    C         0.4685   30.8987    7.5505  C     
5    C        -1.0961   31.9007    8.6645  C     
6    N        -1.2324   30.5903    8.9457  N     
7    N        -0.0630   32.0904    7.8244  N     
8    N         1.1331   28.2946    7.3358  N     
9    N         1.5159   30.5497    6.7613  N     
10   N         2.8619   28.8298    5.8806  N     
11   O        -0.6200   27.6725    8.8930  O     
12   C        -0.2407   26.2884    8.7325  C     
13   C        -1.1011   25.3812    9.6752  C     
14   C        -1.5186   24.0309    9.0450  C     
15   C        -0.3903   23.0343    9.3670  C     
16   C         0.3976   23.6416   10.5507  C     
17   C        -0.3390   24.9405   10.9486  C     
18   H        -1.6964   32.6430    9.0247  H     
19   H         0.2358   32.9383    7.4641  H     
20   H         3.4091   29.4773    5.4081  H     
21   H         3.0807   27.8842    5.8235  H     
22   H        -0.3893   26.0104    7.6849  H     
23   H         0.8279   26.1664    8.9528  H     
24   H        -2.0118   25.9138    9.9660  H     
25   H        -2.4534   23.6864    9.5032  H     
26   H        -1.6856   24.0996    7.9668  H     
27   H        -0.8117   22.0582    9.6240  H     
28   H         0.2612   22.9158    8.4953  H     
29   H         0.4426   22.9472   11.3950  H     
30   H         1.4209   23.8714   10.2358  H     
31   H         0.3614   25.7023   11.3052  H     
32   H        -1.0475   24.7283   11.7580  H     
@<TRIPOS>BOND
     1    1    3 1
     2    1    8 2
     3    1   11 1
     4    2    8 1
     5    2    9 2
     6    2   10 1
     7    3    4 2
     8    3    6 1
     9    4    7 1
    10    4    9 1
    11    5    6 2
    12    5    7 1
    13   11   12 1
    14   12   13 1
    15   13   14 1
    16   13   17 1
    17   14   15 1
    18   15   16 1
    19   16   17 1
    20    5   18 1
    21    7   19 1
    22   10   20 1
    23   10   21 1
    24   12   22 1
    25   12   23 1
    26   13   24 1
    27   14   25 1
    28   14   26 1
    29   15   27 1
    30   15   28 1
    31   16   29 1
    32   16   30 1
    33   17   31 1
    34   17   32 1
@<TRIPOS>PROPERTY_DATA
  Total_Score	| 8.3754
  Crash		| -0.3771
  Polar		| 4.9972
  FragIndex	| 1
  FragRMSD	| 0.470

