@<TRIPOS>MOLECULE
BindingDB_5462
 28 29 0 0 0
SMALL
NO_CHARGES


@<TRIPOS>ATOM
1    C        -0.0067   28.6145    8.1259  C     
2    C         1.8545   29.2453    6.7629  C     
3    C        -0.3334   29.9739    8.2453  C     
4    C         0.4444   30.9325    7.6092  C     
5    C        -1.1389   31.9089    8.7191  C     
6    N        -1.3051   30.5908    8.9335  N     
7    N        -0.0756   32.1220    7.9226  N     
8    N         1.0869   28.2982    7.3721  N     
9    N         1.5340   30.5652    6.8847  N     
10   O        -0.7287   27.7166    8.8658  O     
11   C        -0.4377   26.3032    8.7367  C     
12   C        -1.0671   25.5876    9.9502  C     
13   N         2.9318   28.8965    6.0395  N     
14   C        -0.6590   24.0896   10.1088  C     
15   C        -1.3285   23.1366    9.0917  C     
16   H        -1.7194   32.6522    9.1132  H     
17   H         0.2528   32.9833    7.6187  H     
18   H        -0.8837   25.9163    7.8060  H     
19   H         0.6524   26.1231    8.7193  H     
20   H        -0.7562   26.1045   10.8658  H     
21   H        -2.1635   25.6489    9.8769  H     
22   H         3.5168   29.5829    5.6740  H     
23   H         3.1672   27.9609    5.9553  H     
24   H         0.4344   24.0084   10.0092  H     
25   H        -0.9204   23.7544   11.1166  H     
26   H        -2.4161   23.1647    9.2176  H     
27   H        -0.9859   22.1129    9.2632  H     
28   H        -1.0825   23.4272    8.0679  H     
@<TRIPOS>BOND
     1    1    3 1
     2    1    8 2
     3    1   10 1
     4    2    8 1
     5    2    9 2
     6    2   13 1
     7    3    4 2
     8    3    6 1
     9    4    7 1
    10    4    9 1
    11    5    6 2
    12    5    7 1
    13   10   11 1
    14   11   12 1
    15   12   14 1
    16   14   15 1
    17    5   16 1
    18    7   17 1
    19   11   18 1
    20   11   19 1
    21   12   20 1
    22   12   21 1
    23   13   22 1
    24   13   23 1
    25   14   24 1
    26   14   25 1
    27   15   26 1
    28   15   27 1
    29   15   28 1
@<TRIPOS>PROPERTY_DATA
  Total_Score	| 8.3268
  Crash		| -0.3885
  Polar		| 4.9580
  FragIndex	| 1
  FragRMSD	| 0.655

