@<TRIPOS>MOLECULE
BindingDB_5490
 38 40 0 0 0
SMALL
NO_CHARGES


@<TRIPOS>ATOM
1    C        -0.0353   28.6178    8.0528  C     
2    C         1.7601   29.2298    6.5873  C     
3    C        -0.3492   29.9810    8.1805  C     
4    C         0.4209   30.9219    7.5024  C     
5    C        -1.1251   31.9351    8.6337  C     
6    N        -1.2986   30.6232    8.8785  N     
7    N        -0.0812   32.1217    7.8082  N     
8    N         1.0219   28.2932    7.2488  N     
9    N         1.4653   30.5540    6.7188  N     
10   N         2.7918   28.8352    5.8270  N     
11   O        -0.7604   27.7246    8.8001  O     
12   C        -0.4205   26.3262    8.7401  C     
13   C        -1.1403   25.6198    9.9143  C     
14   C        -1.4116   24.0746    9.8141  C     
15   C         0.6139   23.1236   11.1440  C     
16   C         1.1426   22.4248    9.8659  C     
17   C         0.6618   23.1354    8.5750  C     
18   C        -0.8760   23.3184    8.5595  C     
19   C        -0.9241   23.3317   11.1000  C     
20   H        -1.7031   32.6801    9.0251  H     
21   H         0.2466   32.9749    7.4903  H     
22   H         3.3668   29.4901    5.4017  H     
23   H         2.9943   27.8905    5.7406  H     
24   H        -0.7446   25.9061    7.7847  H     
25   H         0.6607   26.1956    8.8575  H     
26   H        -0.5613   25.8546   10.8133  H     
27   H        -2.1150   26.1054   10.0478  H     
28   H        -2.5015   23.9604    9.7750  H     
29   H         0.8529   22.5126   12.0167  H     
30   H         1.1198   24.0858   11.2656  H     
31   H         2.2356   22.4173    9.8824  H     
32   H         0.7981   21.3857    9.8560  H     
33   H         1.1399   24.1111    8.4988  H     
34   H         0.9641   22.5464    7.7040  H     
35   H        -1.3404   22.3279    8.5217  H     
36   H        -1.1719   23.8366    7.6483  H     
37   H        -1.2342   23.8826   11.9933  H     
38   H        -1.3991   22.3473   11.1429  H     
@<TRIPOS>BOND
     1    1    3 1
     2    1    8 2
     3    1   11 1
     4    2    8 1
     5    2    9 2
     6    2   10 1
     7    3    4 2
     8    3    6 1
     9    4    7 1
    10    4    9 1
    11    5    6 2
    12    5    7 1
    13   11   12 1
    14   12   13 1
    15   13   14 1
    16   14   18 1
    17   14   19 1
    18   15   16 1
    19   15   19 1
    20   16   17 1
    21   17   18 1
    22    5   20 1
    23    7   21 1
    24   10   22 1
    25   10   23 1
    26   12   24 1
    27   12   25 1
    28   13   26 1
    29   13   27 1
    30   14   28 1
    31   15   29 1
    32   15   30 1
    33   16   31 1
    34   16   32 1
    35   17   33 1
    36   17   34 1
    37   18   35 1
    38   18   36 1
    39   19   37 1
    40   19   38 1
@<TRIPOS>PROPERTY_DATA
  Total_Score	| 8.8608
  Crash		| -1.1034
  Polar		| 4.9086
  FragIndex	| 1
  FragRMSD	| 0.326

