@<TRIPOS>MOLECULE
BindingDB_5468
 31 32 0 0 0
SMALL
NO_CHARGES


@<TRIPOS>ATOM
1    C         0.0104   28.5535    8.0640  C     
2    C         1.7717   29.2134    6.5700  C     
3    C        -0.3404   29.9098    8.1895  C     
4    C         0.3985   30.8707    7.5014  C     
5    C        -1.1526   31.8491    8.6472  C     
6    N        -1.2956   30.5344    8.8971  N     
7    N        -0.1235   32.0614    7.8118  N     
8    N         1.0652   28.2615    7.2439  N     
9    N         1.4420   30.5293    6.7031  N     
10   O        -0.6666   27.6050    8.8062  O     
11   N         2.8049   28.8504    5.7986  N     
12   C        -0.3616   26.2153    8.5427  C     
13   C        -1.0693   25.2582    9.5510  C     
14   C        -1.3129   23.8582    8.9114  C     
15   C        -0.2654   25.1686   10.8858  C     
16   C        -0.7474   24.1366   11.9302  C     
17   H        -1.7421   32.5810    9.0403  H     
18   H         0.1912   32.9237    7.5010  H     
19   H         3.3692   29.5228    5.3853  H     
20   H         3.0259   27.9115    5.6966  H     
21   H        -0.6918   25.9838    7.5266  H     
22   H         0.7176   26.0398    8.5914  H     
23   H        -2.0489   25.6827    9.7828  H     
24   H        -1.8816   23.9577    7.9835  H     
25   H        -1.8941   23.2252    9.5854  H     
26   H        -0.3686   23.3600    8.6815  H     
27   H         0.7778   24.9446   10.6591  H     
28   H        -0.2815   26.1525   11.3609  H     
29   H        -1.8127   24.2522   12.1346  H     
30   H        -0.1937   24.2862   12.8603  H     
31   H        -0.5577   23.1204   11.5790  H     
@<TRIPOS>BOND
     1    1    3 1
     2    1    8 2
     3    1   10 1
     4    2    8 1
     5    2    9 2
     6    2   11 1
     7    3    4 2
     8    3    6 1
     9    4    7 1
    10    4    9 1
    11    5    6 2
    12    5    7 1
    13   10   12 1
    14   12   13 1
    15   13   14 1
    16   13   15 1
    17   15   16 1
    18    5   17 1
    19    7   18 1
    20   11   19 1
    21   11   20 1
    22   12   21 1
    23   12   22 1
    24   13   23 1
    25   14   24 1
    26   14   25 1
    27   14   26 1
    28   15   27 1
    29   15   28 1
    30   16   29 1
    31   16   30 1
    32   16   31 1
@<TRIPOS>PROPERTY_DATA
  Total_Score	| 8.1576
  Crash		| -0.5241
  Polar		| 4.8135
  FragIndex	| 1
  FragRMSD	| 0.447

