@<TRIPOS>MOLECULE
BindingDB_5463
 31 32 0 0 0
SMALL
NO_CHARGES


@<TRIPOS>ATOM
1    C         0.0349   28.5859    8.0584  C     
2    C         1.8014   29.2481    6.5734  C     
3    C        -0.2983   29.9425    8.2044  C     
4    C         0.4407   30.9041    7.5187  C     
5    C        -1.1166   31.8763    8.6727  C     
6    N        -1.2552   30.5602    8.9165  N     
7    N        -0.0839   32.0896    7.8360  N     
8    N         1.0869   28.2926    7.2354  N     
9    N         1.4822   30.5637    6.7189  N     
10   O        -0.7044   27.6593    8.7533  O     
11   C        -0.4143   26.2673    8.5346  C     
12   C        -1.0898   25.4388    9.6504  C     
13   N         2.8369   28.8848    5.8018  N     
14   C        -1.5473   24.0119    9.2156  C     
15   C        -0.5938   22.8261    9.5625  C     
16   C        -0.4225   22.5790   11.0885  C     
17   H        -1.7099   32.6043    9.0711  H     
18   H         0.2121   32.9511    7.5069  H     
19   H        -0.8043   25.9587    7.5651  H     
20   H         0.6694   26.1017    8.5572  H     
21   H        -0.4157   25.3679   10.5106  H     
22   H        -1.9811   25.9791    9.9943  H     
23   H         3.3939   29.5567    5.3789  H     
24   H         3.0486   27.9485    5.6897  H     
25   H        -2.5193   23.8107    9.6838  H     
26   H        -1.6975   24.0110    8.1264  H     
27   H        -1.0059   21.9044    9.1176  H     
28   H         0.3859   22.9962    9.1124  H     
29   H         0.0459   23.4460   11.5658  H     
30   H         0.2210   21.7013   11.2464  H     
31   H        -1.3953   22.3984   11.5539  H     
@<TRIPOS>BOND
     1    1    3 1
     2    1    8 2
     3    1   10 1
     4    2    8 1
     5    2    9 2
     6    2   13 1
     7    3    4 2
     8    3    6 1
     9    4    7 1
    10    4    9 1
    11    5    6 2
    12    5    7 1
    13   10   11 1
    14   11   12 1
    15   12   14 1
    16   14   15 1
    17   15   16 1
    18    5   17 1
    19    7   18 1
    20   11   19 1
    21   11   20 1
    22   12   21 1
    23   12   22 1
    24   13   23 1
    25   13   24 1
    26   14   25 1
    27   14   26 1
    28   15   27 1
    29   15   28 1
    30   16   29 1
    31   16   30 1
    32   16   31 1
@<TRIPOS>PROPERTY_DATA
  Total_Score	| 8.4534
  Crash		| -0.5399
  Polar		| 4.8564
  FragIndex	| 1
  FragRMSD	| 0.445

