@<TRIPOS>MOLECULE
BindingDB_5467
 28 29 0 0 0
SMALL
NO_CHARGES


@<TRIPOS>ATOM
1    C         0.0392   28.5452    8.0875  C     
2    C         1.7938   29.2123    6.6047  C     
3    C        -0.3013   29.9025    8.2321  C     
4    C         0.4330   30.8657    7.5445  C     
5    C        -1.1172   31.8376    8.7062  C     
6    N        -1.2510   30.5197    8.9489  N     
7    N        -0.0999   32.0502    7.8513  N     
8    N         1.0869   28.2503    7.2657  N     
9    N         1.4694   30.5264    6.7465  N     
10   O        -0.6718   27.6029    8.7911  O     
11   N         2.8162   28.8374    5.8174  N     
12   C        -0.3839   26.2143    8.5157  C     
13   C        -1.0505   25.3098    9.5854  C     
14   C        -1.3290   23.8838    9.0297  C     
15   C        -0.1972   25.2309   10.8806  C     
16   H        -1.7058   32.5710    9.1062  H     
17   H         0.1925   32.9123    7.5144  H     
18   H         3.3758   29.5009    5.3815  H     
19   H         3.0320   27.8959    5.7254  H     
20   H        -0.7742   25.9609    7.5270  H     
21   H         0.6980   26.0234    8.5073  H     
22   H        -2.0141   25.7618    9.8455  H     
23   H        -1.9873   23.9357    8.1596  H     
24   H        -1.8207   23.2655    9.7844  H     
25   H        -0.3976   23.3957    8.7292  H     
26   H         0.7788   24.7881   10.6742  H     
27   H        -0.7077   24.6254   11.6341  H     
28   H        -0.0479   26.2321   11.2941  H     
@<TRIPOS>BOND
     1    1    3 1
     2    1    8 2
     3    1   10 1
     4    2    8 1
     5    2    9 2
     6    2   11 1
     7    3    4 2
     8    3    6 1
     9    4    7 1
    10    4    9 1
    11    5    6 2
    12    5    7 1
    13   10   12 1
    14   12   13 1
    15   13   14 1
    16   13   15 1
    17    5   16 1
    18    7   17 1
    19   11   18 1
    20   11   19 1
    21   12   20 1
    22   12   21 1
    23   13   22 1
    24   14   23 1
    25   14   24 1
    26   14   25 1
    27   15   26 1
    28   15   27 1
    29   15   28 1
@<TRIPOS>PROPERTY_DATA
  Total_Score	| 7.9866
  Crash		| -0.4950
  Polar		| 4.8207
  FragIndex	| 1
  FragRMSD	| 0.345

