@<TRIPOS>MOLECULE
BindingDB_5478
 32 33 0 0 0
SMALL
NO_CHARGES


@<TRIPOS>ATOM
1    C         0.0134   28.6117    8.0801  C     
2    C         1.7721   29.2511    6.5750  C     
3    C        -0.3208   29.9687    8.2146  C     
4    C         0.4212   30.9205    7.5151  C     
5    C        -1.1232   31.9152    8.6694  C     
6    N        -1.2665   30.6016    8.9268  N     
7    N        -0.0980   32.1132    7.8215  N     
8    N         1.0538   28.3055    7.2440  N     
9    N         1.4581   30.5700    6.7112  N     
10   O        -0.7095   27.6899    8.8020  O     
11   N         2.7969   28.8648    5.8020  N     
12   C        -0.3104   26.2978    8.7347  C     
13   C        -0.7700   25.6008    9.9492  C     
14   C        -0.6187   26.2775   11.1169  C     
15   C        -1.3802   24.2382    9.9642  C     
16   C        -1.1650   23.3240    8.7218  C     
17   C        -0.9742   23.4010   11.2154  C     
18   H        -1.7051   32.6509    9.0703  H     
19   H         0.2095   32.9696    7.4933  H     
20   H         3.3631   29.5239    5.3808  H     
21   H         3.0158   27.9232    5.7276  H     
22   H        -0.7115   25.8883    7.8003  H     
23   H         0.7853   26.2000    8.6816  H     
24   H        -0.9412   25.9096   11.9771  H     
25   H        -0.2027   27.1844   11.1512  H     
26   H        -2.4635   24.3930   10.0262  H     
27   H        -1.4885   23.8201    7.8100  H     
28   H        -1.7487   22.4046    8.8074  H     
29   H        -0.1157   23.0482    8.6211  H     
30   H         0.1129   23.3390   11.2963  H     
31   H        -1.3771   22.3867   11.1653  H     
32   H        -1.3685   23.8421   12.1279  H     
@<TRIPOS>BOND
     1    1    3 1
     2    1    8 2
     3    1   10 1
     4    2    8 1
     5    2    9 2
     6    2   11 1
     7    3    4 2
     8    3    6 1
     9    4    7 1
    10    4    9 1
    11    5    6 2
    12    5    7 1
    13   10   12 1
    14   12   13 1
    15   13   14 2
    16   13   15 1
    17   15   16 1
    18   15   17 1
    19    5   18 1
    20    7   19 1
    21   11   20 1
    22   11   21 1
    23   12   22 1
    24   12   23 1
    25   14   24 1
    26   14   25 1
    27   15   26 1
    28   16   27 1
    29   16   28 1
    30   16   29 1
    31   17   30 1
    32   17   31 1
    33   17   32 1
@<TRIPOS>PROPERTY_DATA
  Total_Score	| 8.6952
  Crash		| -0.5534
  Polar		| 4.9135
  FragIndex	| 1
  FragRMSD	| 0.267

