@<TRIPOS>MOLECULE
BindingDB_5485
 35 37 0 0 0
SMALL
NO_CHARGES


@<TRIPOS>ATOM
1    C         0.0824   28.5934    8.0185  C     
2    C         1.8171   29.3420    6.5296  C     
3    C        -0.2876   29.9401    8.1966  C     
4    C         0.4284   30.9359    7.5326  C     
5    C        -1.1315   31.8556    8.7209  C     
6    N        -1.2458   30.5283    8.9314  N     
7    N        -0.1135   32.1076    7.8795  N     
8    N         1.1327   28.3530    7.1760  N     
9    N         1.4658   30.6428    6.7115  N     
10   N         2.8440   29.0225    5.7299  N     
11   O        -0.5780   27.6029    8.7158  O     
12   C        -0.2463   26.2436    8.3651  C     
13   C        -0.8234   25.2091    9.3679  C     
14   C        -0.6936   23.7676    8.7811  C     
15   C        -1.2164   22.6858    9.7597  C     
16   C        -0.5228   22.7758   11.1417  C     
17   C        -0.6426   24.1976   11.7457  C     
18   C        -0.1347   25.2917   10.7653  C     
19   H        -1.7298   32.5666    9.1405  H     
20   H         0.1745   32.9819    7.5751  H     
21   H         3.3757   29.7151    5.3130  H     
22   H         3.0892   28.0914    5.6048  H     
23   H        -0.6435   26.0303    7.3690  H     
24   H         0.8386   26.1144    8.3349  H     
25   H        -1.8877   25.4336    9.5034  H     
26   H        -1.2615   23.6949    7.8513  H     
27   H         0.3548   23.5501    8.5518  H     
28   H        -2.2914   22.8230    9.8823  H     
29   H        -1.0486   21.6930    9.3304  H     
30   H        -0.9804   22.0504   11.8242  H     
31   H         0.5359   22.5126   11.0369  H     
32   H        -1.6885   24.3951   11.9973  H     
33   H        -0.0604   24.2427   12.6723  H     
34   H         0.9485   25.1824   10.6535  H     
35   H        -0.3263   26.2711   11.2097  H     
@<TRIPOS>BOND
     1    1    3 1
     2    1    8 2
     3    1   11 1
     4    2    8 1
     5    2    9 2
     6    2   10 1
     7    3    4 2
     8    3    6 1
     9    4    7 1
    10    4    9 1
    11    5    6 2
    12    5    7 1
    13   11   12 1
    14   12   13 1
    15   13   14 1
    16   13   18 1
    17   14   15 1
    18   15   16 1
    19   16   17 1
    20   17   18 1
    21    5   19 1
    22    7   20 1
    23   10   21 1
    24   10   22 1
    25   12   23 1
    26   12   24 1
    27   13   25 1
    28   14   26 1
    29   14   27 1
    30   15   28 1
    31   15   29 1
    32   16   30 1
    33   16   31 1
    34   17   32 1
    35   17   33 1
    36   18   34 1
    37   18   35 1
@<TRIPOS>PROPERTY_DATA
  Total_Score	| 8.5474
  Crash		| -0.8954
  Polar		| 4.5406
  FragIndex	| 1
  FragRMSD	| 0.479

