@<TRIPOS>MOLECULE
BindingDB_5473
 32 33 0 0 0
SMALL
NO_CHARGES


@<TRIPOS>ATOM
1    C        -0.0282   28.6463    8.1765  C     
2    C         1.7685   29.2247    6.6991  C     
3    C        -0.3301   30.0122    8.2874  C     
4    C         0.4490   30.9358    7.5972  C     
5    C        -1.0910   31.9814    8.7033  C     
6    N        -1.2737   30.6746    8.9734  N     
7    N        -0.0454   32.1455    7.8749  N     
8    N         1.0191   28.3028    7.3699  N     
9    N         1.4843   30.5547    6.8099  N     
10   O        -0.7661   27.7506    8.9090  O     
11   N         2.7998   28.8189    5.9375  N     
12   C        -0.2390   26.4278    9.0592  C     
13   C        -0.9481   25.7218   10.2404  C     
14   C        -0.1800   24.5083   10.8278  C     
15   C         0.1116   23.3570    9.8330  C     
16   C        -1.0958   22.7316    9.3167  C     
17   C        -1.9094   23.2994    8.4192  C     
18   H        -1.6627   32.7390    9.0819  H     
19   H         0.2902   32.9886    7.5414  H     
20   H         3.3712   29.4761    5.5088  H     
21   H         3.0090   27.8703    5.8601  H     
22   H        -0.3872   25.8732    8.1237  H     
23   H         0.8368   26.4900    9.2711  H     
24   H        -1.0675   26.4659   11.0461  H     
25   H        -1.9494   25.3885    9.9049  H     
26   H         0.7681   24.8604   11.2349  H     
27   H        -0.7672   24.1062   11.6599  H     
28   H         0.7447   23.7162    9.0183  H     
29   H         0.6931   22.5876   10.3540  H     
30   H        -1.3599   21.8533    9.6966  H     
31   H        -2.7412   22.8374    8.1376  H     
32   H        -1.7007   24.1886    8.0322  H     
@<TRIPOS>BOND
     1    1    3 1
     2    1    8 2
     3    1   10 1
     4    2    8 1
     5    2    9 2
     6    2   11 1
     7    3    4 2
     8    3    6 1
     9    4    7 1
    10    4    9 1
    11    5    6 2
    12    5    7 1
    13   10   12 1
    14   12   13 1
    15   13   14 1
    16   14   15 1
    17   15   16 1
    18   16   17 2
    19    5   18 1
    20    7   19 1
    21   11   20 1
    22   11   21 1
    23   12   22 1
    24   12   23 1
    25   13   24 1
    26   13   25 1
    27   14   26 1
    28   14   27 1
    29   15   28 1
    30   15   29 1
    31   16   30 1
    32   17   31 1
    33   17   32 1
@<TRIPOS>PROPERTY_DATA
  Total_Score	| 8.4268
  Crash		| -0.6754
  Polar		| 4.9824
  FragIndex	| 1
  FragRMSD	| 0.592

