@<TRIPOS>MOLECULE
BindingDB_5477
 29 30 0 0 0
SMALL
NO_CHARGES


@<TRIPOS>ATOM
1    C        -0.0293   28.6321    8.0857  C     
2    C         1.7433   29.2654    6.5938  C     
3    C        -0.3487   29.9951    8.2162  C     
4    C         0.4120   30.9369    7.5281  C     
5    C        -1.1180   31.9614    8.6682  C     
6    N        -1.2863   30.6485    8.9192  N     
7    N        -0.0831   32.1412    7.8290  N     
8    N         1.0128   28.3115    7.2533  N     
9    N         1.4536   30.5874    6.7344  N     
10   O        -0.7471   27.7213    8.8328  O     
11   N         2.7768   28.9002    5.8210  N     
12   C        -0.3176   26.3279    8.7802  C     
13   C        -0.5214   25.6810   10.0845  C     
14   C         0.0612   26.2299   11.1765  C     
15   C        -1.3198   24.4506   10.2727  C     
16   C        -1.1625   23.2942    9.2620  C     
17   H        -1.6835   32.7176    9.0582  H     
18   H         0.2525   32.9863    7.5031  H     
19   H         3.3511   29.5793    5.4258  H     
20   H         3.0005   27.9601    5.7090  H     
21   H        -0.8942   25.7988    7.9975  H     
22   H         0.7673   26.2307    8.5329  H     
23   H        -0.0368   25.8160   12.0799  H     
24   H         0.5975   27.0637   11.1128  H     
25   H        -1.0834   24.0237   11.2621  H     
26   H        -2.3811   24.7320   10.2924  H     
27   H        -1.3614   23.6591    8.2514  H     
28   H        -1.8643   22.4802    9.5141  H     
29   H        -0.1450   22.8936    9.3084  H     
@<TRIPOS>BOND
     1    1    3 1
     2    1    8 2
     3    1   10 1
     4    2    8 1
     5    2    9 2
     6    2   11 1
     7    3    4 2
     8    3    6 1
     9    4    7 1
    10    4    9 1
    11    5    6 2
    12    5    7 1
    13   10   12 1
    14   12   13 1
    15   13   14 2
    16   13   15 1
    17   15   16 1
    18    5   17 1
    19    7   18 1
    20   11   19 1
    21   11   20 1
    22   12   21 1
    23   12   22 1
    24   14   23 1
    25   14   24 1
    26   15   25 1
    27   15   26 1
    28   16   27 1
    29   16   28 1
    30   16   29 1
@<TRIPOS>PROPERTY_DATA
  Total_Score	| 8.0957
  Crash		| -0.4782
  Polar		| 4.9590
  FragIndex	| 1
  FragRMSD	| 0.634

