@<TRIPOS>MOLECULE
BindingDB_18870
 41 42 0 0 0
SMALL
NO_CHARGES


@<TRIPOS>ATOM
1    C         1.8279   22.2343   32.4585  C     
2    C         1.5219   23.5185   31.9200  C     
3    C         2.0420   23.8467   30.6408  C     
4    C         2.8054   22.9135   29.9196  C     
5    C         3.0964   21.6538   30.4713  C     
6    C         2.6337   21.3100   31.7554  C     
7    O         2.8551   20.0906   32.3593  O     
8    C         4.1431   19.6239   32.2893  C     
9    C         5.1148   19.9726   33.2576  C     
10   C         4.4993   18.7191   31.2672  C     
11   C         5.8105   18.2422   31.1562  C     
12   C         6.8099   18.6493   32.0643  C     
13   C         6.4324   19.4962   33.1431  C     
14   O         1.8267   25.0724   30.0744  O     
15   C         0.7023   24.4669   32.7568  C     
16   C         1.6320   25.2459   33.7331  C     
17   C        -0.2512   25.3980   31.9536  C     
18   C         8.2023   18.1560   31.9365  C     
19   C         8.4596   16.8094   32.6836  C     
20   Cl        4.7104   20.9540   34.5709  Cl    
21   Cl        3.3398   18.1870   30.1541  Cl    
22   C         9.6489   16.7442   33.5636  C     
23   O        10.4419   17.7991   33.8418  O     
24   O         9.9641   15.5742   34.1642  O     
25   H         1.4725   21.9618   33.3782  H     
26   H         3.1554   23.1372   28.9861  H     
27   H         3.6448   20.9916   29.9217  H     
28   H         6.0558   17.5835   30.4074  H     
29   H         7.1205   19.7528   33.8490  H     
30   H         1.9844   24.9414   29.0776  H     
31   H         0.0361   23.8845   33.4006  H     
32   H         2.2375   24.5466   34.3221  H     
33   H         1.0440   25.8453   34.4313  H     
34   H         2.3052   25.9074   33.1836  H     
35   H         0.2809   26.2741   31.5653  H     
36   H        -1.0499   25.7891   32.6032  H     
37   H        -0.7064   24.8516   31.1237  H     
38   H         8.4405   18.0182   30.8707  H     
39   H         8.8770   18.9493   32.2719  H     
40   H         7.5996   16.5541   33.3195  H     
41   H         8.5474   16.0055   31.9410  H     
@<TRIPOS>BOND
     1    1    2 2
     2    1    6 1
     3    2    3 1
     4    2   15 1
     5    3    4 2
     6    3   14 1
     7    4    5 1
     8    5    6 2
     9    6    7 1
    10    7    8 1
    11    8    9 2
    12    8   10 1
    13    9   13 1
    14    9   20 1
    15   10   11 2
    16   10   21 1
    17   11   12 1
    18   12   13 2
    19   12   18 1
    20   15   16 1
    21   15   17 1
    22   18   19 1
    23   19   22 1
    24   22   23 2
    25   22   24 1
    26    1   25 1
    27    4   26 1
    28    5   27 1
    29   11   28 1
    30   13   29 1
    31   14   30 1
    32   15   31 1
    33   16   32 1
    34   16   33 1
    35   16   34 1
    36   17   35 1
    37   17   36 1
    38   17   37 1
    39   18   38 1
    40   18   39 1
    41   19   40 1
    42   19   41 1
@<TRIPOS>PROPERTY_DATA
  Total_Score	| 11.9118
  Crash		| -0.8761
  Polar		| 5.1797
  FragIndex	| 1
  FragRMSD	| 0.580

