@<TRIPOS>MOLECULE
BindingDB_18868
 35 36 0 0 0
SMALL
NO_CHARGES


@<TRIPOS>ATOM
1    C         1.9207   22.1376   32.2609  C     
2    C         1.5995   23.4281   31.7712  C     
3    C         2.1996   23.8172   30.5287  C     
4    C         3.0245   22.9355   29.8194  C     
5    C         3.3075   21.6656   30.3224  C     
6    C         2.7973   21.2713   31.5879  C     
7    O         3.0550   20.0484   32.1567  O     
8    C         4.3860   19.7340   32.3270  C     
9    C         5.1619   20.2724   33.3761  C     
10   C         4.9627   18.7555   31.4829  C     
11   C         6.3118   18.3750   31.6548  C     
12   C         7.0962   18.9048   32.7039  C     
13   C         6.4968   19.8626   33.5595  C     
14   O         2.0245   25.0742   30.0462  O     
15   C         0.7234   24.3160   32.6124  C     
16   C         1.5994   25.1311   33.6055  C     
17   C        -0.2752   25.2282   31.8468  C     
18   C         8.4334   18.4670   32.9135  C     
19   O         9.0693   17.6671   32.0346  O     
20   O         9.1405   18.8078   34.0240  O     
21   Cl        4.5147   21.3989   34.4698  Cl    
22   Cl        4.0517   17.9775   30.2844  Cl    
23   H         1.5407   21.8371   33.1652  H     
24   H         3.4222   23.2284   28.9181  H     
25   H         3.9183   21.0413   29.7945  H     
26   H         6.7127   17.6746   31.0226  H     
27   H         7.0369   20.2583   34.3354  H     
28   H         2.1907   25.0143   29.0361  H     
29   H         0.0761   23.6674   33.2277  H     
30   H         2.2487   24.4656   34.1785  H     
31   H         0.9720   25.6911   34.3119  H     
32   H         2.2288   25.8436   33.0558  H     
33   H         0.2290   26.1155   31.4426  H     
34   H        -1.0681   25.6035   32.5181  H     
35   H        -0.7507   24.6888   31.0208  H     
@<TRIPOS>BOND
     1    1    2 2
     2    1    6 1
     3    2    3 1
     4    2   15 1
     5    3    4 2
     6    3   14 1
     7    4    5 1
     8    5    6 2
     9    6    7 1
    10    7    8 1
    11    8    9 2
    12    8   10 1
    13    9   13 1
    14    9   21 1
    15   10   11 2
    16   10   22 1
    17   11   12 1
    18   12   13 2
    19   12   18 1
    20   15   16 1
    21   15   17 1
    22   18   19 2
    23   18   20 1
    24    1   23 1
    25    4   24 1
    26    5   25 1
    27   11   26 1
    28   13   27 1
    29   14   28 1
    30   15   29 1
    31   16   30 1
    32   16   31 1
    33   16   32 1
    34   17   33 1
    35   17   34 1
    36   17   35 1
@<TRIPOS>PROPERTY_DATA
  Total_Score	| 7.3553
  Crash		| -0.5236
  Polar		| 1.6952
  FragIndex	| 1
  FragRMSD	| 0.454

