@<TRIPOS>MOLECULE
BindingDB_18934
 38 40 0 0 0
SMALL
NO_CHARGES


@<TRIPOS>ATOM
1    C         5.3966   20.1980   32.9073  C     
2    C         4.4517   19.5786   32.0558  C     
3    C         4.8709   18.5370   31.1961  C     
4    C         6.2282   18.1710   31.1371  C     
5    C         7.1886   18.8058   31.9558  C     
6    C         6.7501   19.8166   32.8442  C     
7    C         8.6225   18.4002   31.9089  C     
8    C         9.0724   17.8763   33.2080  C     
9    O        10.2239   18.3102   33.7687  O     
10   O         8.4510   16.8057   33.7539  O     
11   O         3.1299   19.9483   32.0557  O     
12   C         2.8556   21.1341   31.4052  C     
13   C         2.0617   22.0687   32.0947  C     
14   C         1.6871   23.3015   31.4979  C     
15   C         2.1162   23.5857   30.1768  C     
16   C         2.8815   22.6384   29.4755  C     
17   C         3.2498   21.4225   30.0798  C     
18   O         1.8256   24.7881   29.6032  O     
19   Cl        4.9500   21.4070   34.0094  Cl    
20   Cl        3.7677   17.7215   30.1970  Cl    
21   C         0.9161   24.2398   32.2235  C     
22   C         0.6068   25.6681   34.1652  C     
23   C         1.3787   24.7308   33.4648  C     
24   C        -0.3130   24.7248   31.7109  C     
25   C        -1.0444   25.6680   32.4519  C     
26   N        -0.5691   26.1047   33.6477  N     
27   H         6.5190   17.4294   30.4941  H     
28   H         7.4251   20.2674   33.4668  H     
29   H         8.7915   17.6201   31.1618  H     
30   H         9.2301   19.2608   31.6185  H     
31   H         1.7540   21.8438   33.0459  H     
32   H         3.1888   22.8481   28.5231  H     
33   H         3.8195   20.7586   29.5544  H     
34   H         2.1489   24.7462   28.6777  H     
35   H         0.9258   26.0156   35.0695  H     
36   H         2.2651   24.4092   33.8680  H     
37   H        -0.6904   24.3926   30.8183  H     
38   H        -1.9370   26.0149   32.1016  H     
@<TRIPOS>BOND
     1    1    2 2
     2    1    6 1
     3    1   19 1
     4    2    3 1
     5    2   11 1
     6    3    4 2
     7    3   20 1
     8    4    5 1
     9    5    6 2
    10    5    7 1
    11    7    8 1
    12    8    9 2
    13    8   10 1
    14   11   12 1
    15   12   13 1
    16   12   17 2
    17   13   14 2
    18   14   15 1
    19   14   21 1
    20   15   16 2
    21   15   18 1
    22   16   17 1
    23   21   23 1
    24   21   24 2
    25   22   23 2
    26   22   26 1
    27   24   25 1
    28   25   26 2
    29    4   27 1
    30    6   28 1
    31    7   29 1
    32    7   30 1
    33   13   31 1
    34   16   32 1
    35   17   33 1
    36   18   34 1
    37   22   35 1
    38   23   36 1
    39   24   37 1
    40   25   38 1
@<TRIPOS>PROPERTY_DATA
  Total_Score	| 10.6090
  Crash		| -1.9066
  Polar		| 5.2578
  FragIndex	| 1
  FragRMSD	| 0.834

