@<TRIPOS>MOLECULE
BindingDB_18869
 38 39 0 0 0
SMALL
NO_CHARGES


@<TRIPOS>ATOM
1    C         1.9430   22.2411   32.3664  C     
2    C         1.5389   23.4832   31.8064  C     
3    C         1.9646   23.7702   30.4747  C     
4    C         2.6968   22.8260   29.7347  C     
5    C         3.0517   21.5947   30.3023  C     
6    C         2.7083   21.3041   31.6422  C     
7    O         3.0507   20.1276   32.2680  O     
8    C         4.3763   19.7617   32.1857  C     
9    C         5.3803   20.4063   32.9466  C     
10   C         4.7440   18.6902   31.3461  C     
11   C         6.0903   18.2927   31.2352  C     
12   C         7.1021   18.9368   31.9818  C     
13   C         6.7258   20.0028   32.8269  C     
14   O         1.6697   24.9646   29.8892  O     
15   C         0.7161   24.3983   32.6792  C     
16   C         1.6086   25.1956   33.6700  C     
17   C        -0.2821   25.3590   31.9738  C     
18   C         8.5254   18.4998   31.8990  C     
19   C         9.0039   17.9742   33.1883  C     
20   O        10.1612   18.4075   33.7361  O     
21   O         8.3830   16.9130   33.7510  O     
22   Cl        4.9960   21.6511   34.0232  Cl    
23   Cl        3.5676   17.8534   30.4602  Cl    
24   H         1.6771   22.0057   33.3281  H     
25   H         2.9760   23.0319   28.7709  H     
26   H         3.5766   20.9178   29.7450  H     
27   H         6.3334   17.5192   30.6094  H     
28   H         7.4354   20.4820   33.3814  H     
29   H         2.0762   24.9679   28.9723  H     
30   H         0.0704   23.7591   33.2896  H     
31   H         2.2302   24.5215   34.2600  H     
32   H         0.9890   25.7701   34.3636  H     
33   H         2.2600   25.8872   33.1350  H     
34   H         0.2254   26.2237   31.5437  H     
35   H        -1.0056   25.7551   32.7001  H     
36   H        -0.8372   24.8379   31.1938  H     
37   H         8.6563   17.7133   31.1512  H     
38   H         9.1435   19.3473   31.5884  H     
@<TRIPOS>BOND
     1    1    2 2
     2    1    6 1
     3    2    3 1
     4    2   15 1
     5    3    4 2
     6    3   14 1
     7    4    5 1
     8    5    6 2
     9    6    7 1
    10    7    8 1
    11    8    9 2
    12    8   10 1
    13    9   13 1
    14    9   22 1
    15   10   11 2
    16   10   23 1
    17   11   12 1
    18   12   13 2
    19   12   18 1
    20   15   16 1
    21   15   17 1
    22   18   19 1
    23   19   20 2
    24   19   21 1
    25    1   24 1
    26    4   25 1
    27    5   26 1
    28   11   27 1
    29   13   28 1
    30   14   29 1
    31   15   30 1
    32   16   31 1
    33   16   32 1
    34   16   33 1
    35   17   34 1
    36   17   35 1
    37   17   36 1
    38   18   37 1
    39   18   38 1
@<TRIPOS>PROPERTY_DATA
  Total_Score	| 11.6570
  Crash		| -0.8958
  Polar		| 5.3049
  FragIndex	| 1
  FragRMSD	| 0.779

