@<TRIPOS>MOLECULE
BindingDB_18935
 37 39 0 0 0
SMALL
NO_CHARGES


@<TRIPOS>ATOM
1    C         4.8451   18.6069   31.1969  C     
2    C         4.4367   19.6364   32.0838  C     
3    C         5.3906   20.2162   32.9572  C     
4    C         6.7387   19.8139   32.8880  C     
5    C         7.1565   18.8087   31.9884  C     
6    C         6.1944   18.2173   31.1431  C     
7    C         8.5870   18.3832   31.9336  C     
8    C         9.0561   17.8843   33.2392  C     
9    O         8.3944   16.8645   33.8395  O     
10   O        10.2395   18.2920   33.7510  O     
11   O         3.1099   20.0025   32.1163  O     
12   C         2.8265   21.2034   31.5147  C     
13   C         2.1403   22.1661   32.2718  C     
14   C         1.7741   23.4042   31.7058  C     
15   C         2.0631   23.6740   30.3428  C     
16   C         2.7302   22.7016   29.5782  C     
17   C         3.1075   21.4739   30.1568  C     
18   O         1.7298   24.8761   29.7919  O     
19   Cl        3.7241   17.8136   30.2040  Cl    
20   Cl        4.9551   21.3694   34.1214  Cl    
21   C         1.1021   24.3525   32.5053  C     
22   C         1.6940   24.8867   33.6734  C     
23   C        -0.2145   24.7676   32.1980  C     
24   C        -0.2723   26.1059   34.1435  C     
25   N        -0.8602   25.6254   33.0179  N     
26   N         0.9960   25.7455   34.4583  N     
27   H         7.4124   20.2374   33.5239  H     
28   H         6.4720   17.4824   30.4889  H     
29   H         8.7386   17.5793   31.2064  H     
30   H         9.2005   19.2286   31.6174  H     
31   H         1.9071   21.9539   33.2470  H     
32   H         2.9329   22.8838   28.5975  H     
33   H         3.5969   20.7858   29.5852  H     
34   H         2.0761   24.8787   28.8755  H     
35   H         2.6466   24.6259   33.9490  H     
36   H        -0.6967   24.4106   31.3722  H     
37   H        -0.7862   26.7320   34.7599  H     
@<TRIPOS>BOND
     1    1    2 2
     2    1    6 1
     3    1   19 1
     4    2    3 1
     5    2   11 1
     6    3    4 2
     7    3   20 1
     8    4    5 1
     9    5    6 2
    10    5    7 1
    11    7    8 1
    12    8    9 2
    13    8   10 1
    14   11   12 1
    15   12   13 1
    16   12   17 2
    17   13   14 2
    18   14   15 1
    19   14   21 1
    20   15   16 2
    21   15   18 1
    22   16   17 1
    23   21   22 1
    24   21   23 2
    25   22   26 2
    26   23   25 1
    27   24   25 2
    28   24   26 1
    29    4   27 1
    30    6   28 1
    31    7   29 1
    32    7   30 1
    33   13   31 1
    34   16   32 1
    35   17   33 1
    36   18   34 1
    37   22   35 1
    38   23   36 1
    39   24   37 1
@<TRIPOS>PROPERTY_DATA
  Total_Score	| 10.3096
  Crash		| -1.7335
  Polar		| 5.3546
  FragIndex	| 1
  FragRMSD	| 0.314

