@<TRIPOS>MOLECULE
BindingDB_50171807
 29 30 0 0 0
SMALL
NO_CHARGES


@<TRIPOS>ATOM
1    C         4.2925   19.7802   32.1586  C     
2    C         5.2579   20.3580   33.0222  C     
3    C         4.6875   18.7195   31.3126  C     
4    O         2.9984   20.2049   32.1483  O     
5    C         7.0223   18.9258   32.0638  C     
6    C         8.9728   18.0123   33.2373  C     
7    C         6.6063   19.9427   32.9589  C     
8    C         6.0416   18.3066   31.2537  C     
9    O         8.3711   16.9444   33.8155  O     
10   C         8.4536   18.5413   31.9607  C     
11   C         2.7118   21.3798   31.4875  C     
12   Cl        4.8434   21.5936   34.1071  Cl    
13   Cl        3.5562   17.9460   30.3071  Cl    
14   C         2.0414   23.8988   30.3145  C     
15   O        10.1726   18.4169   33.7207  O     
16   C         1.6314   22.1494   31.9724  C     
17   C         3.4234   21.8653   30.3576  C     
18   C         1.3037   23.3947   31.4008  C     
19   C         3.0990   23.1232   29.7877  C     
20   O         1.7428   25.1172   29.8117  O     
21   H         7.3038   20.3936   33.5602  H     
22   H         6.3147   17.5659   30.6050  H     
23   H         8.6101   17.7739   31.1980  H     
24   H         9.0323   19.4157   31.6495  H     
25   H         1.0770   21.7909   32.7591  H     
26   H         4.1872   21.3210   29.9557  H     
27   H         0.5220   23.9341   31.7842  H     
28   H         3.6502   23.4880   28.9960  H     
29   H         1.8388   25.0466   28.8274  H     
@<TRIPOS>BOND
     1    1    2 2
     2    1    3 1
     3    1    4 1
     4    2    7 1
     5    2   12 1
     6    3    8 2
     7    3   13 1
     8    4   11 1
     9    5    7 2
    10    5    8 1
    11    5   10 1
    12    6    9 2
    13    6   10 1
    14    6   15 1
    15   11   16 1
    16   11   17 2
    17   14   18 1
    18   14   19 2
    19   14   20 1
    20   16   18 2
    21   17   19 1
    22    7   21 1
    23    8   22 1
    24   10   23 1
    25   10   24 1
    26   16   25 1
    27   17   26 1
    28   18   27 1
    29   19   28 1
    30   20   29 1
@<TRIPOS>PROPERTY_DATA
  Total_Score	| 8.5663
  Crash		| -0.4406
  Polar		| 5.2361
  FragIndex	| 1
  FragRMSD	| 0.275

