@<TRIPOS>MOLECULE
BindingDB_17054
 63 70 0 0 0
SMALL
NO_CHARGES


@<TRIPOS>ATOM
1    C        -1.4869    6.3937  -31.1016  C     
2    C         0.5375    6.1083  -30.0934  C     
3    N        -0.4428    5.6070  -30.9850  N     
4    O        -2.4325    6.0848  -31.8043  O     
5    O         0.6998    5.2161  -28.9976  O     
6    C        -1.3286    7.5121  -30.3308  C     
7    C        -0.0906    7.3736  -29.6893  C     
8    C        -0.3561    9.5692  -28.6230  C     
9    C         0.3899    8.4000  -28.8456  C     
10   C        -2.1156    8.6670  -30.0903  C     
11   C        -1.6343    9.6692  -29.2226  C     
12   C         1.5199    9.7899  -27.4980  C     
13   C         1.5517    8.5213  -28.1001  C     
14   C         2.5942    7.6032  -27.8581  C     
15   C         2.5584   10.1186  -26.5907  C     
16   C         3.5817    9.1937  -26.3035  C     
17   C         3.5961    7.9367  -26.9324  C     
18   C        -3.3551    9.1170  -30.5511  C     
19   C        -3.5998   10.3434  -29.9153  C     
20   C        -4.2934    8.6020  -31.4713  C     
21   C        -5.4725    9.3226  -31.7423  C     
22   C        -5.7242   10.5443  -31.0900  C     
23   C        -4.7926   11.0577  -30.1690  C     
24   N        -2.5521   10.6544  -29.1147  N     
25   N         0.3669   10.4411  -27.8574  N     
26   C        -2.9511   11.7509  -26.8817  C     
27   O        -1.0525   12.3258  -28.4231  O     
28   C        -0.0338   11.8156  -27.5290  C     
29   C         1.0927   12.8434  -27.8638  C     
30   C        -2.4028   11.8513  -28.3382  C     
31   C        -0.5684   12.0257  -26.0655  C     
32   C        -1.9067   11.2456  -25.8417  C     
33   O         0.4384   11.7761  -25.0617  O     
34   C         0.2855   12.4309  -23.7834  C     
35   N        -1.8806    9.7571  -25.8604  N     
36   C        -0.7499    9.0033  -25.2785  C     
37   H         1.4836    6.2798  -30.6130  H     
38   H        -0.3644    4.7553  -31.4499  H     
39   H         1.5644    4.7815  -29.1529  H     
40   H         2.6194    6.6903  -28.3061  H     
41   H         2.5644   10.9922  -26.0757  H     
42   H         4.3092    9.4289  -25.6252  H     
43   H         4.3298    7.2602  -26.7081  H     
44   H        -4.1377    7.7289  -31.9632  H     
45   H        -6.1485    8.9593  -32.4174  H     
46   H        -6.5869   11.0583  -31.2850  H     
47   H        -4.9904   11.9427  -29.6994  H     
48   H        -3.2705   12.7516  -26.5730  H     
49   H        -3.8431   11.1191  -26.8640  H     
50   H         1.9642   12.7422  -27.2296  H     
51   H         0.7258   13.8614  -27.7298  H     
52   H         1.4112   12.7372  -28.9015  H     
53   H        -2.9676   12.6455  -28.8325  H     
54   H        -0.8177   13.0929  -25.9901  H     
55   H        -2.2927   11.5189  -24.8576  H     
56   H         0.2166   13.5144  -23.9009  H     
57   H         1.1661   12.2131  -23.1828  H     
58   H        -0.5937   12.0684  -23.2424  H     
59   H        -2.7243    9.4460  -25.3731  H     
60   H        -1.9696    9.4516  -26.8247  H     
61   H        -0.0324    8.7304  -26.0594  H     
62   H        -1.1457    8.0810  -24.8550  H     
63   H        -0.2304    9.5451  -24.4878  H     
@<TRIPOS>BOND
     1    1    3 1
     2    1    4 2
     3    1    6 1
     4    2    3 1
     5    2    5 1
     6    2    7 1
     7    6    7 2
     8    6   10 1
     9    7    9 1
    10    8    9 2
    11    8   11 1
    12    8   25 1
    13    9   13 1
    14   10   11 2
    15   10   18 1
    16   11   24 1
    17   12   13 2
    18   12   15 1
    19   12   25 1
    20   13   14 1
    21   14   17 2
    22   15   16 2
    23   16   17 1
    24   18   19 2
    25   18   20 1
    26   19   23 1
    27   19   24 1
    28   20   21 2
    29   21   22 1
    30   22   23 2
    31   24   30 1
    32   25   28 1
    33   26   30 1
    34   26   32 1
    35   27   28 1
    36   27   30 1
    37   28   29 1
    38   28   31 1
    39   31   32 1
    40   31   33 1
    41   32   35 1
    42   33   34 1
    43   35   36 1
    44    2   37 1
    45    3   38 1
    46    5   39 1
    47   14   40 1
    48   15   41 1
    49   16   42 1
    50   17   43 1
    51   20   44 1
    52   21   45 1
    53   22   46 1
    54   23   47 1
    55   26   48 1
    56   26   49 1
    57   29   50 1
    58   29   51 1
    59   29   52 1
    60   30   53 1
    61   31   54 1
    62   32   55 1
    63   34   56 1
    64   34   57 1
    65   34   58 1
    66   35   59 1
    67   35   60 1
    68   36   61 1
    69   36   62 1
    70   36   63 1
@<TRIPOS>PROPERTY_DATA
  Total_Score	| 9.2483
  Crash		| -3.3672
  Polar		| 2.1162
  FragIndex	| 1
  FragRMSD	| 1.193

