@<TRIPOS>MOLECULE
BindingDB_17140
 45 52 0 0 0
SMALL
NO_CHARGES


@<TRIPOS>ATOM
1    C        -1.5339    6.3248  -31.1846  C     
2    C         0.3782    5.8811  -30.2884  C     
3    N        -0.5378    5.4742  -31.1346  N     
4    O         1.3684    5.2181  -30.0299  O     
5    O        -2.5189    6.1322  -31.8767  O     
6    C        -1.2736    7.3573  -30.3246  C     
7    C        -0.0218    7.0742  -29.7470  C     
8    C         0.5409    7.9546  -28.7892  C     
9    C        -0.1791    9.0997  -28.4115  C     
10   C         1.7225    7.9876  -28.0373  C     
11   C         1.6655    9.1397  -27.2340  C     
12   C         2.7430    9.4755  -26.3843  C     
13   C         3.8716    8.6353  -26.3350  C     
14   C         3.9225    7.4711  -27.1250  C     
15   C         2.8533    7.1452  -27.9819  C     
16   C        -1.4347    9.3824  -28.9906  C     
17   C        -1.9943    8.5183  -29.9462  C     
18   N        -2.2670   10.4187  -28.7410  N     
19   N         0.4892    9.7888  -27.4563  N     
20   C        -2.0121   11.4679  -27.7783  C     
21   C        -1.0342   12.5489  -28.2942  C     
22   C         0.2882   12.2629  -27.5636  C     
23   C         0.0057   10.9680  -26.7755  C     
24   O        -1.4165   10.9417  -26.5831  O     
25   C        -3.2349    9.0747  -30.2804  C     
26   C        -3.3695   10.2542  -29.5286  C     
27   C        -4.5227   11.0577  -29.6650  C     
28   C        -4.2634    8.6738  -31.1589  C     
29   C        -5.4182    9.4682  -31.2875  C     
30   C        -5.5464   10.6587  -30.5474  C     
31   H        -0.5001    4.6429  -31.6355  H     
32   H         2.7223   10.3226  -25.8165  H     
33   H         4.6619    8.8778  -25.7354  H     
34   H         4.7468    6.8666  -27.0866  H     
35   H         2.9283    6.3126  -28.5600  H     
36   H        -2.9493   11.9384  -27.4799  H     
37   H        -0.9060   12.4982  -29.3799  H     
38   H        -1.3952   13.5477  -28.0288  H     
39   H         1.1216   12.1455  -28.2650  H     
40   H         0.5223   13.0796  -26.8741  H     
41   H         0.4550   11.0341  -25.7816  H     
42   H        -4.6265   11.9240  -29.1358  H     
43   H        -4.1969    7.8226  -31.7070  H     
44   H        -6.1632    9.1825  -31.9270  H     
45   H        -6.3858   11.2325  -30.6497  H     
@<TRIPOS>BOND
     1    1    3 1
     2    1    5 2
     3    1    6 1
     4    2    3 1
     5    2    4 2
     6    2    7 1
     7    6    7 1
     8    6   17 2
     9    7    8 2
    10    8    9 1
    11    8   10 1
    12    9   16 2
    13    9   19 1
    14   10   11 2
    15   10   15 1
    16   11   12 1
    17   11   19 1
    18   12   13 2
    19   13   14 1
    20   14   15 2
    21   16   17 1
    22   16   18 1
    23   17   25 1
    24   18   20 1
    25   18   26 1
    26   19   23 1
    27   20   21 1
    28   20   24 1
    29   21   22 1
    30   22   23 1
    31   23   24 1
    32   25   26 2
    33   25   28 1
    34   26   27 1
    35   27   30 2
    36   28   29 2
    37   29   30 1
    38    3   31 1
    39   12   32 1
    40   13   33 1
    41   14   34 1
    42   15   35 1
    43   20   36 1
    44   21   37 1
    45   21   38 1
    46   22   39 1
    47   22   40 1
    48   23   41 1
    49   27   42 1
    50   28   43 1
    51   29   44 1
    52   30   45 1
@<TRIPOS>PROPERTY_DATA
  Total_Score	| 8.6061
  Crash		| -0.6339
  Polar		| 2.3052
  FragIndex	| 1
  FragRMSD	| 0.827

