@<TRIPOS>MOLECULE
BindingDB_2579
 62 69 0 0 0
SMALL
NO_CHARGES


@<TRIPOS>ATOM
1    C         0.4592    6.0900  -30.1497  C     
2    C        -1.4986    6.4161  -31.2743  C     
3    N        -0.4728    5.6136  -31.1068  N     
4    O        -2.3640    6.1770  -32.0999  O     
5    C        -1.3831    7.5048  -30.4585  C     
6    C        -0.1816    7.3504  -29.7604  C     
7    C        -2.1769    8.6492  -30.2163  C     
8    C        -1.6951    9.6814  -29.3833  C     
9    C        -3.6814   10.2950  -30.0429  C     
10   C        -3.4382    9.0512  -30.6411  C     
11   C        -4.9068   10.9567  -30.2659  C     
12   C        -5.8691   10.3634  -31.1054  C     
13   C        -5.6188    9.1144  -31.7066  C     
14   C        -4.4051    8.4418  -31.4683  C     
15   N        -2.6112   10.6690  -29.3054  N     
16   C        -0.4423    9.5654  -28.7377  C     
17   C         0.2706    8.3664  -28.8883  C     
18   C         1.3308    9.7213  -27.4524  C     
19   C         1.3867    8.4597  -28.0722  C     
20   C         2.3906   10.0420  -26.5659  C     
21   C         2.4277    7.5361  -27.8412  C     
22   C         3.4661    7.8846  -26.9617  C     
23   C         3.4394    9.1325  -26.3174  C     
24   N         0.2386   10.4125  -27.9151  N     
25   C        -3.0586   12.1623  -27.2857  C     
26   C        -2.4199   11.9574  -28.6908  C     
27   C        -0.1190   11.8298  -27.7167  C     
28   C        -0.7086   12.1506  -26.3003  C     
29   O        -1.0350   12.3354  -28.7139  O     
30   C        -2.1728   11.6152  -26.1312  C     
31   N        -2.3400   10.1463  -26.0736  N     
32   C        -1.2355    9.3659  -25.4792  C     
33   O         0.2039   11.6277  -25.3264  O     
34   C         0.1150   12.1246  -23.9773  C     
35   C         1.0839   12.7820  -27.9983  C     
36   H         0.5354    5.4070  -29.3079  H     
37   H         1.4324    6.2574  -30.6102  H     
38   H        -0.3612    4.7885  -31.6047  H     
39   H        -5.1123   11.8502  -29.8197  H     
40   H        -6.7637   10.8300  -31.2692  H     
41   H        -6.3284    8.6889  -32.3102  H     
42   H        -4.2692    7.5295  -31.8857  H     
43   H         2.4207   10.9218  -26.0648  H     
44   H         2.4572    6.6271  -28.3029  H     
45   H         4.2505    7.2450  -26.8001  H     
46   H         4.1912    9.3833  -25.6680  H     
47   H        -3.2053   13.2408  -27.1353  H     
48   H        -4.0514   11.7045  -27.2549  H     
49   H        -2.8800   12.6938  -29.3537  H     
50   H        -0.7622   13.2512  -26.2062  H     
51   H        -2.5749   12.0280  -25.2005  H     
52   H        -3.1887    9.9505  -25.5346  H     
53   H        -2.4867    9.8031  -27.0182  H     
54   H        -0.3357    9.4313  -26.1073  H     
55   H        -1.5279    8.3067  -25.3905  H     
56   H        -1.0078    9.7538  -24.4819  H     
57   H         0.2257   13.2071  -23.9391  H     
58   H         0.9300   11.6886  -23.4101  H     
59   H        -0.8188   11.8423  -23.5039  H     
60   H         1.8934   12.6786  -27.2813  H     
61   H         0.7586   13.8255  -27.9639  H     
62   H         1.4793   12.6014  -28.9962  H     
@<TRIPOS>BOND
     1    1    3 1
     2    1    6 1
     3    2    3 1
     4    2    4 2
     5    2    5 1
     6    5    6 2
     7    5    7 1
     8    6   17 1
     9    7    8 2
    10    7   10 1
    11    8   15 1
    12    8   16 1
    13    9   10 2
    14    9   11 1
    15    9   15 1
    16   10   14 1
    17   11   12 2
    18   12   13 1
    19   13   14 2
    20   26   15 1
    21   16   17 2
    22   16   24 1
    23   17   19 1
    24   18   19 2
    25   18   20 1
    26   18   24 1
    27   19   21 1
    28   20   23 2
    29   21   22 2
    30   22   23 1
    31   27   24 1
    32   25   26 1
    33   25   30 1
    34   26   29 1
    35   27   28 1
    36   27   29 1
    37   27   35 1
    38   28   30 1
    39   28   33 1
    40   30   31 1
    41   31   32 1
    42   33   34 1
    43    1   36 1
    44    1   37 1
    45    3   38 1
    46   11   39 1
    47   12   40 1
    48   13   41 1
    49   14   42 1
    50   20   43 1
    51   21   44 1
    52   22   45 1
    53   23   46 1
    54   25   47 1
    55   25   48 1
    56   26   49 1
    57   28   50 1
    58   30   51 1
    59   31   52 1
    60   31   53 1
    61   32   54 1
    62   32   55 1
    63   32   56 1
    64   34   57 1
    65   34   58 1
    66   34   59 1
    67   35   60 1
    68   35   61 1
    69   35   62 1
@<TRIPOS>PROPERTY_DATA
  Total_Score	| 8.0940
  Crash		| -4.1604
  Polar		| 2.2377
  FragIndex	| 1
  FragRMSD	| 1.426

