@<TRIPOS>MOLECULE
BindingDB_50051539
 49 51 0 0 0
SMALL
NO_CHARGES


@<TRIPOS>ATOM
1    C        46.2375   35.1989   89.5995  C     
2    C        46.2350   34.1281   88.6771  C     
3    C        46.0159   34.3898   87.3142  C     
4    C        45.8472   35.7129   86.8631  C     
5    C        45.8193   36.8004   87.7718  C     
6    C        46.0166   36.5108   89.1629  C     
7    C        45.6583   38.1985   87.3043  C     
8    C        44.3969   38.4837   86.4429  C     
9    C        43.1073   37.7018   86.8592  C     
10   C        42.1943   37.2816   85.7881  C     
11   N        40.9128   36.9239   85.9921  N     
12   O        42.6155   37.2680   84.6279  O     
13   C        40.0408   36.4798   84.9329  C     
14   C        38.8246   35.8624   85.6574  C     
15   C        38.7992   36.5873   87.0123  C     
16   C        40.2841   36.8879   87.2810  C     
17   C        39.6842   37.5118   83.9546  C     
18   O        39.9154   38.6831   84.2618  O     
19   N        39.1956   37.2614   82.7299  N     
20   C        38.8109   35.9619   82.2636  C     
21   C        38.1111   36.1810   80.9037  C     
22   C        38.6584   37.5290   80.4176  C     
23   C        39.0336   38.2655   81.7196  C     
24   H        46.3917   34.9986   90.5869  H     
25   H        46.4349   33.1763   88.9833  H     
26   H        46.0127   33.6141   86.6307  H     
27   H        45.6918   35.8580   85.8731  H     
28   H        45.9994   37.2579   89.8444  H     
29   H        45.6529   38.8941   88.1403  H     
30   H        46.5426   38.4281   86.6906  H     
31   H        44.1657   39.5593   86.4657  H     
32   H        44.6751   38.2861   85.4046  H     
33   H        43.3748   36.7997   87.4312  H     
34   H        42.5499   38.3352   87.5684  H     
35   H        40.5592   35.6664   84.4131  H     
36   H        37.8735   35.9890   85.1353  H     
37   H        38.9844   34.7957   85.8336  H     
38   H        38.2218   37.5202   86.9208  H     
39   H        38.3612   35.9656   87.8040  H     
40   H        40.7360   36.0731   87.8699  H     
41   H        40.3765   37.8383   87.8263  H     
42   H        39.6849   35.3214   82.1320  H     
43   H        38.1130   35.4677   82.9389  H     
44   H        38.3342   35.3794   80.1939  H     
45   H        37.0305   36.2511   81.0441  H     
46   H        39.5502   37.3724   79.8064  H     
47   H        37.9215   38.0880   79.8358  H     
48   H        38.2393   38.9595   82.0134  H     
49   H        39.9633   38.8242   81.5683  H     
@<TRIPOS>BOND
     1    1    2 2
     2    1    6 1
     3    2    3 1
     4    3    4 2
     5    4    5 1
     6    5    6 2
     7    5    7 1
     8    7    8 1
     9    8    9 1
    10    9   10 1
    11   10   11 am
    12   10   12 2
    13   11   13 1
    14   11   16 1
    15   13   14 1
    16   13   17 1
    17   14   15 1
    18   15   16 1
    19   17   18 2
    20   17   19 am
    21   19   20 1
    22   19   23 1
    23   20   21 1
    24   21   22 1
    25   22   23 1
    26    1   24 1
    27    2   25 1
    28    3   26 1
    29    4   27 1
    30    6   28 1
    31    7   29 1
    32    7   30 1
    33    8   31 1
    34    8   32 1
    35    9   33 1
    36    9   34 1
    37   13   35 1
    38   14   36 1
    39   14   37 1
    40   15   38 1
    41   15   39 1
    42   16   40 1
    43   16   41 1
    44   20   42 1
    45   20   43 1
    46   21   44 1
    47   21   45 1
    48   22   46 1
    49   22   47 1
    50   23   48 1
    51   23   49 1
@<TRIPOS>PROPERTY_DATA
  Total_Score	| 8.4393
  Crash		| -1.3865
  Polar		| 2.1705
  FragIndex	| 1
  FragRMSD	| 0.264

