@<TRIPOS>MOLECULE
BindingDB_50170689
 55 57 0 0 0
SMALL
NO_CHARGES


@<TRIPOS>ATOM
1    N        39.1072   37.3121   82.8495  N     
2    C        39.7961   37.6792   83.9427  C     
3    N        41.2408   37.3765   85.9324  N     
4    C        40.3531   36.7714   84.9531  C     
5    C        38.4968   38.2444   81.9394  C     
6    C        42.4072   37.9765   85.6177  C     
7    C        37.2096   38.7260   82.4617  C     
8    O        39.9051   38.8990   84.1940  O     
9    O        42.8261   37.9097   84.4658  O     
10   O        36.1562   38.2095   82.0860  O     
11   C        38.9079   35.9583   82.4353  C     
12   C        40.7019   37.3488   87.2556  C     
13   C        39.2214   36.1152   85.7957  C     
14   C        43.2283   38.7509   86.5392  C     
15   C        38.3682   37.4629   80.6095  C     
16   C        37.0965   39.8628   83.3731  C     
17   C        45.5400   35.8376   87.9972  C     
18   O        36.3251   39.5445   84.5350  O     
19   C        39.7102   36.1781   87.2502  C     
20   C        38.2043   36.0055   81.0634  C     
21   C        44.3306   37.9852   87.3640  C     
22   C        44.7416   36.5341   86.9493  C     
23   C        45.8294   34.4551   87.8825  C     
24   C        46.0510   36.5506   89.1039  C     
25   C        46.9172   35.9268   90.0180  C     
26   C        46.6598   33.8211   88.8211  C     
27   C        47.2294   34.5649   89.8697  C     
28   H        40.9190   35.9870   84.4432  H     
29   H        39.1649   39.1007   81.7453  H     
30   H        39.8629   35.4438   82.3401  H     
31   H        38.2808   35.4164   83.1450  H     
32   H        41.4513   37.1530   88.0301  H     
33   H        40.1997   38.2926   87.4752  H     
34   H        38.2695   36.6545   85.7155  H     
35   H        39.0582   35.0652   85.4987  H     
36   H        43.7401   39.5563   85.9858  H     
37   H        42.5740   39.2824   87.2444  H     
38   H        37.5372   37.7892   79.9729  H     
39   H        39.2969   37.5520   80.0400  H     
40   H        38.0977   40.1707   83.6840  H     
41   H        36.6103   40.7140   82.8935  H     
42   H        36.7537   40.0747   85.2492  H     
43   H        40.2301   35.2406   87.4998  H     
44   H        38.8762   36.3302   87.9570  H     
45   H        38.6570   35.3027   80.3482  H     
46   H        37.1417   35.7577   81.1763  H     
47   H        45.2455   38.6086   87.3782  H     
48   H        43.9880   37.9306   88.4080  H     
49   H        45.3050   36.5688   86.0111  H     
50   H        43.8358   35.9482   86.7508  H     
51   H        45.4452   33.8995   87.1174  H     
52   H        45.8296   37.5376   89.2376  H     
53   H        47.3073   36.4573   90.8009  H     
54   H        46.8614   32.8209   88.7349  H     
55   H        47.8675   34.1127   90.5318  H     
@<TRIPOS>BOND
     1    1    2 am
     2    1    5 1
     3    1   11 1
     4    4    2 1
     5    2    8 2
     6    3    4 1
     7    3    6 am
     8    3   12 1
     9    4   13 1
    10    5    7 1
    11    5   15 1
    12    6    9 2
    13    6   14 1
    14    7   10 2
    15    7   16 1
    16   11   20 1
    17   12   19 1
    18   13   19 1
    19   14   21 1
    20   15   20 1
    21   16   18 1
    22   17   22 1
    23   17   23 2
    24   17   24 1
    25   21   22 1
    26   23   26 1
    27   24   25 2
    28   25   27 1
    29   26   27 2
    30    4   28 1
    31    5   29 1
    32   11   30 1
    33   11   31 1
    34   12   32 1
    35   12   33 1
    36   13   34 1
    37   13   35 1
    38   14   36 1
    39   14   37 1
    40   15   38 1
    41   15   39 1
    42   16   40 1
    43   16   41 1
    44   18   42 1
    45   19   43 1
    46   19   44 1
    47   20   45 1
    48   20   46 1
    49   21   47 1
    50   21   48 1
    51   22   49 1
    52   22   50 1
    53   23   51 1
    54   24   52 1
    55   25   53 1
    56   26   54 1
    57   27   55 1
@<TRIPOS>PROPERTY_DATA
  Total_Score	| 7.9849
  Crash		| -2.2738
  Polar		| 4.2840
  FragIndex	| 1
  FragRMSD	| 0.761

