@<TRIPOS>MOLECULE
BindingDB_50155838
 50 52 0 0 0
SMALL
NO_CHARGES


@<TRIPOS>ATOM
1    C        39.7903   37.4655   84.1385  C     
2    N        39.1944   37.2373   82.9515  N     
3    N        41.0509   36.8582   86.1546  N     
4    C        40.2011   36.4077   85.0693  C     
5    C        42.3004   37.3145   85.9587  C     
6    N        36.8840   39.5932   82.9187  N     
7    C        37.7720   38.9970   82.4945  C     
8    C        38.8464   38.2790   82.0180  C     
9    O        40.0306   38.6261   84.4680  O     
10   O        42.7169   37.3573   84.8035  O     
11   C        40.4350   36.7217   87.4472  C     
12   C        38.8533   35.9326   82.4562  C     
13   C        39.0138   35.7109   85.7792  C     
14   C        43.1816   37.7165   87.0591  C     
15   C        45.9121   36.8867   87.9080  C     
16   C        38.9751   36.3440   87.1758  C     
17   C        44.4194   38.6139   86.7001  C     
18   C        38.1270   36.1437   81.1149  C     
19   C        38.5627   37.5467   80.6834  C     
20   C        45.7161   38.3105   87.4932  C     
21   C        45.9019   35.8328   86.9496  C     
22   C        46.1154   36.5515   89.2620  C     
23   C        46.0577   34.4961   87.3522  C     
24   C        46.3016   35.2139   89.6643  C     
25   C        46.2543   34.1801   88.7043  C     
26   H        40.7611   35.6478   84.5151  H     
27   H        39.6834   38.9681   81.8623  H     
28   H        40.9352   35.9348   88.0174  H     
29   H        40.4711   37.6555   88.0117  H     
30   H        39.7531   35.3376   82.2986  H     
31   H        38.1936   35.4033   83.1449  H     
32   H        38.0541   35.8441   85.2691  H     
33   H        39.2103   34.6353   85.8682  H     
34   H        42.5980   38.2672   87.7956  H     
35   H        43.5187   36.7979   87.5363  H     
36   H        38.5890   35.6503   87.9237  H     
37   H        38.3474   37.2369   87.1531  H     
38   H        44.6897   38.5506   85.6436  H     
39   H        44.1368   39.6624   86.8619  H     
40   H        38.4020   35.3818   80.3770  H     
41   H        37.0425   36.1192   81.2651  H     
42   H        37.8065   38.0319   80.0582  H     
43   H        39.4863   37.4696   80.1007  H     
44   H        45.7359   38.9769   88.3590  H     
45   H        46.5662   38.5812   86.8625  H     
46   H        45.7644   36.0335   85.9600  H     
47   H        46.1421   37.2784   89.9828  H     
48   H        46.0475   33.7461   86.6497  H     
49   H        46.4720   34.9871   90.6469  H     
50   H        46.3745   33.2068   88.9979  H     
@<TRIPOS>BOND
     1    1    2 am
     2    4    1 1
     3    1    9 2
     4    2    8 1
     5    2   12 1
     6    3    4 1
     7    3    5 am
     8    3   11 1
     9    4   13 1
    10    5   10 2
    11    5   14 1
    12    6    7 3
    13    8    7 1
    14    8   19 1
    15   11   16 1
    16   12   18 1
    17   13   16 1
    18   14   17 1
    19   15   20 1
    20   15   21 2
    21   15   22 1
    22   17   20 1
    23   18   19 1
    24   21   23 1
    25   22   24 2
    26   23   25 2
    27   24   25 1
    28    4   26 1
    29    8   27 1
    30   11   28 1
    31   11   29 1
    32   12   30 1
    33   12   31 1
    34   13   32 1
    35   13   33 1
    36   14   34 1
    37   14   35 1
    38   16   36 1
    39   16   37 1
    40   17   38 1
    41   17   39 1
    42   18   40 1
    43   18   41 1
    44   19   42 1
    45   19   43 1
    46   20   44 1
    47   20   45 1
    48   21   46 1
    49   22   47 1
    50   23   48 1
    51   24   49 1
    52   25   50 1
@<TRIPOS>PROPERTY_DATA
  Total_Score	| 6.9166
  Crash		| -2.0076
  Polar		| 1.9914
  FragIndex	| 1
  FragRMSD	| 0.604

