@<TRIPOS>MOLECULE
BindingDB_50037614
 53 56 0 0 0
SMALL
NO_CHARGES


@<TRIPOS>ATOM
1    N        39.0988   37.3111   82.7666  N     
2    C        39.8788   37.6324   83.8254  C     
3    N        41.1051   37.1572   85.8974  N     
4    C        37.1690   38.7078   82.5331  C     
5    C        40.2954   36.6273   84.8306  C     
6    C        38.4458   38.2883   81.9241  C     
7    C        42.3983   37.5614   85.7335  C     
8    C        37.0426   39.7103   83.4814  C     
9    S        35.6215   40.1312   84.3661  S     
10   O        43.0597   38.0897   86.8022  O     
11   O        40.2095   38.8117   83.9691  O     
12   O        36.1163   38.2024   82.1453  O     
13   O        43.0131   37.4648   84.5279  O     
14   C        38.0321   40.5970   83.9354  C     
15   C        36.2914   41.4047   85.2980  C     
16   C        37.6246   41.5204   84.9075  C     
17   C        38.8870   35.9623   82.2937  C     
18   C        40.4575   37.1695   87.1718  C     
19   C        44.4099   38.5507   86.9087  C     
20   C        39.0879   35.9905   85.5807  C     
21   C        38.3638   37.5365   80.5671  C     
22   C        45.1441   37.6216   87.7980  C     
23   C        38.1228   36.0816   80.9666  C     
24   C        39.0079   36.7467   86.9081  C     
25   C        45.2540   36.2485   87.4731  C     
26   C        45.7232   38.0769   89.0037  C     
27   C        46.3843   37.1854   89.8669  C     
28   C        45.9129   35.3537   88.3398  C     
29   C        46.4782   35.8218   89.5398  C     
30   H        40.8628   35.8341   84.3319  H     
31   H        39.0705   39.1815   81.7648  H     
32   H        38.9332   40.6857   83.4686  H     
33   H        35.7905   41.9875   85.9700  H     
34   H        38.2463   42.2367   85.2963  H     
35   H        39.8479   35.4828   82.1091  H     
36   H        38.3199   35.3574   83.0069  H     
37   H        40.9478   36.4538   87.8399  H     
38   H        40.4918   38.1633   87.6260  H     
39   H        44.9041   38.6046   85.9376  H     
40   H        44.3801   39.5597   87.3206  H     
41   H        38.1397   36.0642   85.0534  H     
42   H        39.2905   34.9325   85.7744  H     
43   H        37.5831   37.8887   79.9002  H     
44   H        39.3214   37.6122   80.0412  H     
45   H        38.5008   35.3855   80.2175  H     
46   H        37.0597   35.8974   81.1307  H     
47   H        38.6231   36.1191   87.7101  H     
48   H        38.3745   37.6281   86.8051  H     
49   H        44.8457   35.8864   86.6055  H     
50   H        45.6611   39.0601   89.2691  H     
51   H        46.7996   37.5298   90.7365  H     
52   H        45.9838   34.3625   88.0987  H     
53   H        46.9516   35.1711   90.1737  H     
@<TRIPOS>BOND
     1    1    2 am
     2    1    6 1
     3    1   17 1
     4    5    2 1
     5    2   11 2
     6    3    5 1
     7    3    7 1
     8    3   18 1
     9    6    4 1
    10    4    8 1
    11    4   12 2
    12    5   20 1
    13    6   21 1
    14    7   10 1
    15    7   13 2
    16    8    9 1
    17    8   14 2
    18    9   15 1
    19   10   19 1
    20   14   16 1
    21   15   16 2
    22   17   23 1
    23   18   24 1
    24   19   22 1
    25   20   24 1
    26   21   23 1
    27   22   25 2
    28   22   26 1
    29   25   28 1
    30   26   27 2
    31   27   29 1
    32   28   29 2
    33    5   30 1
    34    6   31 1
    35   14   32 1
    36   15   33 1
    37   16   34 1
    38   17   35 1
    39   17   36 1
    40   18   37 1
    41   18   38 1
    42   19   39 1
    43   19   40 1
    44   20   41 1
    45   20   42 1
    46   21   43 1
    47   21   44 1
    48   23   45 1
    49   23   46 1
    50   24   47 1
    51   24   48 1
    52   25   49 1
    53   26   50 1
    54   27   51 1
    55   28   52 1
    56   29   53 1
@<TRIPOS>PROPERTY_DATA
  Total_Score	| 8.6095
  Crash		| -1.8412
  Polar		| 3.4061
  FragIndex	| 1
  FragRMSD	| 0.341

