@<TRIPOS>MOLECULE
BindingDB_50170709
 85 89 0 0 0
SMALL
NO_CHARGES


@<TRIPOS>ATOM
1    N        43.2926   37.0267   88.2489  N     
2    N        38.7985   37.4989   83.2616  N     
3    C        42.5175   36.0405   87.7741  C     
4    C        39.7185   37.7715   84.1974  C     
5    C        36.9574   38.9403   82.7691  C     
6    C        45.2967   35.8064   89.0352  C     
7    C        35.9936   41.2620   87.5889  C     
8    C        44.7358   36.9646   88.3208  C     
9    C        38.2877   38.4592   82.3165  C     
10   N        36.1413   41.1314   86.2382  N     
11   N        36.7289   39.9136   83.6922  N     
12   N        45.9560   34.7846   88.4553  N     
13   C        41.2533   36.2266   87.2313  C     
14   C        39.8497   37.0275   85.3691  C     
15   O        34.8591   40.8227   88.2052  O     
16   C        41.1107   36.8856   85.9888  C     
17   O        42.9259   34.8895   87.7457  O     
18   O        40.2587   38.8793   84.2071  O     
19   O        36.9654   41.8207   88.3521  O     
20   O        45.0923   35.7853   90.2416  O     
21   O        35.9995   38.4327   82.1994  O     
22   C        35.0650   40.5898   85.4351  C     
23   C        37.3619   41.5267   85.5679  C     
24   C        35.4042   40.4845   83.9190  C     
25   C        37.7905   40.4341   84.5473  C     
26   C        34.4367   40.8264   89.5847  C     
27   C        38.4256   36.1618   82.8817  C     
28   C        42.7789   38.3044   88.6431  C     
29   C        38.3837   37.6682   80.9709  C     
30   C        45.1687   38.3251   88.9315  C     
31   C        46.4505   33.6493   89.1874  C     
32   C        46.2258   34.6728   87.0498  C     
33   C        38.7134   36.4959   86.0307  C     
34   C        40.1033   35.6893   87.8552  C     
35   C        43.8803   38.9310   89.4987  C     
36   C        38.5504   36.1817   81.3507  C     
37   C        38.8391   35.8281   87.2615  C     
38   C        34.3000   42.2867   90.1077  C     
39   C        33.0383   40.1428   89.5874  C     
40   C        35.4262   40.0029   90.4595  C     
41   C        47.3242   32.8401   88.2085  C     
42   C        46.8788   33.3015   86.8190  C     
43   H        45.0745   36.9679   87.2832  H     
44   H        38.9318   39.3381   82.1974  H     
45   H        41.9401   37.2400   85.4984  H     
46   H        34.8288   39.5882   85.7960  H     
47   H        34.1747   41.2092   85.5482  H     
48   H        37.1703   42.4654   85.0381  H     
49   H        38.1980   41.7078   86.2463  H     
50   H        35.4017   41.4897   83.4915  H     
51   H        34.5929   39.9502   83.4298  H     
52   H        38.1969   39.5965   85.1400  H     
53   H        38.5798   40.8742   83.9298  H     
54   H        39.0644   35.3765   83.3001  H     
55   H        37.3879   35.9675   83.1755  H     
56   H        42.6020   38.9275   87.7683  H     
57   H        41.8602   38.2225   89.2250  H     
58   H        37.5192   37.8017   80.3147  H     
59   H        39.2709   37.9989   80.4171  H     
60   H        45.9338   38.2303   89.7057  H     
61   H        45.5626   38.9804   88.1478  H     
62   H        47.0504   33.9607   90.0506  H     
63   H        45.6103   33.0372   89.5343  H     
64   H        45.3042   34.7131   86.4668  H     
65   H        46.8905   35.4772   86.7196  H     
66   H        37.7738   36.6233   85.6428  H     
67   H        40.1747   35.1937   88.7478  H     
68   H        43.8621   40.0167   89.4133  H     
69   H        43.7555   38.6466   90.5435  H     
70   H        39.5422   35.8317   81.0630  H     
71   H        37.7997   35.5493   80.8765  H     
72   H        38.0082   35.4490   87.7305  H     
73   H        35.2695   42.7799   90.1390  H     
74   H        33.8830   42.3012   91.1196  H     
75   H        33.6486   42.8700   89.4558  H     
76   H        32.3443   40.6853   88.9372  H     
77   H        32.6150   40.1190   90.5946  H     
78   H        33.1160   39.1148   89.2245  H     
79   H        35.5817   39.0106   90.0330  H     
80   H        35.0459   39.8873   91.4765  H     
81   H        36.3954   40.4958   90.5210  H     
82   H        48.3780   33.0801   88.3625  H     
83   H        47.1935   31.7633   88.3272  H     
84   H        46.1374   32.6128   86.4173  H     
85   H        47.7190   33.3581   86.1206  H     
@<TRIPOS>BOND
     1    1    3 1
     2    1    8 1
     3    1   28 1
     4    2    4 1
     5    2    9 1
     6    2   27 1
     7    3   13 1
     8    3   17 2
     9    4   14 1
    10    4   18 2
    11    9    5 1
    12    5   11 am
    13    5   21 2
    14    8    6 1
    15    6   12 am
    16    6   20 2
    17    7   10 1
    18    7   15 1
    19    7   19 2
    20    8   30 1
    21    9   29 1
    22   10   22 1
    23   10   23 1
    24   11   24 1
    25   11   25 1
    26   12   31 1
    27   12   32 1
    28   13   16 1
    29   13   34 2
    30   14   16 2
    31   14   33 1
    32   15   26 1
    33   22   24 1
    34   23   25 1
    35   26   38 1
    36   26   39 1
    37   26   40 1
    38   27   36 1
    39   28   35 1
    40   29   36 1
    41   30   35 1
    42   31   41 1
    43   32   42 1
    44   33   37 2
    45   34   37 1
    46   41   42 1
    47    8   43 1
    48    9   44 1
    49   16   45 1
    50   22   46 1
    51   22   47 1
    52   23   48 1
    53   23   49 1
    54   24   50 1
    55   24   51 1
    56   25   52 1
    57   25   53 1
    58   27   54 1
    59   27   55 1
    60   28   56 1
    61   28   57 1
    62   29   58 1
    63   29   59 1
    64   30   60 1
    65   30   61 1
    66   31   62 1
    67   31   63 1
    68   32   64 1
    69   32   65 1
    70   33   66 1
    71   34   67 1
    72   35   68 1
    73   35   69 1
    74   36   70 1
    75   36   71 1
    76   37   72 1
    77   38   73 1
    78   38   74 1
    79   38   75 1
    80   39   76 1
    81   39   77 1
    82   39   78 1
    83   40   79 1
    84   40   80 1
    85   40   81 1
    86   41   82 1
    87   41   83 1
    88   42   84 1
    89   42   85 1
@<TRIPOS>PROPERTY_DATA
  Total_Score	| 6.5216
  Crash		| -4.1666
  Polar		| 2.3523
  FragIndex	| 1
  FragRMSD	| 0.636

