@<TRIPOS>MOLECULE
BindingDB_50037602
 51 53 0 0 0
SMALL
NO_CHARGES


@<TRIPOS>ATOM
1    C        39.5809   37.7540   83.9211  C     
2    N        40.6559   36.9428   86.0117  N     
3    N        39.0706   37.5549   82.6900  N     
4    C        39.6435   36.7393   84.9905  C     
5    C        41.9670   37.1199   85.7394  C     
6    O        40.0685   38.8502   84.1862  O     
7    C        38.2584   36.4434   82.2691  C     
8    O        42.3343   37.0515   84.5706  O     
9    O        36.1175   37.4205   82.0676  O     
10   C        36.8603   36.6330   82.6432  C     
11   C        40.1262   36.8468   87.3409  C     
12   C        39.3200   38.4659   81.6083  C     
13   C        38.3060   36.6565   85.7693  C     
14   C        43.0286   37.2021   86.7418  C     
15   C        45.8722   36.3270   87.6657  C     
16   C        38.7185   36.2510   87.1871  C     
17   C        44.3764   37.8378   86.2517  C     
18   C        38.7265   37.8308   80.3361  C     
19   C        38.4605   36.3780   80.7384  C     
20   C        45.5509   37.7284   87.2626  C     
21   C        46.1357   35.3337   86.6907  C     
22   C        45.9227   35.9607   89.0348  C     
23   C        46.2164   34.6383   89.4151  C     
24   C        46.4212   34.0080   87.0704  C     
25   C        46.4563   33.6580   88.4343  C     
26   H        39.8739   35.7580   84.5570  H     
27   H        38.6187   35.4920   82.6762  H     
28   H        36.4673   36.0530   83.3416  H     
29   H        40.7240   36.1910   87.9860  H     
30   H        40.0757   37.8507   87.7791  H     
31   H        38.8652   39.4394   81.8002  H     
32   H        40.3949   38.6001   81.4865  H     
33   H        37.8014   37.6303   85.8110  H     
34   H        37.6242   35.9185   85.3384  H     
35   H        42.6881   37.7913   87.6051  H     
36   H        43.2249   36.1763   87.0898  H     
37   H        38.7593   35.1582   87.2575  H     
38   H        38.0242   36.6385   87.9429  H     
39   H        44.6866   37.3677   85.3134  H     
40   H        44.1931   38.8961   86.0408  H     
41   H        37.7888   38.3135   80.0677  H     
42   H        39.4019   37.8965   79.4789  H     
43   H        39.3381   35.7699   80.5044  H     
44   H        37.6058   35.9586   80.2051  H     
45   H        45.3040   38.3470   88.1328  H     
46   H        46.4448   38.1652   86.8073  H     
47   H        46.1253   35.5684   85.6976  H     
48   H        45.7437   36.6545   89.7639  H     
49   H        46.2559   34.3873   90.4050  H     
50   H        46.6156   33.2967   86.3600  H     
51   H        46.6699   32.6951   88.7118  H     
@<TRIPOS>BOND
     1    1    3 am
     2    4    1 1
     3    1    6 2
     4    2    4 1
     5    2    5 am
     6    2   11 1
     7    3    7 1
     8    3   12 1
     9    4   13 1
    10    5    8 2
    11    5   14 1
    12    7   10 1
    13    7   19 1
    14    9   10 2
    15   11   16 1
    16   12   18 1
    17   13   16 1
    18   14   17 1
    19   15   20 1
    20   15   21 2
    21   15   22 1
    22   17   20 1
    23   18   19 1
    24   21   24 1
    25   22   23 2
    26   23   25 1
    27   24   25 2
    28    4   26 1
    29    7   27 1
    30   10   28 1
    31   11   29 1
    32   11   30 1
    33   12   31 1
    34   12   32 1
    35   13   33 1
    36   13   34 1
    37   14   35 1
    38   14   36 1
    39   16   37 1
    40   16   38 1
    41   17   39 1
    42   17   40 1
    43   18   41 1
    44   18   42 1
    45   19   43 1
    46   19   44 1
    47   20   45 1
    48   20   46 1
    49   21   47 1
    50   22   48 1
    51   23   49 1
    52   24   50 1
    53   25   51 1
@<TRIPOS>PROPERTY_DATA
  Total_Score	| 8.1623
  Crash		| -2.0269
  Polar		| 3.2177
  FragIndex	| 1
  FragRMSD	| 1.427

