@<TRIPOS>MOLECULE
BindingDB_50037609
 52 55 0 0 0
SMALL
NO_CHARGES


@<TRIPOS>ATOM
1    N        39.1518   37.7804   83.1131  N     
2    C        39.4365   37.2256   84.3060  C     
3    C        36.8044   38.3141   82.6222  C     
4    N        41.1756   37.1931   86.0441  N     
5    C        37.9836   37.4864   82.3150  C     
6    C        40.1086   37.9230   85.4196  C     
7    C        42.4738   37.2638   85.6318  C     
8    C        36.7763   39.4593   83.4158  C     
9    N        37.8250   40.2319   83.7902  N     
10   S        35.3820   40.1401   84.1697  S     
11   O        43.4623   36.8355   86.4691  O     
12   O        38.9269   36.1425   84.5629  O     
13   O        35.7468   37.9794   82.1125  O     
14   C        37.5594   41.2862   84.5932  C     
15   O        42.8101   37.8390   84.4496  O     
16   C        36.2112   41.4351   84.9299  C     
17   C        40.0120   38.7240   82.4544  C     
18   C        40.8261   36.6419   87.3217  C     
19   C        44.8750   36.8498   86.2606  C     
20   C        38.4919   37.7564   80.8718  C     
21   C        39.1687   38.2324   86.6198  C     
22   C        45.4971   36.6077   87.5804  C     
23   C        39.3910   38.9818   81.0651  C     
24   C        39.3642   37.0361   87.5622  C     
25   C        45.7107   37.6777   88.4789  C     
26   C        45.8037   35.2921   87.9927  C     
27   C        46.3017   35.0475   89.2881  C     
28   C        46.2159   37.4331   89.7698  C     
29   C        46.5060   36.1218   90.1772  C     
30   H        37.6984   36.4278   82.3885  H     
31   H        40.4879   38.8924   85.0873  H     
32   H        38.2877   41.9029   84.9419  H     
33   H        35.8031   42.1545   85.5203  H     
34   H        40.0807   39.6678   83.0000  H     
35   H        41.0056   38.2743   82.3432  H     
36   H        40.9431   35.5563   87.3259  H     
37   H        41.4519   37.0703   88.1081  H     
38   H        45.1355   36.0691   85.5429  H     
39   H        45.2081   37.8133   85.8501  H     
40   H        39.1055   36.9146   80.5253  H     
41   H        37.6991   37.9405   80.1454  H     
42   H        39.4881   39.1443   87.1380  H     
43   H        38.1200   38.3597   86.3390  H     
44   H        38.7810   39.8937   81.0852  H     
45   H        40.1302   39.0730   80.2659  H     
46   H        38.6907   36.2226   87.2785  H     
47   H        39.1807   37.2971   88.6092  H     
48   H        45.5002   38.6399   88.2022  H     
49   H        45.6444   34.5041   87.3592  H     
50   H        46.4991   34.0920   89.5897  H     
51   H        46.3710   38.2137   90.4120  H     
52   H        46.8588   35.9419   91.1183  H     
@<TRIPOS>BOND
     1    1    2 am
     2    1    5 1
     3    1   17 1
     4    2    6 1
     5    2   12 2
     6    3    5 1
     7    3    8 1
     8    3   13 2
     9    4    6 1
    10    4    7 1
    11    4   18 1
    12    5   20 1
    13    6   21 1
    14    7   11 1
    15    7   15 2
    16    8    9 2
    17    8   10 1
    18    9   14 1
    19   10   16 1
    20   11   19 1
    21   14   16 2
    22   17   23 1
    23   18   24 1
    24   19   22 1
    25   20   23 1
    26   21   24 1
    27   22   25 2
    28   22   26 1
    29   25   28 1
    30   26   27 2
    31   27   29 1
    32   28   29 2
    33    5   30 1
    34    6   31 1
    35   14   32 1
    36   16   33 1
    37   17   34 1
    38   17   35 1
    39   18   36 1
    40   18   37 1
    41   19   38 1
    42   19   39 1
    43   20   40 1
    44   20   41 1
    45   21   42 1
    46   21   43 1
    47   23   44 1
    48   23   45 1
    49   24   46 1
    50   24   47 1
    51   25   48 1
    52   26   49 1
    53   27   50 1
    54   28   51 1
    55   29   52 1
@<TRIPOS>PROPERTY_DATA
  Total_Score	| 4.0189
  Crash		| -2.9938
  Polar		| 1.4845
  FragIndex	| 1
  FragRMSD	| 1.403

