@<TRIPOS>MOLECULE
BindingDB_50051547
 43 44 0 0 0
SMALL
NO_CHARGES


@<TRIPOS>ATOM
1    N        40.9381   36.7187   85.9910  N     
2    C        42.2721   36.9305   85.8126  C     
3    C        39.8177   37.5122   83.9486  C     
4    C        40.0218   36.4282   84.9191  C     
5    N        39.2570   37.3335   82.7325  N     
6    O        43.0937   37.0708   86.8936  O     
7    O        42.8004   36.9952   84.5642  O     
8    O        40.2282   38.6269   84.2435  O     
9    C        44.5175   37.2788   87.0225  C     
10   C        40.3520   36.6712   87.2924  C     
11   C        38.7182   36.0089   85.6444  C     
12   C        38.6733   36.1079   82.2655  C     
13   C        39.1963   38.3710   81.7388  C     
14   C        38.8395   36.6192   87.0467  C     
15   C        44.8483   37.0759   88.5294  C     
16   C        45.2999   36.2360   86.1723  C     
17   C        44.8891   38.7363   86.6235  C     
18   C        37.9708   36.4522   80.9442  C     
19   C        38.7276   37.6854   80.4414  C     
20   H        40.4194   35.5601   84.3899  H     
21   H        40.6944   35.7741   87.8191  H     
22   H        40.6034   37.5644   87.8770  H     
23   H        37.8055   36.3585   85.1504  H     
24   H        38.6727   34.9211   85.7243  H     
25   H        39.4483   35.3566   82.0970  H     
26   H        37.9413   35.7141   82.9754  H     
27   H        38.4797   39.1362   82.0496  H     
28   H        40.1777   38.8358   81.5773  H     
29   H        38.3295   36.0114   87.8002  H     
30   H        38.4215   37.6303   87.0572  H     
31   H        44.2956   37.7899   89.1521  H     
32   H        45.9216   37.2183   88.7171  H     
33   H        44.5765   36.0636   88.8542  H     
34   H        45.0548   35.2189   86.4948  H     
35   H        46.3792   36.3857   86.2851  H     
36   H        45.0465   36.3254   85.1156  H     
37   H        44.6763   38.9107   85.5710  H     
38   H        45.9522   38.9147   86.7924  H     
39   H        44.3146   39.4512   87.2148  H     
40   H        38.0153   35.6225   80.2291  H     
41   H        36.9238   36.7138   81.1299  H     
42   H        38.0935   38.3340   79.8344  H     
43   H        39.5902   37.3690   79.8474  H     
@<TRIPOS>BOND
     1    1    2 1
     2    1    4 1
     3    1   10 1
     4    2    6 1
     5    2    7 2
     6    4    3 1
     7    3    5 am
     8    3    8 2
     9    4   11 1
    10    5   12 1
    11    5   13 1
    12    6    9 1
    13    9   15 1
    14    9   16 1
    15    9   17 1
    16   10   14 1
    17   11   14 1
    18   12   18 1
    19   13   19 1
    20   18   19 1
    21    4   20 1
    22   10   21 1
    23   10   22 1
    24   11   23 1
    25   11   24 1
    26   12   25 1
    27   12   26 1
    28   13   27 1
    29   13   28 1
    30   14   29 1
    31   14   30 1
    32   15   31 1
    33   15   32 1
    34   15   33 1
    35   16   34 1
    36   16   35 1
    37   16   36 1
    38   17   37 1
    39   17   38 1
    40   17   39 1
    41   18   40 1
    42   18   41 1
    43   19   42 1
    44   19   43 1
@<TRIPOS>PROPERTY_DATA
  Total_Score	| 7.6297
  Crash		| -0.8268
  Polar		| 2.1854
  FragIndex	| 1
  FragRMSD	| 0.479

