@<TRIPOS>MOLECULE
BindingDB_50284126
 51 53 0 0 0
SMALL
NO_CHARGES


@<TRIPOS>ATOM
1    C        39.7063   37.5576   83.9692  C     
2    N        41.1423   37.1154   85.9177  N     
3    N        39.0729   37.2438   82.8218  N     
4    C        40.2670   36.5650   84.9029  C     
5    C        42.3578   37.6335   85.6509  C     
6    O        39.8513   38.7371   84.2701  O     
7    C        38.5157   38.2254   81.9233  C     
8    O        42.7308   37.6759   84.4851  O     
9    O        36.1724   38.3130   82.1166  O     
10   C        37.2649   38.7519   82.4535  C     
11   C        38.8755   35.9037   82.3440  C     
12   C        40.5712   37.0331   87.2348  C     
13   C        39.1638   35.8160   85.7035  C     
14   C        43.2656   38.2812   86.6040  C     
15   C        45.6455   37.7132   89.0666  C     
16   C        39.1270   36.5375   87.0541  C     
17   C        44.7343   37.7437   86.6000  C     
18   C        38.1716   36.0133   80.9799  C     
19   C        38.4135   37.4705   80.5757  C     
20   C        45.1829   36.9556   87.8630  C     
21   C        46.5643   37.0847   89.9486  C     
22   C        45.2332   39.0327   89.3767  C     
23   C        47.0708   37.7483   91.0777  C     
24   C        45.7183   39.6931   90.5221  C     
25   C        46.6441   39.0579   91.3685  C     
26   H        40.8401   35.8204   84.3382  H     
27   H        39.2099   39.0648   81.7737  H     
28   H        37.2903   39.3682   83.2275  H     
29   H        39.8330   35.3973   82.2044  H     
30   H        38.2591   35.3261   83.0370  H     
31   H        41.1441   36.3255   87.8470  H     
32   H        40.5498   38.0140   87.7246  H     
33   H        38.1766   35.8360   85.2362  H     
34   H        39.4507   34.7724   85.8603  H     
35   H        43.2850   39.3512   86.3575  H     
36   H        42.8721   38.2233   87.6217  H     
37   H        38.8162   35.8693   87.8608  H     
38   H        38.4382   37.3848   87.0013  H     
39   H        44.8859   37.0879   85.7439  H     
40   H        45.4217   38.5838   86.4691  H     
41   H        38.5900   35.3197   80.2421  H     
42   H        37.0990   35.8168   81.0844  H     
43   H        37.6238   37.8553   79.9202  H     
44   H        39.3668   37.5389   80.0379  H     
45   H        46.0170   36.3210   87.5359  H     
46   H        44.3765   36.2747   88.1669  H     
47   H        46.8871   36.1297   89.7599  H     
48   H        44.5681   39.5261   88.7795  H     
49   H        47.7423   37.2824   91.6938  H     
50   H        45.4055   40.6464   90.7366  H     
51   H        47.0093   39.5495   92.1902  H     
@<TRIPOS>BOND
     1    1    3 am
     2    4    1 1
     3    1    6 2
     4    2    4 1
     5    2    5 am
     6    2   12 1
     7    3    7 1
     8    3   11 1
     9    4   13 1
    10    5    8 2
    11    5   14 1
    12    7   10 1
    13    7   19 1
    14    9   10 2
    15   11   18 1
    16   12   16 1
    17   13   16 1
    18   14   17 1
    19   15   20 1
    20   15   21 2
    21   15   22 1
    22   17   20 1
    23   18   19 1
    24   21   23 1
    25   22   24 2
    26   23   25 2
    27   24   25 1
    28    4   26 1
    29    7   27 1
    30   10   28 1
    31   11   29 1
    32   11   30 1
    33   12   31 1
    34   12   32 1
    35   13   33 1
    36   13   34 1
    37   14   35 1
    38   14   36 1
    39   16   37 1
    40   16   38 1
    41   17   39 1
    42   17   40 1
    43   18   41 1
    44   18   42 1
    45   19   43 1
    46   19   44 1
    47   20   45 1
    48   20   46 1
    49   21   47 1
    50   22   48 1
    51   23   49 1
    52   24   50 1
    53   25   51 1
@<TRIPOS>PROPERTY_DATA
  Total_Score	| 7.8371
  Crash		| -1.6131
  Polar		| 3.2569
  FragIndex	| 1
  FragRMSD	| 0.279

