@<TRIPOS>MOLECULE
BindingDB_31540
 61 65 0 0 0
SMALL
NO_CHARGES


@<TRIPOS>ATOM
1    C       -12.4981  204.3537  109.2009  C     
2    N       -11.2126  204.7814  109.1675  N     
3    C       -10.4321  204.7841  110.2766  C     
4    N       -10.9577  204.3250  111.4440  N     
5    C       -12.2287  203.8556  111.5479  C     
6    C       -13.0582  203.8608  110.3978  C     
7    C       -14.4653  203.3743  110.4284  C     
8    C       -12.7074  203.3161  112.7654  C     
9    C       -13.9795  202.7628  112.8699  C     
10   C       -14.9511  202.7040  111.7535  C     
11   N        -9.1504  205.1984  110.1576  N     
12   C        -8.2639  205.3525  111.1721  C     
13   C        -8.4934  206.2509  112.2319  C     
14   C        -7.5043  206.4598  113.2140  C     
15   C        -6.2747  205.7466  113.1981  C     
16   C        -6.0712  204.8520  112.1152  C     
17   C        -7.0316  204.6798  111.1043  C     
18   N       -12.1112  203.1588  113.9680  N     
19   N       -12.9240  202.5586  114.7848  N     
20   C       -14.0932  202.2808  114.1746  C     
21   C       -10.7844  203.5328  114.3462  C     
22   C       -15.1541  201.6215  114.7726  C     
23   O       -16.1529  201.3603  114.1114  O     
24   N       -15.1024  201.2847  116.0550  N     
25   N        -5.3115  205.9134  114.1704  N     
26   C        -4.4797  204.8121  114.6414  C     
27   C        -4.5982  204.6646  116.1860  C     
28   N        -4.4162  205.9496  116.9329  N     
29   C        -5.2531  207.0478  116.3550  C     
30   C        -5.0678  207.1839  114.8224  C     
31   C        -2.9863  206.3243  117.1426  C     
32   C       -16.1479  200.6415  116.7809  C     
33   H       -13.0518  204.3826  108.3414  H     
34   H       -15.1103  204.2322  110.2209  H     
35   H       -14.5996  202.6575  109.6104  H     
36   H       -15.8751  203.1925  112.0799  H     
37   H       -15.1834  201.6524  111.5623  H     
38   H        -8.8161  205.3626  109.2608  H     
39   H        -9.3681  206.7756  112.2786  H     
40   H        -7.7234  207.1068  113.9734  H     
41   H        -5.1865  204.3445  112.0165  H     
42   H        -6.8340  204.0474  110.3225  H     
43   H       -10.0582  202.9928  113.7356  H     
44   H       -10.5895  203.2952  115.3957  H     
45   H       -10.6458  204.6062  114.2072  H     
46   H       -14.2936  201.5051  116.5457  H     
47   H        -4.7687  203.8477  114.2123  H     
48   H        -3.4376  204.9929  114.3669  H     
49   H        -5.5925  204.2770  116.4172  H     
50   H        -3.8799  203.9101  116.5328  H     
51   H        -4.7842  205.7766  117.8708  H     
52   H        -6.3038  206.8215  116.5575  H     
53   H        -5.0326  207.9973  116.8385  H     
54   H        -4.0398  207.4902  114.6121  H     
55   H        -5.6993  207.9900  114.4549  H     
56   H        -2.4713  206.5074  116.1983  H     
57   H        -2.4603  205.5232  117.6717  H     
58   H        -2.9151  207.2208  117.7607  H     
59   H       -17.0638  201.2361  116.7397  H     
60   H       -15.8472  200.5407  117.8221  H     
61   H       -16.3393  199.6476  116.3707  H     
@<TRIPOS>BOND
     1    1    2 1
     2    1    6 2
     3    2    3 2
     4    3    4 1
     5    3   11 1
     6    4    5 2
     7    5    6 1
     8    5    8 1
     9    6    7 1
    10    7   10 1
    11    8    9 2
    12    8   18 1
    13    9   10 1
    14    9   20 1
    15   11   12 1
    16   12   13 1
    17   12   17 2
    18   13   14 2
    19   14   15 1
    20   15   16 2
    21   15   25 1
    22   16   17 1
    23   18   19 1
    24   18   21 1
    25   19   20 2
    26   20   22 1
    27   22   23 2
    28   22   24 am
    29   24   32 1
    30   25   26 1
    31   25   30 1
    32   26   27 1
    33   27   28 1
    34   28   29 1
    35   28   31 1
    36   29   30 1
    37    1   33 1
    38    7   34 1
    39    7   35 1
    40   10   36 1
    41   10   37 1
    42   11   38 1
    43   13   39 1
    44   14   40 1
    45   16   41 1
    46   17   42 1
    47   21   43 1
    48   21   44 1
    49   21   45 1
    50   24   46 1
    51   26   47 1
    52   26   48 1
    53   27   49 1
    54   27   50 1
    55   28   51 1
    56   29   52 1
    57   29   53 1
    58   30   54 1
    59   30   55 1
    60   31   56 1
    61   31   57 1
    62   31   58 1
    63   32   59 1
    64   32   60 1
    65   32   61 1
@<TRIPOS>PROPERTY_DATA
  Total_Score	| 8.9603
  Crash		| -0.7322
  Polar		| 2.9403
  FragIndex	| 1
  FragRMSD	| 0.403

