@<TRIPOS>MOLECULE
BindingDB_31547
 62 66 0 0 0
SMALL
NO_CHARGES


@<TRIPOS>ATOM
1    C       -12.5262  204.3987  109.1835  C     
2    N       -11.2248  204.7902  109.2224  N     
3    C       -10.4687  204.8229  110.3539  C     
4    N       -11.0479  204.4252  111.5213  N     
5    C       -12.3478  204.0000  111.5656  C     
6    C       -13.1336  203.9732  110.3825  C     
7    C       -14.5788  203.6061  110.4384  C     
8    C       -12.9434  203.5650  112.7775  C     
9    C       -14.1586  202.8605  112.8105  C     
10   C       -14.9476  202.5516  111.5556  C     
11   N        -9.1840  205.2291  110.2107  N     
12   C        -8.2385  205.4107  111.1789  C     
13   C        -7.0100  204.7236  110.9892  C     
14   C        -5.9861  204.8296  111.9420  C     
15   C        -6.1244  205.7021  113.0716  C     
16   C        -7.3285  206.4598  113.1995  C     
17   C        -8.3925  206.2863  112.2980  C     
18   N       -12.4978  203.6584  114.0540  N     
19   N       -13.3133  203.0379  114.8520  N     
20   C       -14.3337  202.5055  114.1576  C     
21   C       -11.3074  204.3090  114.5226  C     
22   C       -15.2797  201.7291  114.7867  C     
23   O       -15.7169  200.7464  114.2052  O     
24   N       -15.6271  201.9635  116.0470  N     
25   C       -16.4993  202.6376  111.7363  C     
26   C       -14.5443  201.1171  111.0811  C     
27   C       -16.5889  201.2061  116.7858  C     
28   N        -5.1243  205.7893  113.9816  N     
29   C        -4.5545  204.5647  114.5189  C     
30   C        -4.8984  204.5136  116.0356  C     
31   O        -4.4212  205.7083  116.6995  O     
32   C        -5.0107  206.9229  116.1769  C     
33   C        -4.7933  207.0430  114.6392  C     
34   H       -13.0481  204.4268  108.2933  H     
35   H       -15.1132  204.5461  110.6188  H     
36   H       -14.9076  203.2411  109.4584  H     
37   H        -8.9083  205.4244  109.2971  H     
38   H        -6.8911  204.1110  110.1590  H     
39   H        -5.1166  204.2852  111.8094  H     
40   H        -7.4442  207.1070  113.9920  H     
41   H        -9.2666  206.8264  112.4215  H     
42   H       -10.4048  203.9452  114.0118  H     
43   H       -11.1827  204.1907  115.6047  H     
44   H       -11.3772  205.3781  114.3248  H     
45   H       -15.2062  202.7129  116.5020  H     
46   H       -16.7725  203.5530  112.2689  H     
47   H       -16.9086  201.7912  112.2827  H     
48   H       -17.0012  202.6566  110.7641  H     
49   H       -15.0434  200.8614  110.1454  H     
50   H       -14.8117  200.3648  111.8253  H     
51   H       -13.4681  201.0531  110.9126  H     
52   H       -17.5757  201.2789  116.3085  H     
53   H       -16.6561  201.6202  117.7965  H     
54   H       -16.2836  200.1510  116.8448  H     
55   H        -4.9617  203.6602  114.0428  H     
56   H        -3.4667  204.5607  114.3805  H     
57   H        -5.9854  204.4076  116.1631  H     
58   H        -4.4087  203.6487  116.4909  H     
59   H        -6.0862  206.9530  116.3954  H     
60   H        -4.5265  207.7738  116.6669  H     
61   H        -3.7385  207.2711  114.4332  H     
62   H        -5.3896  207.8817  114.2574  H     
@<TRIPOS>BOND
     1    1    2 1
     2    1    6 2
     3    2    3 2
     4    3    4 1
     5    3   11 1
     6    4    5 2
     7    5    6 1
     8    5    8 1
     9    6    7 1
    10    7   10 1
    11    8    9 2
    12    8   18 1
    13    9   10 1
    14    9   20 1
    15   10   25 1
    16   10   26 1
    17   11   12 1
    18   12   13 1
    19   12   17 2
    20   13   14 2
    21   14   15 1
    22   15   16 2
    23   15   28 1
    24   16   17 1
    25   18   19 1
    26   18   21 1
    27   19   20 2
    28   20   22 1
    29   22   23 2
    30   22   24 am
    31   24   27 1
    32   28   29 1
    33   28   33 1
    34   29   30 1
    35   30   31 1
    36   31   32 1
    37   32   33 1
    38    1   34 1
    39    7   35 1
    40    7   36 1
    41   11   37 1
    42   13   38 1
    43   14   39 1
    44   16   40 1
    45   17   41 1
    46   21   42 1
    47   21   43 1
    48   21   44 1
    49   24   45 1
    50   25   46 1
    51   25   47 1
    52   25   48 1
    53   26   49 1
    54   26   50 1
    55   26   51 1
    56   27   52 1
    57   27   53 1
    58   27   54 1
    59   29   55 1
    60   29   56 1
    61   30   57 1
    62   30   58 1
    63   32   59 1
    64   32   60 1
    65   33   61 1
    66   33   62 1
@<TRIPOS>PROPERTY_DATA
  Total_Score	| 10.2172
  Crash		| -0.9122
  Polar		| 2.9317
  FragIndex	| 1
  FragRMSD	| 0.227

