@<TRIPOS>MOLECULE
BindingDB_31544
 64 68 0 0 0
SMALL
NO_CHARGES


@<TRIPOS>ATOM
1    C       -12.4994  204.3481  109.1029  C     
2    N       -11.1964  204.7280  109.0951  N     
3    C       -10.4635  204.7954  110.2335  C     
4    N       -11.0475  204.4446  111.4127  N     
5    C       -12.3460  204.0440  111.4989  C     
6    C       -13.1210  203.9878  110.3160  C     
7    C       -14.5569  203.6141  110.3978  C     
8    C       -12.9004  203.5736  112.7165  C     
9    C       -14.1106  202.8617  112.7572  C     
10   C       -14.8884  202.5372  111.5015  C     
11   N        -9.1610  205.1477  110.1247  N     
12   C        -8.2712  205.3154  111.1416  C     
13   C        -7.0208  204.6701  111.0622  C     
14   C        -6.0652  204.8330  112.0808  C     
15   C        -6.2898  205.7002  113.1836  C     
16   C        -7.5394  206.3754  113.2199  C     
17   C        -8.5195  206.1763  112.2295  C     
18   N       -12.3559  203.5512  113.9518  N     
19   N       -13.0966  202.8234  114.7286  N     
20   C       -14.1663  202.3519  114.0658  C     
21   C       -11.1549  204.1683  114.4146  C     
22   C       -15.0422  201.4717  114.6798  C     
23   O       -16.2322  201.4555  114.4233  O     
24   N       -14.6347  200.6520  115.6275  N     
25   C       -16.4487  202.5508  111.6749  C     
26   C       -14.4319  201.1214  111.0328  C     
27   N        -5.3306  205.8827  114.1583  N     
28   C        -5.1098  207.1646  114.8050  C     
29   C        -5.2349  207.0312  116.3413  C     
30   N        -4.3569  205.9521  116.8911  N     
31   C        -4.5461  204.6610  116.1560  C     
32   C        -4.4597  204.8093  114.6119  C     
33   C        -2.9249  206.3554  117.0443  C     
34   H       -13.0178  204.3320  108.2253  H     
35   H       -15.0857  204.5457  110.6282  H     
36   H       -14.9167  203.2743  109.4214  H     
37   H        -8.8070  205.2518  109.2236  H     
38   H        -6.8054  204.0648  110.2655  H     
39   H        -5.1694  204.3534  111.9715  H     
40   H        -7.7774  206.9901  114.0031  H     
41   H        -9.4055  206.6822  112.2942  H     
42   H       -10.2866  203.7338  113.9179  H     
43   H       -11.0289  204.0374  115.4909  H     
44   H       -11.1812  205.2406  114.2088  H     
45   H       -15.2724  200.0770  116.0728  H     
46   H       -13.6924  200.5990  115.8560  H     
47   H       -16.7614  203.3661  112.3315  H     
48   H       -16.8235  201.6130  112.0828  H     
49   H       -16.9553  202.6856  110.7164  H     
50   H       -14.9195  200.8459  110.0977  H     
51   H       -14.6802  200.3669  111.7842  H     
52   H       -13.3512  201.0966  110.8742  H     
53   H        -4.1006  207.5037  114.5568  H     
54   H        -5.7774  207.9526  114.4652  H     
55   H        -5.0128  207.9910  116.8148  H     
56   H        -6.2724  206.7900  116.5873  H     
57   H        -4.6844  205.7829  117.8482  H     
58   H        -3.8225  203.9148  116.4928  H     
59   H        -5.5358  204.2751  116.4097  H     
60   H        -4.7228  203.8371  114.1860  H     
61   H        -3.4298  205.0267  114.3167  H     
62   H        -2.4506  206.5455  116.0797  H     
63   H        -2.3665  205.5681  117.5555  H     
64   H        -2.8470  207.2582  117.6549  H     
@<TRIPOS>BOND
     1    1    2 1
     2    1    6 2
     3    2    3 2
     4    3    4 1
     5    3   11 1
     6    4    5 2
     7    5    6 1
     8    5    8 1
     9    6    7 1
    10    7   10 1
    11    8    9 2
    12    8   18 1
    13    9   10 1
    14    9   20 1
    15   10   25 1
    16   10   26 1
    17   11   12 1
    18   12   13 1
    19   12   17 2
    20   13   14 2
    21   14   15 1
    22   15   16 2
    23   15   27 1
    24   16   17 1
    25   18   19 1
    26   18   21 1
    27   19   20 2
    28   20   22 1
    29   22   23 2
    30   22   24 am
    31   27   28 1
    32   27   32 1
    33   28   29 1
    34   29   30 1
    35   30   31 1
    36   30   33 1
    37   31   32 1
    38    1   34 1
    39    7   35 1
    40    7   36 1
    41   11   37 1
    42   13   38 1
    43   14   39 1
    44   16   40 1
    45   17   41 1
    46   21   42 1
    47   21   43 1
    48   21   44 1
    49   24   45 1
    50   24   46 1
    51   25   47 1
    52   25   48 1
    53   25   49 1
    54   26   50 1
    55   26   51 1
    56   26   52 1
    57   28   53 1
    58   28   54 1
    59   29   55 1
    60   29   56 1
    61   30   57 1
    62   31   58 1
    63   31   59 1
    64   32   60 1
    65   32   61 1
    66   33   62 1
    67   33   63 1
    68   33   64 1
@<TRIPOS>PROPERTY_DATA
  Total_Score	| 10.4216
  Crash		| -0.7614
  Polar		| 2.8670
  FragIndex	| 1
  FragRMSD	| 0.371

