@<TRIPOS>MOLECULE
BindingDB_31557
 61 64 0 0 0
SMALL
NO_CHARGES


@<TRIPOS>ATOM
1    C       -12.4785  204.2923  109.2027  C     
2    N       -11.1785  204.6822  109.2025  N     
3    C       -10.4292  204.7111  110.3382  C     
4    N       -11.0085  204.3314  111.5186  N     
5    C       -12.3130  203.9410  111.5928  C     
6    C       -13.0969  203.9046  110.4065  C     
7    C       -14.5502  203.6044  110.4827  C     
8    C       -12.9111  203.5091  112.8125  C     
9    C       -14.1389  202.8317  112.8463  C     
10   C       -14.9302  202.5466  111.5918  C     
11   N        -9.1486  205.1410  110.2170  N     
12   C        -8.2215  205.3046  111.2075  C     
13   C        -6.9852  204.6323  111.1082  C     
14   C        -6.0389  204.7131  112.1506  C     
15   C        -6.3091  205.4649  113.3204  C     
16   C        -7.5165  206.1999  113.3792  C     
17   C        -8.4427  206.1468  112.3217  C     
18   N       -12.4864  203.6408  114.0897  N     
19   N       -13.3226  203.0584  114.8905  N     
20   C       -14.3449  202.5247  114.2000  C     
21   C       -11.3019  204.2746  114.5701  C     
22   C       -15.3046  201.7628  114.8340  C     
23   O       -15.7064  200.7515  114.2800  O     
24   N       -15.7028  202.0485  116.0700  N     
25   C       -16.4777  202.6685  111.7986  C     
26   C       -14.5692  201.1120  111.0929  C     
27   C       -16.6721  201.3042  116.8116  C     
28   C        -5.3671  205.4887  114.4719  C     
29   N        -5.4448  204.2058  115.2586  N     
30   C        -4.2730  203.3102  115.0140  C     
31   C        -5.6477  204.4310  116.7207  C     
32   H       -12.9994  204.2961  108.3219  H     
33   H       -15.0387  204.5609  110.7087  H     
34   H       -14.9222  203.2744  109.5067  H     
35   H        -8.8401  205.3145  109.3123  H     
36   H        -6.7855  204.0521  110.2874  H     
37   H        -5.1634  204.1948  112.0561  H     
38   H        -7.7290  206.7714  114.1973  H     
39   H        -9.2893  206.7272  112.3553  H     
40   H       -10.4140  203.7950  114.1467  H     
41   H       -11.2343  204.2185  115.6622  H     
42   H       -11.3176  205.3292  114.2939  H     
43   H       -15.3154  202.8308  116.5000  H     
44   H       -16.7208  203.6040  112.3133  H     
45   H       -16.8888  201.8426  112.3750  H     
46   H       -16.9946  202.6622  110.8345  H     
47   H       -15.1057  200.8759  110.1750  H     
48   H       -14.8229  200.3566  111.8376  H     
49   H       -13.5016  201.0280  110.8842  H     
50   H       -17.6380  201.3425  116.3029  H     
51   H       -16.7784  201.7521  117.8031  H     
52   H       -16.3619  200.2601  116.9251  H     
53   H        -4.3450  205.6799  114.1271  H     
54   H        -5.6334  206.3449  115.0977  H     
55   H        -6.2714  203.6873  114.9401  H     
56   H        -4.2070  203.0603  113.9528  H     
57   H        -4.3800  202.3692  115.5641  H     
58   H        -3.3350  203.7853  115.3210  H     
59   H        -4.8282  205.0099  117.1524  H     
60   H        -5.7242  203.4797  117.2492  H     
61   H        -6.5808  204.9681  116.8841  H     
@<TRIPOS>BOND
     1    1    2 1
     2    1    6 2
     3    2    3 2
     4    3    4 1
     5    3   11 1
     6    4    5 2
     7    5    6 1
     8    5    8 1
     9    6    7 1
    10    7   10 1
    11    8    9 2
    12    8   18 1
    13    9   10 1
    14    9   20 1
    15   10   25 1
    16   10   26 1
    17   11   12 1
    18   12   13 1
    19   12   17 2
    20   13   14 2
    21   14   15 1
    22   15   16 2
    23   15   28 1
    24   16   17 1
    25   18   19 1
    26   18   21 1
    27   19   20 2
    28   20   22 1
    29   22   23 2
    30   22   24 am
    31   24   27 1
    32   28   29 1
    33   29   30 1
    34   29   31 1
    35    1   32 1
    36    7   33 1
    37    7   34 1
    38   11   35 1
    39   13   36 1
    40   14   37 1
    41   16   38 1
    42   17   39 1
    43   21   40 1
    44   21   41 1
    45   21   42 1
    46   24   43 1
    47   25   44 1
    48   25   45 1
    49   25   46 1
    50   26   47 1
    51   26   48 1
    52   26   49 1
    53   27   50 1
    54   27   51 1
    55   27   52 1
    56   28   53 1
    57   28   54 1
    58   29   55 1
    59   30   56 1
    60   30   57 1
    61   30   58 1
    62   31   59 1
    63   31   60 1
    64   31   61 1
@<TRIPOS>PROPERTY_DATA
  Total_Score	| 10.4547
  Crash		| -0.7556
  Polar		| 4.4021
  FragIndex	| 1
  FragRMSD	| 0.201

