@<TRIPOS>MOLECULE
BindingDB_31555
 57 60 0 0 0
SMALL
NO_CHARGES


@<TRIPOS>ATOM
1    C       -12.5544  204.0659  109.0777  C     
2    N       -11.2809  204.5339  109.0414  N     
3    C       -10.5450  204.7125  110.1695  C     
4    N       -11.1046  204.3759  111.3657  N     
5    C       -12.3749  203.9004  111.4830  C     
6    C       -13.1527  203.7421  110.3135  C     
7    C       -14.5853  203.3878  110.4383  C     
8    C       -12.9174  203.5233  112.7382  C     
9    C       -14.1307  202.8244  112.8610  C     
10   C       -14.9345  202.4147  111.6356  C     
11   N        -9.2864  205.1955  110.0372  N     
12   C        -8.4137  205.5479  111.0205  C     
13   C        -8.7724  206.1965  112.2179  C     
14   C        -7.8102  206.5373  113.1834  C     
15   C        -6.4187  206.3003  112.9836  C     
16   C        -6.0725  205.6838  111.7480  C     
17   C        -7.0401  205.3234  110.7916  C     
18   N       -12.3872  203.6389  113.9743  N     
19   N       -13.1551  203.0451  114.8304  N     
20   C       -14.2281  202.5017  114.2280  C     
21   C       -11.1650  204.2628  114.3684  C     
22   C       -15.1298  201.7499  114.9666  C     
23   O       -15.9074  200.9943  114.3999  O     
24   N       -15.1500  201.8121  116.2980  N     
25   C       -14.5171  200.9554  111.2563  C     
26   C       -16.4921  202.5018  111.7990  C     
27   C       -16.0491  201.0867  117.1408  C     
28   N        -5.4714  206.6735  113.9170  N     
29   C        -5.7527  206.6500  115.3463  C     
30   C        -4.1482  207.1354  113.5283  C     
31   H       -13.0815  203.9789  108.2091  H     
32   H       -15.0932  204.3447  110.5923  H     
33   H       -14.9451  202.9719  109.4893  H     
34   H        -8.9566  205.2957  109.1281  H     
35   H        -9.7452  206.4588  112.3794  H     
36   H        -8.1515  207.0125  114.0186  H     
37   H        -5.1014  205.4696  111.5207  H     
38   H        -6.7266  204.8577  109.9260  H     
39   H       -10.3232  203.7778  113.8719  H     
40   H       -11.0072  204.1870  115.4483  H     
41   H       -11.1888  205.3173  114.1022  H     
42   H       -14.5054  202.3923  116.7382  H     
43   H       -15.0449  200.6179  110.3658  H     
44   H       -14.7486  200.2688  112.0737  H     
45   H       -13.4434  200.8937  111.0565  H     
46   H       -16.7619  203.3620  112.4206  H     
47   H       -16.9144  201.5997  112.2446  H     
48   H       -16.9937  202.6061  110.8332  H     
49   H       -17.0795  201.3891  116.9350  H     
50   H       -15.8206  201.3106  118.1882  H     
51   H       -15.9360  200.0122  116.9794  H     
52   H        -6.5359  207.3736  115.5965  H     
53   H        -4.8959  206.8748  115.9839  H     
54   H        -6.0980  205.6482  115.6238  H     
55   H        -3.6008  206.3322  113.0204  H     
56   H        -3.5253  207.4868  114.3451  H     
57   H        -4.2568  207.9789  112.8333  H     
@<TRIPOS>BOND
     1    1    2 1
     2    1    6 2
     3    2    3 2
     4    3    4 1
     5    3   11 1
     6    4    5 2
     7    5    6 1
     8    5    8 1
     9    6    7 1
    10    7   10 1
    11    8    9 2
    12    8   18 1
    13    9   10 1
    14    9   20 1
    15   10   25 1
    16   10   26 1
    17   11   12 1
    18   12   13 1
    19   12   17 2
    20   13   14 2
    21   14   15 1
    22   15   16 2
    23   15   28 1
    24   16   17 1
    25   18   19 1
    26   18   21 1
    27   19   20 2
    28   20   22 1
    29   22   23 2
    30   22   24 am
    31   24   27 1
    32   28   29 1
    33   28   30 1
    34    1   31 1
    35    7   32 1
    36    7   33 1
    37   11   34 1
    38   13   35 1
    39   14   36 1
    40   16   37 1
    41   17   38 1
    42   21   39 1
    43   21   40 1
    44   21   41 1
    45   24   42 1
    46   25   43 1
    47   25   44 1
    48   25   45 1
    49   26   46 1
    50   26   47 1
    51   26   48 1
    52   27   49 1
    53   27   50 1
    54   27   51 1
    55   29   52 1
    56   29   53 1
    57   29   54 1
    58   30   55 1
    59   30   56 1
    60   30   57 1
@<TRIPOS>PROPERTY_DATA
  Total_Score	| 9.9923
  Crash		| -0.4366
  Polar		| 2.7482
  FragIndex	| 1
  FragRMSD	| 0.585

