@<TRIPOS>MOLECULE
BindingDB_31556
 57 60 0 0 0
SMALL
NO_CHARGES


@<TRIPOS>ATOM
1    C       -12.3193  204.2023  109.0907  C     
2    N       -11.0273  204.6106  109.1125  N     
3    C       -10.3335  204.7460  110.2705  C     
4    N       -10.9571  204.4437  111.4452  N     
5    C       -12.2471  204.0102  111.4995  C     
6    C       -12.9772  203.8796  110.2940  C     
7    C       -14.4203  203.5265  110.3408  C     
8    C       -12.8579  203.6149  112.7189  C     
9    C       -14.0461  202.8712  112.7463  C     
10   C       -14.7990  202.5109  111.4889  C     
11   N        -9.0435  205.1441  110.1713  N     
12   C        -8.2089  205.4701  111.1987  C     
13   C        -8.5780  206.3969  112.1964  C     
14   C        -7.6971  206.6945  113.2488  C     
15   C        -6.4647  206.0305  113.3427  C     
16   C        -6.0446  205.1195  112.3381  C     
17   C        -6.9198  204.8956  111.2426  C     
18   N       -12.4659  203.8134  113.9959  N     
19   N       -13.2942  203.2178  114.7933  N     
20   C       -14.2661  202.5905  114.1044  C     
21   C       -11.3407  204.5515  114.4806  C     
22   C       -15.2015  201.7917  114.7412  C     
23   O       -15.6277  200.7964  114.1720  O     
24   N       -15.5406  202.0222  116.0039  N     
25   C       -16.3528  202.5858  111.6651  C     
26   C       -14.3828  201.0745  111.0512  C     
27   C       -16.4323  201.2234  116.7846  C     
28   N        -4.8468  204.4580  112.4546  N     
29   C        -3.9518  204.3663  111.3199  C     
30   C        -4.4740  203.8709  113.7278  C     
31   H       -12.7999  204.1595  108.1955  H     
32   H       -14.9527  204.4722  110.4993  H     
33   H       -14.7420  203.1369  109.3698  H     
34   H        -8.6700  205.1903  109.2751  H     
35   H        -9.4792  206.8781  112.1512  H     
36   H        -7.9570  207.3911  113.9513  H     
37   H        -5.8514  206.2799  114.1177  H     
38   H        -6.6617  204.2307  110.5083  H     
39   H       -10.4106  204.1008  114.1321  H     
40   H       -11.3232  204.5673  115.5728  H     
41   H       -11.3899  205.5817  114.1279  H     
42   H       -15.1577  202.8024  116.4362  H     
43   H       -16.6468  203.5288  112.1313  H     
44   H       -16.7442  201.7718  112.2705  H     
45   H       -16.8511  202.5162  110.6949  H     
46   H       -14.9022  200.7883  110.1343  H     
47   H       -14.6267  200.3386  111.8186  H     
48   H       -13.3096  201.0188  110.8618  H     
49   H       -17.4175  201.1713  116.3164  H     
50   H       -16.5422  201.6751  117.7698  H     
51   H       -16.0337  200.2128  116.9040  H     
52   H        -4.4080  203.8205  110.4954  H     
53   H        -3.0012  203.8738  111.5503  H     
54   H        -3.7124  205.3757  110.9748  H     
55   H        -4.3178  204.6420  114.4832  H     
56   H        -3.5639  203.2641  113.6861  H     
57   H        -5.2788  203.2119  114.0688  H     
@<TRIPOS>BOND
     1    1    2 1
     2    1    6 2
     3    2    3 2
     4    3    4 1
     5    3   11 1
     6    4    5 2
     7    5    6 1
     8    5    8 1
     9    6    7 1
    10    7   10 1
    11    8    9 2
    12    8   18 1
    13    9   10 1
    14    9   20 1
    15   10   25 1
    16   10   26 1
    17   11   12 1
    18   12   13 1
    19   12   17 2
    20   13   14 2
    21   14   15 1
    22   15   16 2
    23   16   17 1
    24   16   28 1
    25   18   19 1
    26   18   21 1
    27   19   20 2
    28   20   22 1
    29   22   23 2
    30   22   24 am
    31   24   27 1
    32   28   29 1
    33   28   30 1
    34    1   31 1
    35    7   32 1
    36    7   33 1
    37   11   34 1
    38   13   35 1
    39   14   36 1
    40   15   37 1
    41   17   38 1
    42   21   39 1
    43   21   40 1
    44   21   41 1
    45   24   42 1
    46   25   43 1
    47   25   44 1
    48   25   45 1
    49   26   46 1
    50   26   47 1
    51   26   48 1
    52   27   49 1
    53   27   50 1
    54   27   51 1
    55   29   52 1
    56   29   53 1
    57   29   54 1
    58   30   55 1
    59   30   56 1
    60   30   57 1
@<TRIPOS>PROPERTY_DATA
  Total_Score	| 9.7003
  Crash		| -0.8827
  Polar		| 2.7747
  FragIndex	| 1
  FragRMSD	| 0.158

