@<TRIPOS>MOLECULE
BindingDB_31543
 46 49 0 0 0
SMALL
NO_CHARGES


@<TRIPOS>ATOM
1    C       -12.6385  204.2896  109.1088  C     
2    N       -11.3463  204.7161  109.0773  N     
3    C       -10.5756  204.7843  110.1911  C     
4    N       -11.1326  204.3737  111.3785  N     
5    C       -12.4143  203.9247  111.5009  C     
6    C       -13.2099  203.8618  110.3281  C     
7    C       -14.6317  203.4318  110.4224  C     
8    C       -12.9428  203.4764  112.7421  C     
9    C       -14.1494  202.7574  112.7941  C     
10   C       -14.9269  202.3795  111.5542  C     
11   N        -9.2923  205.1840  110.0643  N     
12   C        -8.4075  205.3711  111.0806  C     
13   C        -7.1477  204.7252  110.9917  C     
14   C        -6.1769  204.9390  111.9958  C     
15   C        -6.4486  205.8290  113.0562  C     
16   C        -7.6860  206.4876  113.1259  C     
17   C        -8.6670  206.2407  112.1554  C     
18   N       -12.4199  203.4798  113.9936  N     
19   N       -13.1605  202.7745  114.7719  N     
20   C       -14.2417  202.2869  114.1025  C     
21   C       -11.2461  204.1520  114.4835  C     
22   C       -15.1626  201.4306  114.6521  C     
23   O       -16.3594  201.6830  114.5927  O     
24   N       -14.8083  200.4300  115.4537  N     
25   C       -16.4726  202.3308  111.7578  C     
26   C       -14.4548  200.9584  111.1185  C     
27   H       -13.1914  204.2625  108.2493  H     
28   H       -15.1981  204.3453  110.6270  H     
29   H       -14.9892  203.0432  109.4626  H     
30   H        -8.9633  205.3373  109.1605  H     
31   H        -6.9371  204.0954  110.2182  H     
32   H        -5.2887  204.4409  111.9524  H     
33   H        -5.7293  205.9953  113.7692  H     
34   H        -7.8773  207.1336  113.8972  H     
35   H        -9.5695  206.7403  112.2090  H     
36   H       -10.3406  203.7420  114.0413  H     
37   H       -11.1556  204.0493  115.5680  H     
38   H       -11.3036  205.2167  114.2575  H     
39   H       -15.4736  199.8325  115.8033  H     
40   H       -13.8538  200.2724  115.6528  H     
41   H       -16.8113  203.2306  112.2639  H     
42   H       -16.7649  201.4593  112.3380  H     
43   H       -16.9849  202.2736  110.7971  H     
44   H       -14.9866  200.6315  110.2257  H     
45   H       -14.6358  200.2213  111.9075  H     
46   H       -13.3873  200.9486  110.8904  H     
@<TRIPOS>BOND
     1    1    2 1
     2    1    6 2
     3    2    3 2
     4    3    4 1
     5    3   11 1
     6    4    5 2
     7    5    6 1
     8    5    8 1
     9    6    7 1
    10    7   10 1
    11    8    9 2
    12    8   18 1
    13    9   10 1
    14    9   20 1
    15   10   25 1
    16   10   26 1
    17   11   12 1
    18   12   13 1
    19   12   17 2
    20   13   14 2
    21   14   15 1
    22   15   16 2
    23   16   17 1
    24   18   19 1
    25   18   21 1
    26   19   20 2
    27   20   22 1
    28   22   23 2
    29   22   24 am
    30    1   27 1
    31    7   28 1
    32    7   29 1
    33   11   30 1
    34   13   31 1
    35   14   32 1
    36   15   33 1
    37   16   34 1
    38   17   35 1
    39   21   36 1
    40   21   37 1
    41   21   38 1
    42   24   39 1
    43   24   40 1
    44   25   41 1
    45   25   42 1
    46   25   43 1
    47   26   44 1
    48   26   45 1
    49   26   46 1
@<TRIPOS>PROPERTY_DATA
  Total_Score	| 8.7906
  Crash		| -0.5828
  Polar		| 2.8588
  FragIndex	| 1
  FragRMSD	| 0.482

