@<TRIPOS>MOLECULE
BindingDB_31541
 58 62 0 0 0
SMALL
NO_CHARGES


@<TRIPOS>ATOM
1    C       -12.5644  204.6843  109.3434  C     
2    N       -11.2544  205.0353  109.2833  N     
3    C       -10.4138  204.8875  110.3406  C     
4    N       -10.9072  204.3483  111.4841  N     
5    C       -12.1981  203.9525  111.6178  C     
6    C       -13.0878  204.1195  110.5250  C     
7    C       -14.5348  203.7911  110.6359  C     
8    C       -12.6472  203.3482  112.8141  C     
9    C       -13.9393  202.8448  112.9409  C     
10   C       -14.9472  202.9015  111.8540  C     
11   N        -9.1173  205.2344  110.1748  N     
12   C        -8.1154  205.1693  111.0977  C     
13   C        -6.8415  204.7523  110.6584  C     
14   C        -5.7784  204.6123  111.5673  C     
15   C        -5.9672  204.9015  112.9266  C     
16   C        -7.2101  205.3987  113.3764  C     
17   C        -8.2715  205.5441  112.4534  C     
18   N       -11.9981  203.0722  113.9719  N     
19   N       -12.7972  202.4331  114.7710  N     
20   C       -14.0014  202.2468  114.1977  C     
21   C       -10.6455  203.3651  114.3240  C     
22   C       -15.0305  201.5369  114.7880  C     
23   O       -16.0790  201.3101  114.2019  O     
24   N       -14.8917  201.0336  115.9955  N     
25   N        -7.3604  205.7574  114.6791  N     
26   C        -6.7253  206.9537  115.1741  C     
27   C        -8.0670  204.9144  115.6147  C     
28   C        -7.1637  204.5866  116.8299  C     
29   N        -6.5956  205.8448  117.4089  N     
30   C        -5.8229  206.6201  116.3917  C     
31   C        -5.8284  205.5994  118.6599  C     
32   H       -13.1614  204.8469  108.5252  H     
33   H       -15.0737  204.7390  110.7063  H     
34   H       -14.8568  203.3004  109.7133  H     
35   H       -15.8900  203.2827  112.2611  H     
36   H       -15.1192  201.8781  111.5119  H     
37   H        -8.8531  205.4707  109.2766  H     
38   H        -6.6820  204.5246  109.6734  H     
39   H        -4.8704  204.2743  111.2443  H     
40   H        -5.1852  204.7805  113.5774  H     
41   H        -9.1617  205.9262  112.7746  H     
42   H        -9.9577  202.8906  113.6200  H     
43   H       -10.4070  202.9977  115.3251  H     
44   H       -10.4828  204.4432  114.3119  H     
45   H       -15.6061  200.5107  116.3908  H     
46   H       -14.0660  201.1741  116.4879  H     
47   H        -6.1159  207.4536  114.4119  H     
48   H        -7.4933  207.6589  115.4765  H     
49   H        -8.9567  205.4466  115.9739  H     
50   H        -8.4130  203.9890  115.1488  H     
51   H        -7.7819  204.0698  117.5730  H     
52   H        -6.3634  203.9047  116.5230  H     
53   H        -7.3909  206.4372  117.6584  H     
54   H        -4.9335  206.0623  116.0684  H     
55   H        -5.4882  207.5679  116.8309  H     
56   H        -6.4657  205.1135  119.4043  H     
57   H        -5.4805  206.5393  119.0986  H     
58   H        -4.9589  204.9643  118.4750  H     
@<TRIPOS>BOND
     1    1    2 1
     2    1    6 2
     3    2    3 2
     4    3    4 1
     5    3   11 1
     6    4    5 2
     7    5    6 1
     8    5    8 1
     9    6    7 1
    10    7   10 1
    11    8    9 2
    12    8   18 1
    13    9   10 1
    14    9   20 1
    15   11   12 1
    16   12   13 1
    17   12   17 2
    18   13   14 2
    19   14   15 1
    20   15   16 2
    21   16   17 1
    22   16   25 1
    23   18   19 1
    24   18   21 1
    25   19   20 2
    26   20   22 1
    27   22   23 2
    28   22   24 am
    29   25   26 1
    30   25   27 1
    31   26   30 1
    32   27   28 1
    33   28   29 1
    34   29   30 1
    35   29   31 1
    36    1   32 1
    37    7   33 1
    38    7   34 1
    39   10   35 1
    40   10   36 1
    41   11   37 1
    42   13   38 1
    43   14   39 1
    44   15   40 1
    45   17   41 1
    46   21   42 1
    47   21   43 1
    48   21   44 1
    49   24   45 1
    50   24   46 1
    51   26   47 1
    52   26   48 1
    53   27   49 1
    54   27   50 1
    55   28   51 1
    56   28   52 1
    57   29   53 1
    58   30   54 1
    59   30   55 1
    60   31   56 1
    61   31   57 1
    62   31   58 1
@<TRIPOS>PROPERTY_DATA
  Total_Score	| 9.5115
  Crash		| -0.8138
  Polar		| 5.0428
  FragIndex	| 1
  FragRMSD	| 0.647

