@<TRIPOS>MOLECULE
BindingDB_31551
 71 75 0 0 0
SMALL
NO_CHARGES


@<TRIPOS>ATOM
1    C       -12.5411  203.9512  109.1387  C     
2    N       -11.3377  204.5710  109.0468  N     
3    C       -10.5250  204.7080  110.1264  C     
4    N       -10.9269  204.2026  111.3234  N     
5    C       -12.1073  203.5508  111.4877  C     
6    C       -12.9644  203.4077  110.3688  C     
7    C       -14.1823  202.5724  110.4633  C     
8    C       -12.4971  203.0093  112.7374  C     
9    C       -13.7713  202.4674  112.9606  C     
10   C       -14.8439  202.5264  111.8960  C     
11   N        -9.3193  205.2863  109.9329  N     
12   C        -8.3863  205.5385  110.8838  C     
13   C        -8.6034  206.4809  111.9089  C     
14   C        -7.6051  206.7332  112.8742  C     
15   C        -6.3525  206.0945  112.8014  C     
16   C        -6.1428  205.1406  111.7744  C     
17   C        -7.1433  204.8761  110.8268  C     
18   N       -11.8050  202.9441  113.8966  N     
19   N       -12.5732  202.4615  114.8219  N     
20   C       -13.7897  202.1554  114.3331  C     
21   C       -10.4493  203.3210  114.1543  C     
22   C       -14.7780  201.6573  115.1661  C     
23   O       -15.6324  200.8959  114.7323  O     
24   N       -14.7487  201.9080  116.4679  N     
25   C       -15.6530  203.8395  112.1283  C     
26   C       -15.8318  201.3138  111.8900  C     
27   C       -15.7375  201.4868  117.4036  C     
28   C        -5.3139  206.3542  113.8417  C     
29   N        -5.5860  205.8700  115.2497  N     
30   C        -6.7975  205.0028  115.4187  C     
31   C        -5.5494  206.9535  116.2879  C     
32   C        -5.6161  206.3596  117.7208  C     
33   N        -6.8547  205.5401  117.8793  N     
34   C        -6.9187  204.4380  116.8626  C     
35   C        -7.0208  205.0371  119.2820  C     
36   H       -13.1138  203.8545  108.2970  H     
37   H       -14.9216  202.9050  109.7263  H     
38   H       -13.8713  201.5620  110.1770  H     
39   H        -9.0473  205.4611  109.0219  H     
40   H        -9.4864  206.9869  111.9761  H     
41   H        -7.7759  207.4421  113.5877  H     
42   H        -5.2727  204.6070  111.7170  H     
43   H        -6.9694  204.1937  110.0871  H     
44   H        -9.7816  202.7633  113.4935  H     
45   H       -10.1648  203.1069  115.1872  H     
46   H       -10.3224  204.3900  113.9824  H     
47   H       -14.0140  202.4456  116.8106  H     
48   H       -15.0008  204.7135  112.0732  H     
49   H       -16.1317  203.8351  113.1109  H     
50   H       -16.4335  203.9531  111.3737  H     
51   H       -16.3537  201.2375  110.9353  H     
52   H       -16.6154  201.4210  112.6400  H     
53   H       -15.2918  200.3766  112.0576  H     
54   H       -16.7125  201.8910  117.1261  H     
55   H       -15.4740  201.8546  118.3946  H     
56   H       -15.7905  200.3971  117.4322  H     
57   H        -4.3724  205.8833  113.5453  H     
58   H        -5.1144  207.4336  113.8174  H     
59   H        -4.7905  205.2660  115.4798  H     
60   H        -7.7044  205.5873  115.1786  H     
61   H        -6.7385  204.1494  114.7336  H     
62   H        -4.6182  207.5218  116.2076  H     
63   H        -6.3889  207.6477  116.1475  H     
64   H        -4.7247  205.7394  117.8995  H     
65   H        -5.6187  207.1864  118.4388  H     
66   H        -7.6298  206.1962  117.7047  H     
67   H        -7.8902  203.9263  116.9513  H     
68   H        -6.1052  203.7137  117.0503  H     
69   H        -6.1533  204.4301  119.5905  H     
70   H        -7.9289  204.4232  119.3604  H     
71   H        -7.1347  205.8869  119.9705  H     
@<TRIPOS>BOND
     1    1    2 1
     2    1    6 2
     3    2    3 2
     4    3    4 1
     5    3   11 1
     6    4    5 2
     7    5    6 1
     8    5    8 1
     9    6    7 1
    10    7   10 1
    11    8    9 2
    12    8   18 1
    13    9   10 1
    14    9   20 1
    15   10   25 1
    16   10   26 1
    17   11   12 1
    18   12   13 1
    19   12   17 2
    20   13   14 2
    21   14   15 1
    22   15   16 2
    23   15   28 1
    24   16   17 1
    25   18   19 1
    26   18   21 1
    27   19   20 2
    28   20   22 1
    29   22   23 2
    30   22   24 am
    31   24   27 1
    32   28   29 1
    33   29   30 1
    34   29   31 1
    35   30   34 1
    36   31   32 1
    37   32   33 1
    38   33   34 1
    39   33   35 1
    40    1   36 1
    41    7   37 1
    42    7   38 1
    43   11   39 1
    44   13   40 1
    45   14   41 1
    46   16   42 1
    47   17   43 1
    48   21   44 1
    49   21   45 1
    50   21   46 1
    51   24   47 1
    52   25   48 1
    53   25   49 1
    54   25   50 1
    55   26   51 1
    56   26   52 1
    57   26   53 1
    58   27   54 1
    59   27   55 1
    60   27   56 1
    61   28   57 1
    62   28   58 1
    63   29   59 1
    64   30   60 1
    65   30   61 1
    66   31   62 1
    67   31   63 1
    68   32   64 1
    69   32   65 1
    70   33   66 1
    71   34   67 1
    72   34   68 1
    73   35   69 1
    74   35   70 1
    75   35   71 1
@<TRIPOS>PROPERTY_DATA
  Total_Score	| 12.2225
  Crash		| -1.3415
  Polar		| 5.1132
  FragIndex	| 1
  FragRMSD	| 0.759

