@<TRIPOS>MOLECULE
BindingDB_31533
 43 46 0 0 0
SMALL
NO_CHARGES


@<TRIPOS>ATOM
1    C       -12.4523  204.0484  109.0893  C     
2    N       -11.1972  204.5648  109.0552  N     
3    C       -10.4536  204.7005  110.1792  C     
4    N       -10.9860  204.3032  111.3663  N     
5    C       -12.2271  203.7643  111.4776  C     
6    C       -13.0122  203.6092  110.3076  C     
7    C       -14.3626  202.9812  110.3281  C     
8    C       -12.7150  203.3146  112.7277  C     
9    C       -13.9560  202.6994  112.8464  C     
10   C       -14.8787  202.4697  111.7113  C     
11   N        -9.1956  205.1861  110.0668  N     
12   C        -8.3673  205.4475  111.1076  C     
13   C        -8.6898  206.4209  112.0749  C     
14   C        -7.8078  206.6926  113.1324  C     
15   C        -6.5942  205.9894  113.2380  C     
16   C        -6.2578  205.0254  112.2661  C     
17   C        -7.1340  204.7718  111.1912  C     
18   N       -12.1652  203.3299  113.9641  N     
19   N       -12.9786  202.7748  114.8109  N     
20   C       -14.1011  202.3608  114.1929  C     
21   C       -10.8905  203.8455  114.3569  C     
22   C       -15.1508  201.7141  114.8265  C     
23   O       -16.1278  201.3644  114.1755  O     
24   N       -15.0979  201.4720  116.1285  N     
25   C       -16.1139  200.8208  116.8901  C     
26   H       -12.9713  203.9589  108.2160  H     
27   H       -15.0762  203.7094  109.9364  H     
28   H       -14.3465  202.1362  109.6340  H     
29   H       -15.8277  202.9618  111.9415  H     
30   H       -15.0712  201.3943  111.6447  H     
31   H        -8.8457  205.3374  109.1756  H     
32   H        -9.5633  206.9514  112.0011  H     
33   H        -8.0472  207.3974  113.8330  H     
34   H        -5.9572  206.1742  114.0143  H     
35   H        -5.3800  204.5070  112.3407  H     
36   H        -6.8734  204.0799  110.4843  H     
37   H       -10.0951  203.3211  113.8239  H     
38   H       -10.7239  203.7138  115.4292  H     
39   H       -10.8353  204.9113  114.1307  H     
40   H       -14.3048  201.7579  116.6081  H     
41   H       -17.0494  201.3827  116.8365  H     
42   H       -15.7988  200.7683  117.9317  H     
43   H       -16.2758  199.8057  116.5201  H     
@<TRIPOS>BOND
     1    1    2 2
     2    1    6 1
     3    2    3 1
     4    3    4 2
     5    3   11 1
     6    4    5 1
     7    5    6 2
     8    5    8 1
     9    6    7 1
    10    7   10 1
    11    8    9 2
    12    8   18 1
    13    9   10 1
    14    9   20 1
    15   11   12 1
    16   12   13 1
    17   12   17 2
    18   13   14 2
    19   14   15 1
    20   15   16 2
    21   16   17 1
    22   18   19 1
    23   18   21 1
    24   19   20 2
    25   20   22 1
    26   22   23 2
    27   22   24 am
    28   24   25 1
    29    1   26 1
    30    7   27 1
    31    7   28 1
    32   10   29 1
    33   10   30 1
    34   11   31 1
    35   13   32 1
    36   14   33 1
    37   15   34 1
    38   16   35 1
    39   17   36 1
    40   21   37 1
    41   21   38 1
    42   21   39 1
    43   24   40 1
    44   25   41 1
    45   25   42 1
    46   25   43 1
@<TRIPOS>PROPERTY_DATA
  Total_Score	| 7.3674
  Crash		| -0.3983
  Polar		| 2.9215
  FragIndex	| 1
  FragRMSD	| 0.414

