@<TRIPOS>MOLECULE
BindingDB_31558
 61 64 0 0 0
SMALL
NO_CHARGES


@<TRIPOS>ATOM
1    C       -12.5299  204.4289  109.1869  C     
2    N       -11.2291  204.8064  109.1784  N     
3    C       -10.4599  204.7880  110.2973  C     
4    N       -11.0218  204.3728  111.4653  N     
5    C       -12.3244  203.9833  111.5548  C     
6    C       -13.1220  203.9828  110.3844  C     
7    C       -14.5615  203.6208  110.4674  C     
8    C       -12.8896  203.5369  112.7735  C     
9    C       -14.1095  202.8433  112.8233  C     
10   C       -14.9020  202.5428  111.5694  C     
11   N        -9.1633  205.1491  110.1481  N     
12   C        -8.1703  205.1910  111.0833  C     
13   C        -6.8673  204.8819  110.6446  C     
14   C        -5.7866  204.8743  111.5479  C     
15   C        -6.0012  205.1949  112.9010  C     
16   C        -7.2842  205.5702  113.3663  C     
17   C        -8.3584  205.5608  112.4348  C     
18   N       -12.4294  203.6494  114.0433  N     
19   N       -13.2418  203.0425  114.8458  N     
20   C       -14.2733  202.5026  114.1741  C     
21   C       -11.2406  204.2787  114.5120  C     
22   C       -15.2073  201.7158  114.8294  C     
23   O       -15.7508  200.7978  114.2352  O     
24   N       -15.4269  201.8782  116.1279  N     
25   C       -16.4549  202.5995  111.7680  C     
26   C       -14.4896  201.1179  111.0739  C     
27   C       -16.3365  201.1230  116.9215  C     
28   C        -7.5918  205.9423  114.7752  C     
29   N        -6.5254  206.1508  115.8137  N     
30   C        -6.0000  204.8949  116.4411  C     
31   C        -5.4450  207.1106  115.4489  C     
32   H       -13.0666  204.4724  108.3205  H     
33   H       -15.0867  204.5566  110.6896  H     
34   H       -14.9138  203.2830  109.4879  H     
35   H        -8.8792  205.3316  109.2388  H     
36   H        -6.6947  204.6329  109.6701  H     
37   H        -4.8533  204.6090  111.2265  H     
38   H        -5.2115  205.1076  113.5367  H     
39   H        -9.2802  205.8745  112.7421  H     
40   H       -10.3692  203.7880  114.0747  H     
41   H       -11.1574  204.2105  115.6011  H     
42   H       -11.2369  205.3344  114.2342  H     
43   H       -14.9414  202.5872  116.5773  H     
44   H       -16.7412  203.5012  112.3140  H     
45   H       -16.8387  201.7402  112.3045  H     
46   H       -16.9671  202.6075  110.8047  H     
47   H       -14.9860  200.8727  110.1360  H     
48   H       -14.7562  200.3543  111.8053  H     
49   H       -13.4106  201.0601  110.9064  H     
50   H       -17.3542  201.2527  116.5516  H     
51   H       -16.2896  201.4816  117.9515  H     
52   H       -16.0777  200.0621  116.9055  H     
53   H        -8.1659  206.8827  114.7465  H     
54   H        -8.2846  205.1840  115.1621  H     
55   H        -7.0361  206.6324  116.5695  H     
56   H        -6.8105  204.3575  116.9461  H     
57   H        -5.2467  205.1416  117.1982  H     
58   H        -5.5542  204.2318  115.6925  H     
59   H        -4.5653  206.6043  115.0547  H     
60   H        -5.1302  207.6464  116.3441  H     
61   H        -5.7779  207.8505  114.7220  H     
@<TRIPOS>BOND
     1    1    2 1
     2    1    6 2
     3    2    3 2
     4    3    4 1
     5    3   11 1
     6    4    5 2
     7    5    6 1
     8    5    8 1
     9    6    7 1
    10    7   10 1
    11    8    9 2
    12    8   18 1
    13    9   10 1
    14    9   20 1
    15   10   25 1
    16   10   26 1
    17   11   12 1
    18   12   13 1
    19   12   17 2
    20   13   14 2
    21   14   15 1
    22   15   16 2
    23   16   17 1
    24   16   28 1
    25   18   19 1
    26   18   21 1
    27   19   20 2
    28   20   22 1
    29   22   23 2
    30   22   24 am
    31   24   27 1
    32   28   29 1
    33   29   30 1
    34   29   31 1
    35    1   32 1
    36    7   33 1
    37    7   34 1
    38   11   35 1
    39   13   36 1
    40   14   37 1
    41   15   38 1
    42   17   39 1
    43   21   40 1
    44   21   41 1
    45   21   42 1
    46   24   43 1
    47   25   44 1
    48   25   45 1
    49   25   46 1
    50   26   47 1
    51   26   48 1
    52   26   49 1
    53   27   50 1
    54   27   51 1
    55   27   52 1
    56   28   53 1
    57   28   54 1
    58   29   55 1
    59   30   56 1
    60   30   57 1
    61   30   58 1
    62   31   59 1
    63   31   60 1
    64   31   61 1
@<TRIPOS>PROPERTY_DATA
  Total_Score	| 10.8700
  Crash		| -0.6912
  Polar		| 4.5545
  FragIndex	| 1
  FragRMSD	| 1.038

