@<TRIPOS>MOLECULE
BindingDB_31546
 67 71 0 0 0
SMALL
NO_CHARGES


@<TRIPOS>ATOM
1    C       -12.3247  204.4405  109.2741  C     
2    N       -11.0120  204.7725  109.2843  N     
3    C       -10.2569  204.6948  110.4078  C     
4    N       -10.8459  204.2605  111.5607  N     
5    C       -12.1595  203.9041  111.6336  C     
6    C       -12.9469  203.9893  110.4590  C     
7    C       -14.4009  203.7132  110.5030  C     
8    C       -12.7630  203.4293  112.8324  C     
9    C       -14.0347  202.8373  112.8462  C     
10   C       -14.8472  202.6521  111.5822  C     
11   N        -8.9573  205.0333  110.2535  N     
12   C        -7.9263  205.1275  111.1426  C     
13   C        -6.6226  205.0879  110.5811  C     
14   C        -5.4900  205.2608  111.3908  C     
15   C        -5.6329  205.4980  112.7597  C     
16   C        -6.9248  205.5764  113.3676  C     
17   C        -8.0505  205.3263  112.5328  C     
18   N       -12.2790  203.3975  114.0975  N     
19   N       -13.1350  202.8150  114.8712  N     
20   C       -14.2218  202.4203  114.1761  C     
21   C       -11.0141  203.8704  114.5742  C     
22   C       -15.2003  201.6602  114.7921  C     
23   O       -15.8290  200.8435  114.1372  O     
24   N       -15.3609  201.6911  116.1134  N     
25   C       -16.3920  202.8502  111.7651  C     
26   C       -14.5618  201.2178  111.0366  C     
27   C       -16.2861  200.9036  116.8569  C     
28   N        -7.0457  205.9049  114.6837  N     
29   C        -6.3272  207.0326  115.2571  C     
30   C        -7.9103  205.1774  115.6006  C     
31   C        -7.0941  204.7356  116.8495  C     
32   N        -6.3940  205.9021  117.4844  N     
33   C        -5.5169  206.6114  116.5019  C     
34   C        -5.6662  205.5514  118.7379  C     
35   H       -12.8593  204.5472  108.4090  H     
36   H       -14.8623  204.6793  110.7151  H     
37   H       -14.7610  203.4084  109.5142  H     
38   H        -8.7187  205.2507  109.3399  H     
39   H        -6.4933  204.9556  109.5774  H     
40   H        -4.5522  205.2173  110.9724  H     
41   H        -4.7858  205.6119  113.3209  H     
42   H        -8.9853  205.4051  112.9393  H     
43   H       -10.2161  203.3352  114.0537  H     
44   H       -10.9187  203.7109  115.6532  H     
45   H       -10.9365  204.9411  114.3805  H     
46   H       -14.7958  202.3005  116.6134  H     
47   H       -16.5987  203.7765  112.3046  H     
48   H       -16.8657  202.0332  112.3023  H     
49   H       -16.8892  202.9080  110.7939  H     
50   H       -15.0774  201.0548  110.0860  H     
51   H       -14.8978  200.4531  111.7405  H     
52   H       -13.4897  201.0743  110.8669  H     
53   H       -17.3092  201.1375  116.5578  H     
54   H       -16.1668  201.1339  117.9153  H     
55   H       -16.0948  199.8391  116.7027  H     
56   H        -5.6525  207.5263  114.5497  H     
57   H        -7.0717  207.7777  115.5525  H     
58   H        -8.7429  205.8230  115.9011  H     
59   H        -8.3339  204.2701  115.1438  H     
60   H        -7.7844  204.2743  117.5626  H     
61   H        -6.3613  203.9729  116.5571  H     
62   H        -7.1361  206.5617  117.7413  H     
63   H        -4.6859  205.9700  116.1990  H     
64   H        -5.0998  207.5176  116.9537  H     
65   H        -6.3396  205.0484  119.4438  H     
66   H        -5.3026  206.4672  119.2203  H     
67   H        -4.8094  204.8959  118.5346  H     
@<TRIPOS>BOND
     1    1    2 1
     2    1    6 2
     3    2    3 2
     4    3    4 1
     5    3   11 1
     6    4    5 2
     7    5    6 1
     8    5    8 1
     9    6    7 1
    10    7   10 1
    11    8    9 2
    12    8   18 1
    13    9   10 1
    14    9   20 1
    15   10   25 1
    16   10   26 1
    17   11   12 1
    18   12   13 1
    19   12   17 2
    20   13   14 2
    21   14   15 1
    22   15   16 2
    23   16   17 1
    24   16   28 1
    25   18   19 1
    26   18   21 1
    27   19   20 2
    28   20   22 1
    29   22   23 2
    30   22   24 am
    31   24   27 1
    32   28   29 1
    33   28   30 1
    34   29   33 1
    35   30   31 1
    36   31   32 1
    37   32   33 1
    38   32   34 1
    39    1   35 1
    40    7   36 1
    41    7   37 1
    42   11   38 1
    43   13   39 1
    44   14   40 1
    45   15   41 1
    46   17   42 1
    47   21   43 1
    48   21   44 1
    49   21   45 1
    50   24   46 1
    51   25   47 1
    52   25   48 1
    53   25   49 1
    54   26   50 1
    55   26   51 1
    56   26   52 1
    57   27   53 1
    58   27   54 1
    59   27   55 1
    60   29   56 1
    61   29   57 1
    62   30   58 1
    63   30   59 1
    64   31   60 1
    65   31   61 1
    66   32   62 1
    67   33   63 1
    68   33   64 1
    69   34   65 1
    70   34   66 1
    71   34   67 1
@<TRIPOS>PROPERTY_DATA
  Total_Score	| 11.6026
  Crash		| -0.5694
  Polar		| 5.0849
  FragIndex	| 1
  FragRMSD	| 0.507

