@<TRIPOS>MOLECULE
BindingDB_31539
 58 62 0 0 0
SMALL
NO_CHARGES


@<TRIPOS>ATOM
1    C       -12.5655  204.4034  109.2371  C     
2    N       -11.2776  204.8168  109.1506  N     
3    C       -10.4554  204.8324  110.2342  C     
4    N       -10.9462  204.3961  111.4265  N     
5    C       -12.2136  203.9454  111.5820  C     
6    C       -13.0842  203.9313  110.4623  C     
7    C       -14.5008  203.5017  110.5942  C     
8    C       -12.6462  203.4345  112.8298  C     
9    C       -13.8765  202.7985  112.9631  C     
10   C       -14.8160  202.6034  111.8322  C     
11   N        -9.1771  205.2400  110.0881  N     
12   C        -8.2720  205.4008  111.0911  C     
13   C        -7.0468  204.7188  111.0080  C     
14   C        -6.0858  204.8639  112.0226  C     
15   C        -6.2872  205.7425  113.1218  C     
16   C        -7.5104  206.4637  113.1548  C     
17   C        -8.5003  206.2792  112.1691  C     
18   N       -12.0218  203.3491  114.0255  N     
19   N       -12.7778  202.6983  114.8623  N     
20   C       -13.9258  202.3198  114.2726  C     
21   C       -10.7187  203.8231  114.3753  C     
22   C       -14.9003  201.5493  114.8828  C     
23   O       -15.8952  201.1819  114.2823  O     
24   N       -14.7681  201.1410  116.1265  N     
25   N        -5.3339  205.8657  114.1106  N     
26   C        -5.0635  207.1160  114.7957  C     
27   C        -5.3183  206.9543  116.3146  C     
28   N        -4.5570  205.8060  116.9029  N     
29   C        -4.7550  204.5480  116.1140  C     
30   C        -4.5573  204.7304  114.5822  C     
31   C        -3.1267  206.1141  117.1926  C     
32   H       -13.1555  204.4352  108.4030  H     
33   H       -15.1050  204.4099  110.6594  H     
34   H       -14.8035  202.9640  109.6917  H     
35   H       -15.8328  202.8225  112.1658  H     
36   H       -14.7742  201.5491  111.5445  H     
37   H        -8.8478  205.3674  109.1902  H     
38   H        -6.8533  204.0975  110.2199  H     
39   H        -5.2056  204.3591  111.9110  H     
40   H        -7.7250  207.0970  113.9271  H     
41   H        -9.3778  206.8003  112.2271  H     
42   H        -9.9642  203.3099  113.7744  H     
43   H       -10.4965  203.6392  115.4280  H     
44   H       -10.6529  204.8973  114.1941  H     
45   H       -15.4441  200.5673  116.5241  H     
46   H       -13.9873  201.3908  116.6452  H     
47   H        -4.0150  207.3833  114.6345  H     
48   H        -5.6463  207.9572  114.4216  H     
49   H        -5.0760  207.8868  116.8294  H     
50   H        -6.3870  206.7742  116.4658  H     
51   H        -4.9816  205.6334  117.8172  H     
52   H        -4.0897  203.7582  116.4721  H     
53   H        -5.7772  204.1998  116.2896  H     
54   H        -4.8487  203.7863  114.1146  H     
55   H        -3.5001  204.8915  114.3599  H     
56   H        -2.6693  205.2847  117.7372  H     
57   H        -3.0471  207.0005  117.8268  H     
58   H        -2.5543  206.2862  116.2797  H     
@<TRIPOS>BOND
     1    1    2 1
     2    1    6 2
     3    2    3 2
     4    3    4 1
     5    3   11 1
     6    4    5 2
     7    5    6 1
     8    5    8 1
     9    6    7 1
    10    7   10 1
    11    8    9 2
    12    8   18 1
    13    9   10 1
    14    9   20 1
    15   11   12 1
    16   12   13 1
    17   12   17 2
    18   13   14 2
    19   14   15 1
    20   15   16 2
    21   15   25 1
    22   16   17 1
    23   18   19 1
    24   18   21 1
    25   19   20 2
    26   20   22 1
    27   22   23 2
    28   22   24 am
    29   25   26 1
    30   25   30 1
    31   26   27 1
    32   27   28 1
    33   28   29 1
    34   28   31 1
    35   29   30 1
    36    1   32 1
    37    7   33 1
    38    7   34 1
    39   10   35 1
    40   10   36 1
    41   11   37 1
    42   13   38 1
    43   14   39 1
    44   16   40 1
    45   17   41 1
    46   21   42 1
    47   21   43 1
    48   21   44 1
    49   24   45 1
    50   24   46 1
    51   26   47 1
    52   26   48 1
    53   27   49 1
    54   27   50 1
    55   28   51 1
    56   29   52 1
    57   29   53 1
    58   30   54 1
    59   30   55 1
    60   31   56 1
    61   31   57 1
    62   31   58 1
@<TRIPOS>PROPERTY_DATA
  Total_Score	| 8.1977
  Crash		| -0.4847
  Polar		| 2.9669
  FragIndex	| 1
  FragRMSD	| 0.387

