@<TRIPOS>MOLECULE
BindingDB_31552
 71 75 0 0 0
SMALL
NO_CHARGES


@<TRIPOS>ATOM
1    C       -12.4217  204.4323  109.3968  C     
2    N       -11.1001  204.6872  109.2781  N     
3    C       -10.2363  204.4945  110.3030  C     
4    N       -10.7128  203.9724  111.4719  N     
5    C       -12.0280  203.6524  111.6599  C     
6    C       -12.9389  203.9329  110.6099  C     
7    C       -14.4037  203.9163  110.8423  C     
8    C       -12.5240  203.0801  112.8729  C     
9    C       -13.8853  202.7728  113.0545  C     
10   C       -14.9165  202.9299  111.9620  C     
11   N        -8.9606  204.8642  110.0539  N     
12   C        -7.9316  205.0680  110.9204  C     
13   C        -6.6320  204.7606  110.4786  C     
14   C        -5.5024  205.1118  111.2388  C     
15   C        -5.6620  205.8162  112.4417  C     
16   C        -6.9534  206.1590  112.9015  C     
17   C        -8.0793  205.7769  112.1312  C     
18   N       -11.8717  202.6432  113.9805  N     
19   N       -12.7236  202.1573  114.8211  N     
20   C       -13.9713  202.2053  114.3370  C     
21   C       -10.4846  202.4325  114.2482  C     
22   C       -15.0013  201.6434  115.0709  C     
23   O       -15.9538  201.1349  114.5062  O     
24   N       -14.9113  201.5688  116.3920  N     
25   C       -16.2701  203.5203  112.4932  C     
26   C       -15.1507  201.5233  111.3194  C     
27   C       -15.9006  201.0267  117.2624  C     
28   C        -7.1176  206.9590  114.1489  C     
29   N        -7.4615  206.1918  115.3847  N     
30   C        -8.8027  205.5459  115.3363  C     
31   C        -9.1392  204.8728  116.6870  C     
32   N        -8.0763  203.8801  117.0176  N     
33   C        -6.7399  204.5353  117.1392  C     
34   C        -6.3805  205.2496  115.8139  C     
35   C        -8.4099  203.0338  118.1946  C     
36   H       -13.0364  204.6519  108.6099  H     
37   H       -14.6535  204.9478  111.1129  H     
38   H       -14.9243  203.7128  109.8999  H     
39   H        -8.7613  205.0970  109.1330  H     
40   H        -6.4947  204.2918  109.5864  H     
41   H        -4.5664  204.8792  110.9025  H     
42   H        -4.8295  206.0848  112.9755  H     
43   H        -9.0132  206.0724  112.4197  H     
44   H       -10.2114  201.4196  113.9447  H     
45   H       -10.2769  202.5388  115.3178  H     
46   H        -9.8570  203.1293  113.7094  H     
47   H       -14.1190  201.9412  116.8064  H     
48   H       -16.0802  204.3761  113.1449  H     
49   H       -16.8608  202.7978  113.0425  H     
50   H       -16.8975  203.8570  111.6640  H     
51   H       -15.8977  201.5821  110.5278  H     
52   H       -15.5036  200.7944  112.0483  H     
53   H       -14.2236  201.1390  110.8865  H     
54   H       -16.8417  201.5739  117.1513  H     
55   H       -15.5568  201.1277  118.2939  H     
56   H       -16.0665  199.9673  117.0448  H     
57   H        -6.2020  207.5249  114.3531  H     
58   H        -7.8906  207.7142  113.9794  H     
59   H        -7.5465  206.8864  116.1288  H     
60   H        -9.5785  206.2801  115.1142  H     
61   H        -8.8073  204.8019  114.5446  H     
62   H        -9.2151  205.6411  117.4633  H     
63   H       -10.1146  204.3893  116.6066  H     
64   H        -8.0169  203.2522  116.2098  H     
65   H        -6.7406  205.2628  117.9579  H     
66   H        -5.9647  203.7941  117.3469  H     
67   H        -6.2092  204.4868  115.0492  H     
68   H        -5.4464  205.7975  115.9625  H     
69   H        -7.6504  202.2637  118.3326  H     
70   H        -9.3637  202.5239  118.0433  H     
71   H        -8.4705  203.6294  119.1104  H     
@<TRIPOS>BOND
     1    1    2 1
     2    1    6 2
     3    2    3 2
     4    3    4 1
     5    3   11 1
     6    4    5 2
     7    5    6 1
     8    5    8 1
     9    6    7 1
    10    7   10 1
    11    8    9 2
    12    8   18 1
    13    9   10 1
    14    9   20 1
    15   10   25 1
    16   10   26 1
    17   11   12 1
    18   12   13 1
    19   12   17 2
    20   13   14 2
    21   14   15 1
    22   15   16 2
    23   16   17 1
    24   16   28 1
    25   18   19 1
    26   18   21 1
    27   19   20 2
    28   20   22 1
    29   22   23 2
    30   22   24 am
    31   24   27 1
    32   28   29 1
    33   29   30 1
    34   29   34 1
    35   30   31 1
    36   31   32 1
    37   32   33 1
    38   32   35 1
    39   33   34 1
    40    1   36 1
    41    7   37 1
    42    7   38 1
    43   11   39 1
    44   13   40 1
    45   14   41 1
    46   15   42 1
    47   17   43 1
    48   21   44 1
    49   21   45 1
    50   21   46 1
    51   24   47 1
    52   25   48 1
    53   25   49 1
    54   25   50 1
    55   26   51 1
    56   26   52 1
    57   26   53 1
    58   27   54 1
    59   27   55 1
    60   27   56 1
    61   28   57 1
    62   28   58 1
    63   29   59 1
    64   30   60 1
    65   30   61 1
    66   31   62 1
    67   31   63 1
    68   32   64 1
    69   33   65 1
    70   33   66 1
    71   34   67 1
    72   34   68 1
    73   35   69 1
    74   35   70 1
    75   35   71 1
@<TRIPOS>PROPERTY_DATA
  Total_Score	| 13.5754
  Crash		| -1.5974
  Polar		| 6.4194
  FragIndex	| 1
  FragRMSD	| 1.267

