@<TRIPOS>MOLECULE
BindingDB_31545
 67 71 0 0 0
SMALL
NO_CHARGES


@<TRIPOS>ATOM
1    C       -12.5250  204.2856  109.1345  C     
2    N       -11.2311  204.6903  109.1145  N     
3    C       -10.4881  204.7673  110.2456  C     
4    N       -11.0624  204.4181  111.4282  N     
5    C       -12.3540  204.0073  111.5268  C     
6    C       -13.1376  203.9321  110.3533  C     
7    C       -14.5785  203.5797  110.4509  C     
8    C       -12.9088  203.5966  112.7649  C     
9    C       -14.1179  202.8913  112.8319  C     
10   C       -14.9216  202.5480  111.5970  C     
11   N        -9.1968  205.1588  110.1183  N     
12   C        -8.3093  205.3459  111.1318  C     
13   C        -7.0639  204.6870  111.0827  C     
14   C        -6.1313  204.8407  112.1176  C     
15   C        -6.3640  205.7178  113.2134  C     
16   C        -7.5919  206.4387  113.2038  C     
17   C        -8.5515  206.2390  112.2001  C     
18   N       -12.4419  203.7309  114.0247  N     
19   N       -13.2565  203.1538  114.8503  N     
20   C       -14.2801  202.5872  114.1927  C     
21   C       -11.2407  204.3678  114.4585  C     
22   C       -15.2101  201.8177  114.8642  C     
23   O       -15.6622  200.8216  114.3191  O     
24   N       -15.4988  202.0666  116.1362  N     
25   C       -16.4703  202.6352  111.8238  C     
26   C       -14.5310  201.1089  111.1318  C     
27   N        -5.4529  205.8499  114.2314  N     
28   C        -4.6966  204.7194  114.7474  C     
29   C        -4.9202  204.5876  116.2837  C     
30   N        -4.7024  205.8654  117.0372  N     
31   C        -5.4464  207.0042  116.4201  C     
32   C        -5.1901  207.1207  114.8943  C     
33   C        -3.2656  206.1574  117.3160  C     
34   C       -16.4041  201.3033  116.9341  C     
35   H       -13.0510  204.2626  108.2615  H     
36   H       -15.0947  204.5245  110.6480  H     
37   H       -14.9404  203.2096  109.4868  H     
38   H        -8.8544  205.2791  109.2207  H     
39   H        -6.8441  204.0669  110.2983  H     
40   H        -5.2452  204.3326  112.0428  H     
41   H        -7.8258  207.0752  113.9690  H     
42   H        -9.4274  206.7658  112.2365  H     
43   H       -10.3783  203.8405  114.0494  H     
44   H       -11.1592  204.3562  115.5465  H     
45   H       -11.2234  205.4051  114.1221  H     
46   H       -15.0823  202.8360  116.5507  H     
47   H       -16.7288  203.5681  112.3318  H     
48   H       -16.8519  201.8075  112.4168  H     
49   H       -17.0039  202.5996  110.8716  H     
50   H       -15.0519  200.8448  110.2111  H     
51   H       -14.7853  200.3634  111.8866  H     
52   H       -13.4562  201.0398  110.9440  H     
53   H        -4.9957  203.7652  114.3017  H     
54   H        -3.6345  204.8586  114.5383  H     
55   H        -5.9539  204.2683  116.4607  H     
56   H        -4.2793  203.7909  116.6781  H     
57   H        -5.1252  205.7197  117.9567  H     
58   H        -6.5150  206.8471  116.5807  H     
59   H        -5.1832  207.9475  116.9042  H     
60   H        -4.1420  207.3910  114.7229  H     
61   H        -5.7779  207.9504  114.4954  H     
62   H        -2.6994  206.3188  116.3987  H     
63   H        -2.8125  205.3342  117.8653  H     
64   H        -3.1764  207.0517  117.9402  H     
65   H       -17.4028  201.3139  116.4928  H     
66   H       -16.4536  201.7352  117.9322  H     
67   H       -16.0553  200.2705  117.0152  H     
@<TRIPOS>BOND
     1    1    2 1
     2    1    6 2
     3    2    3 2
     4    3    4 1
     5    3   11 1
     6    4    5 2
     7    5    6 1
     8    5    8 1
     9    6    7 1
    10    7   10 1
    11    8    9 2
    12    8   18 1
    13    9   10 1
    14    9   20 1
    15   10   25 1
    16   10   26 1
    17   11   12 1
    18   12   13 1
    19   12   17 2
    20   13   14 2
    21   14   15 1
    22   15   16 2
    23   15   27 1
    24   16   17 1
    25   18   19 1
    26   18   21 1
    27   19   20 2
    28   20   22 1
    29   22   23 2
    30   22   24 am
    31   24   34 1
    32   27   28 1
    33   27   32 1
    34   28   29 1
    35   29   30 1
    36   30   31 1
    37   30   33 1
    38   31   32 1
    39    1   35 1
    40    7   36 1
    41    7   37 1
    42   11   38 1
    43   13   39 1
    44   14   40 1
    45   16   41 1
    46   17   42 1
    47   21   43 1
    48   21   44 1
    49   21   45 1
    50   24   46 1
    51   25   47 1
    52   25   48 1
    53   25   49 1
    54   26   50 1
    55   26   51 1
    56   26   52 1
    57   28   53 1
    58   28   54 1
    59   29   55 1
    60   29   56 1
    61   30   57 1
    62   31   58 1
    63   31   59 1
    64   32   60 1
    65   32   61 1
    66   33   62 1
    67   33   63 1
    68   33   64 1
    69   34   65 1
    70   34   66 1
    71   34   67 1
@<TRIPOS>PROPERTY_DATA
  Total_Score	| 10.5233
  Crash		| -0.7999
  Polar		| 2.9192
  FragIndex	| 1
  FragRMSD	| 0.095

