@<TRIPOS>MOLECULE
BindingDB_50385917
 68 71 0 0 0
SMALL
NO_CHARGES


@<TRIPOS>ATOM
1    C        24.7021   -5.7408   18.8700  C     
2    C        24.6961   -7.0132   18.2689  C     
3    N        25.2124   -8.0525   18.9711  N     
4    C        25.7230   -7.9533   20.2266  C     
5    C        25.7164   -6.6654   20.8246  C     
6    N        25.2116   -5.6206   20.1220  N     
7    C        24.2719   -7.2173   16.9442  C     
8    C        22.9112   -7.4251   16.6258  C     
9    C        22.5264   -7.6990   15.2973  C     
10   C        23.4876   -7.7406   14.2627  C     
11   C        24.8345   -7.4492   14.5823  C     
12   C        25.2286   -7.2117   15.9115  C     
13   C        23.1471   -8.1087   12.8590  C     
14   N        23.5603   -9.4832   12.3998  N     
15   C        23.7600   -9.5443   10.9198  C     
16   C        24.6976  -10.1361   13.1171  C     
17   N        26.1575   -6.4164   22.0731  N     
18   C        26.2429   -9.1269   20.8382  C     
19   C        27.4191   -9.0944   21.6156  C     
20   C        27.9158  -10.2335   22.2947  C     
21   C        27.2561  -11.4852   22.1168  C     
22   C        26.1047  -11.5246   21.2904  C     
23   C        25.6056  -10.3745   20.6617  C     
24   C        27.6869  -12.6738   22.7198  C     
25   O        26.9028  -13.5765   22.9765  O     
26   N        28.9409  -12.9493   23.0147  N     
27   O        29.0408  -10.1277   23.0976  O     
28   C        29.2824   -8.9604   23.9278  C     
29   C        29.6334   -9.4190   25.3202  C     
30   C        30.3342   -8.0445   23.2352  C     
31   C        30.9914   -9.3073   25.7409  C     
32   C        31.3880   -9.6473   27.0439  C     
33   C        30.4453  -10.1344   27.9612  C     
34   C        29.1105  -10.3129   27.5490  C     
35   C        28.6798   -9.9825   26.2375  C     
36   C        27.2595  -10.2859   25.8519  C     
37   F        26.5058  -10.9236   26.8142  F     
38   F        26.5683   -9.1362   25.5448  F     
39   F        27.2494  -11.1372   24.7754  F     
40   H        24.3525   -4.9219   18.3747  H     
41   H        22.1976   -7.4093   17.3632  H     
42   H        21.5459   -7.9098   15.0999  H     
43   H        25.5478   -7.4386   13.8519  H     
44   H        26.2218   -7.0525   16.1140  H     
45   H        22.0624   -8.0408   12.7295  H     
46   H        23.5714   -7.3375   12.2104  H     
47   H        22.7588  -10.0825   12.5988  H     
48   H        22.8958   -9.1320   10.3993  H     
49   H        23.8768  -10.5760   10.5836  H     
50   H        24.6497   -8.9852   10.6158  H     
51   H        25.6144   -9.5490   13.0233  H     
52   H        24.8744  -11.1401   12.7236  H     
53   H        24.4533  -10.2474   14.1761  H     
54   H        26.1384   -5.5147   22.4284  H     
55   H        26.4779   -7.1380   22.6379  H     
56   H        27.9317   -8.2194   21.6956  H     
57   H        25.6056  -12.4066   21.1219  H     
58   H        24.7688  -10.4546   20.0786  H     
59   H        29.1642  -13.8049   23.4182  H     
60   H        29.6490  -12.3141   22.8246  H     
61   H        28.3901   -8.3400   23.9849  H     
62   H        31.2070   -8.6265   22.9316  H     
63   H        30.6531   -7.2467   23.9107  H     
64   H        29.9167   -7.5768   22.3452  H     
65   H        31.7162   -8.9578   25.1007  H     
66   H        32.3683   -9.5382   27.3306  H     
67   H        30.7266  -10.3575   28.9225  H     
68   H        28.4646  -10.6971   28.2430  H     
@<TRIPOS>BOND
     1    1    2 2
     2    1    6 1
     3    2    3 1
     4    2    7 1
     5    3    4 2
     6    4    5 1
     7    4   18 1
     8    5    6 2
     9    5   17 1
    10    7    8 2
    11    7   12 1
    12    8    9 1
    13    9   10 2
    14   10   11 1
    15   10   13 1
    16   11   12 2
    17   13   14 1
    18   14   15 1
    19   14   16 1
    20   18   19 2
    21   18   23 1
    22   19   20 1
    23   20   21 2
    24   20   27 1
    25   21   22 1
    26   21   24 1
    27   22   23 2
    28   24   25 2
    29   24   26 am
    30   27   28 1
    31   28   29 1
    32   28   30 1
    33   29   31 2
    34   29   35 1
    35   31   32 1
    36   32   33 2
    37   33   34 1
    38   34   35 2
    39   35   36 1
    40   36   37 1
    41   36   38 1
    42   36   39 1
    43    1   40 1
    44    8   41 1
    45    9   42 1
    46   11   43 1
    47   12   44 1
    48   13   45 1
    49   13   46 1
    50   14   47 1
    51   15   48 1
    52   15   49 1
    53   15   50 1
    54   16   51 1
    55   16   52 1
    56   16   53 1
    57   17   54 1
    58   17   55 1
    59   19   56 1
    60   22   57 1
    61   23   58 1
    62   26   59 1
    63   26   60 1
    64   28   61 1
    65   30   62 1
    66   30   63 1
    67   30   64 1
    68   31   65 1
    69   32   66 1
    70   33   67 1
    71   34   68 1
@<TRIPOS>PROPERTY_DATA
  Total_Score	| 5.6930
  Crash		| -3.9166
  Polar		| 1.1755
  FragIndex	| 1
  FragRMSD	| 0.900

