@<TRIPOS>MOLECULE
BindingDB_50330576
 50 52 0 0 0
SMALL
NO_CHARGES


@<TRIPOS>ATOM
1    C        24.1649  -10.9850   14.3074  C     
2    O        24.8132   -9.7183   14.0821  O     
3    C        24.1855   -8.6871   14.7353  C     
4    C        24.5812   -8.4340   16.0660  C     
5    C        23.9816   -7.4103   16.8387  C     
6    C        24.4764   -7.0934   18.1442  C     
7    N        24.9810   -8.0971   18.9204  N     
8    C        25.5145   -7.9578   20.1675  C     
9    C        26.0668   -9.0870   20.8504  C     
10   C        27.1594   -8.9577   21.7442  C     
11   C        27.6836  -10.0654   22.4424  C     
12   O        28.7161   -9.8714   23.3238  O     
13   C        28.2765   -9.3146   24.5775  C     
14   C        27.1608  -11.3563   22.2078  C     
15   O        27.7637  -12.4477   22.7822  O     
16   C        26.9961  -13.1324   23.7891  C     
17   C        26.1043  -11.5153   21.2820  C     
18   O        25.5558  -12.7478   21.0564  O     
19   C        26.3405  -13.5732   20.1776  C     
20   C        25.5508  -10.3888   20.6398  C     
21   C        25.5019   -6.6496   20.7016  C     
22   N        25.0402   -5.6258   19.9486  N     
23   C        24.5578   -5.7842   18.6916  C     
24   N        24.2527   -4.6484   18.0387  N     
25   C        22.8895   -6.7247   16.2573  C     
26   C        22.5309   -6.9244   14.9123  C     
27   C        23.2111   -7.8650   14.1058  C     
28   C        22.9284   -7.9493   12.7110  C     
29   O        23.5866   -8.8047   11.8945  O     
30   O        22.1199   -7.0536   12.0929  O     
31   H        24.2477  -11.2932   15.3523  H     
32   H        24.6579  -11.7379   13.6912  H     
33   H        23.1068  -10.9457   14.0188  H     
34   H        25.3446   -8.9936   16.4580  H     
35   H        27.5976   -8.0475   21.8999  H     
36   H        27.7931   -8.3417   24.4404  H     
37   H        29.1534   -9.1697   25.2086  H     
38   H        27.5922   -9.9854   25.0981  H     
39   H        26.7993  -12.4882   24.6458  H     
40   H        27.5789  -13.9861   24.1361  H     
41   H        26.0490  -13.5097   23.3976  H     
42   H        26.4130  -13.1313   19.1800  H     
43   H        25.8448  -14.5399   20.0875  H     
44   H        27.3452  -13.7429   20.5753  H     
45   H        24.7578  -10.5328   20.0126  H     
46   H        25.8422   -6.4429   21.6413  H     
47   H        24.3522   -3.7929   18.4852  H     
48   H        23.9739   -4.6667   17.1114  H     
49   H        22.3501   -6.0481   16.8013  H     
50   H        21.7748   -6.3530   14.5244  H     
@<TRIPOS>BOND
     1    1    2 1
     2    2    3 1
     3    3    4 1
     4    3   27 2
     5    4    5 2
     6    5    6 1
     7    5   25 1
     8    6    7 2
     9    6   23 1
    10    7    8 1
    11    8    9 1
    12    8   21 2
    13    9   10 1
    14    9   20 2
    15   10   11 2
    16   11   12 1
    17   11   14 1
    18   12   13 1
    19   14   15 1
    20   14   17 2
    21   15   16 1
    22   17   18 1
    23   17   20 1
    24   18   19 1
    25   21   22 1
    26   22   23 2
    27   23   24 1
    28   25   26 2
    29   26   27 1
    30   27   28 1
    31   28   29 2
    32   28   30 1
    33    1   31 1
    34    1   32 1
    35    1   33 1
    36    4   34 1
    37   10   35 1
    38   13   36 1
    39   13   37 1
    40   13   38 1
    41   16   39 1
    42   16   40 1
    43   16   41 1
    44   19   42 1
    45   19   43 1
    46   19   44 1
    47   20   45 1
    48   21   46 1
    49   24   47 1
    50   24   48 1
    51   25   49 1
    52   26   50 1
@<TRIPOS>PROPERTY_DATA
  Total_Score	| 10.5070
  Crash		| -0.8079
  Polar		| 6.0866
  FragIndex	| 1
  FragRMSD	| 0.173

