@<TRIPOS>MOLECULE
BindingDB_50330600
 49 51 0 0 0
SMALL
NO_CHARGES


@<TRIPOS>ATOM
1    C        24.7583   -6.1343   18.8569  C     
2    C        24.8170   -7.4353   18.3276  C     
3    N        25.4174   -8.3642   19.1129  N     
4    C        25.9585   -8.2110   20.3607  C     
5    C        25.8401   -6.8737   20.8645  C     
6    N        25.2651   -5.9157   20.0906  N     
7    N        26.1853   -6.3794   22.0678  N     
8    N        26.5572   -9.3351   20.9248  N     
9    C        27.4304   -9.2421   22.0890  C     
10   C        27.8680  -10.5513   22.8083  C     
11   C        28.1584  -11.6992   21.8274  C     
12   C        26.9344  -11.8876   20.9122  C     
13   C        26.6072  -10.5798   20.1505  C     
14   C        24.2967   -7.8083   17.0595  C     
15   C        23.0440   -7.3286   16.6145  C     
16   C        22.5194   -7.7012   15.3569  C     
17   C        23.2292   -8.6143   14.5506  C     
18   C        24.4526   -9.1513   15.0056  C     
19   C        24.9903   -8.7249   16.2357  C     
20   O        25.1340  -10.0714   14.2539  O     
21   C        24.6628  -11.4170   14.4420  C     
22   O        22.6725   -9.0591   13.3810  O     
23   C        23.1800   -8.3924   12.2155  C     
24   O        21.2878   -7.2747   14.9281  O     
25   C        21.0916   -5.8562   14.9563  C     
26   H        24.3477   -5.3564   18.3373  H     
27   H        26.0702   -5.4310   22.2316  H     
28   H        26.4805   -6.9245   22.8038  H     
29   H        28.3223   -8.6821   21.7996  H     
30   H        26.9427   -8.6931   22.8772  H     
31   H        28.7589  -10.3575   23.4130  H     
32   H        27.0744  -10.8738   23.4909  H     
33   H        29.0424  -11.4715   21.2312  H     
34   H        28.3513  -12.6195   22.3826  H     
35   H        27.1371  -12.6887   20.1956  H     
36   H        26.0699  -12.1840   21.5142  H     
37   H        25.6460  -10.7701   19.6586  H     
38   H        27.3595  -10.4502   19.3639  H     
39   H        22.4855   -6.7256   17.2230  H     
40   H        25.8931   -9.1056   16.5325  H     
41   H        24.7761  -11.7390   15.4796  H     
42   H        25.2619  -12.0767   13.8137  H     
43   H        23.6176  -11.5189   14.1420  H     
44   H        22.9920   -7.3162   12.2552  H     
45   H        22.6675   -8.7974   11.3437  H     
46   H        24.2504   -8.5729   12.0923  H     
47   H        20.0800   -5.6506   14.6131  H     
48   H        21.7989   -5.3476   14.2996  H     
49   H        21.1820   -5.4602   15.9640  H     
@<TRIPOS>BOND
     1    1    2 2
     2    1    6 1
     3    2    3 1
     4    2   14 1
     5    3    4 2
     6    4    5 1
     7    4    8 1
     8    5    6 2
     9    5    7 1
    10    8    9 1
    11    8   13 1
    12    9   10 1
    13   10   11 1
    14   11   12 1
    15   12   13 1
    16   14   15 2
    17   14   19 1
    18   15   16 1
    19   16   17 2
    20   16   24 1
    21   17   18 1
    22   17   22 1
    23   18   19 2
    24   18   20 1
    25   20   21 1
    26   22   23 1
    27   24   25 1
    28    1   26 1
    29    7   27 1
    30    7   28 1
    31    9   29 1
    32    9   30 1
    33   10   31 1
    34   10   32 1
    35   11   33 1
    36   11   34 1
    37   12   35 1
    38   12   36 1
    39   13   37 1
    40   13   38 1
    41   15   39 1
    42   19   40 1
    43   21   41 1
    44   21   42 1
    45   21   43 1
    46   23   44 1
    47   23   45 1
    48   23   46 1
    49   25   47 1
    50   25   48 1
    51   25   49 1
@<TRIPOS>PROPERTY_DATA
  Total_Score	| 4.0395
  Crash		| -4.1217
  Polar		| 1.8712
  FragIndex	| 1
  FragRMSD	| 0.625

