@<TRIPOS>MOLECULE
BindingDB_50385918
 68 71 0 0 0
SMALL
NO_CHARGES


@<TRIPOS>ATOM
1    C        25.5743   -6.7707   20.6589  C     
2    C        25.5942   -8.0736   20.1020  C     
3    N        25.0941   -8.1866   18.8335  N     
4    C        24.6076   -7.1622   18.0689  C     
5    C        24.6255   -5.8734   18.6548  C     
6    N        25.1112   -5.7343   19.9206  N     
7    C        26.0666   -9.2331   20.7933  C     
8    C        25.4882  -10.4927   20.5324  C     
9    C        26.0019  -11.6548   21.1163  C     
10   C        27.1017  -11.5840   21.9858  C     
11   C        27.6813  -10.3366   22.3233  C     
12   C        27.1263   -9.1677   21.7431  C     
13   N        24.2539   -4.7506   18.0206  N     
14   C        24.1208   -7.4616   16.7577  C     
15   C        24.8364   -8.2997   15.8755  C     
16   C        24.4041   -8.5518   14.5507  C     
17   C        23.2595   -7.8693   14.0539  C     
18   C        22.5046   -7.0804   14.9551  C     
19   C        22.9162   -6.9018   16.2810  C     
20   C        22.8855   -7.8881   12.7121  C     
21   O        22.2828   -6.9534   12.2039  O     
22   N        23.0772   -8.9223   11.9180  N     
23   O        25.2609   -9.2795   13.7505  O     
24   C        25.4066  -10.7209   13.8615  C     
25   C        26.7667  -11.0594   13.2973  C     
26   C        25.0429  -11.4015   15.2249  C     
27   C        27.7660  -11.4818   14.2158  C     
28   C        29.0668  -11.8045   13.7926  C     
29   C        29.4102  -11.6904   12.4450  C     
30   C        28.4467  -11.2593   11.5171  C     
31   C        27.1280  -10.9295   11.9109  C     
32   C        26.1898  -10.4176   10.8536  C     
33   F        26.7259  -10.2636    9.5936  F     
34   F        25.1241  -11.2650   10.6764  F     
35   F        25.7389   -9.1743   11.2177  F     
36   C        28.8563  -10.3645   23.2490  C     
37   N        29.2194   -9.1974   24.1287  N     
38   C        30.1329   -8.2046   23.4987  C     
39   C        28.0413   -8.5621   24.7668  C     
40   H        25.9100   -6.6059   21.6052  H     
41   H        24.6801  -10.5790   19.9197  H     
42   H        25.5640  -12.5539   20.9274  H     
43   H        27.4549  -12.4494   22.3959  H     
44   H        27.5635   -8.2752   21.9204  H     
45   H        24.3152   -3.8851   18.4669  H     
46   H        23.9601   -4.7959   17.0962  H     
47   H        25.7275   -8.7104   16.1705  H     
48   H        21.6531   -6.5971   14.6441  H     
49   H        22.3262   -6.3315   16.8957  H     
50   H        22.7571   -8.9037   11.0015  H     
51   H        23.4319   -9.7464   12.2696  H     
52   H        24.6702  -11.1526   13.1890  H     
53   H        25.6127  -10.9866   16.0647  H     
54   H        25.2421  -12.4766   15.1658  H     
55   H        23.9863  -11.2614   15.4419  H     
56   H        27.5681  -11.5532   15.2161  H     
57   H        29.7613  -12.1158   14.4738  H     
58   H        30.3590  -11.9045   12.1361  H     
59   H        28.7537  -11.2004   10.5396  H     
60   H        28.7111  -11.2100   23.9377  H     
61   H        29.7459  -10.6096   22.6654  H     
62   H        29.7759   -9.6089   24.8859  H     
63   H        31.1191   -8.6646   23.3596  H     
64   H        30.2772   -7.3245   24.1411  H     
65   H        29.7616   -7.8685   22.5294  H     
66   H        27.6264   -7.8011   24.1069  H     
67   H        28.3600   -8.0741   25.6933  H     
68   H        27.2588   -9.2966   25.0384  H     
@<TRIPOS>BOND
     1    1    2 2
     2    1    6 1
     3    2    3 1
     4    2    7 1
     5    3    4 2
     6    4    5 1
     7    4   14 1
     8    5    6 2
     9    5   13 1
    10    7    8 2
    11    7   12 1
    12    8    9 1
    13    9   10 2
    14   10   11 1
    15   11   12 2
    16   11   36 1
    17   14   15 2
    18   14   19 1
    19   15   16 1
    20   16   17 2
    21   16   23 1
    22   17   18 1
    23   17   20 1
    24   18   19 2
    25   20   21 2
    26   20   22 am
    27   23   24 1
    28   24   25 1
    29   24   26 1
    30   25   27 2
    31   25   31 1
    32   27   28 1
    33   28   29 2
    34   29   30 1
    35   30   31 2
    36   31   32 1
    37   32   33 1
    38   32   34 1
    39   32   35 1
    40   36   37 1
    41   37   38 1
    42   37   39 1
    43    1   40 1
    44    8   41 1
    45    9   42 1
    46   10   43 1
    47   12   44 1
    48   13   45 1
    49   13   46 1
    50   15   47 1
    51   18   48 1
    52   19   49 1
    53   22   50 1
    54   22   51 1
    55   24   52 1
    56   26   53 1
    57   26   54 1
    58   26   55 1
    59   27   56 1
    60   28   57 1
    61   29   58 1
    62   30   59 1
    63   36   60 1
    64   36   61 1
    65   37   62 1
    66   38   63 1
    67   38   64 1
    68   38   65 1
    69   39   66 1
    70   39   67 1
    71   39   68 1
@<TRIPOS>PROPERTY_DATA
  Total_Score	| 10.8157
  Crash		| -2.1185
  Polar		| 4.3273
  FragIndex	| 1
  FragRMSD	| 0.522

