@<TRIPOS>MOLECULE
BindingDB_50330579
 46 48 0 0 0
SMALL
NO_CHARGES


@<TRIPOS>ATOM
1    O        23.4322   -8.7572   11.9269  O     
2    C        22.8782   -7.8195   12.7349  C     
3    O        22.2293   -6.8029   12.1130  O     
4    C        23.1670   -7.7652   14.1119  C     
5    C        24.3486   -8.3616   14.6230  C     
6    C        24.7212   -8.1938   15.9656  C     
7    C        22.3327   -7.0593   15.0161  C     
8    C        22.7146   -6.8936   16.3618  C     
9    C        23.9343   -7.4194   16.8427  C     
10   C        24.3996   -7.1262   18.1416  C     
11   N        24.9152   -8.1329   18.9072  N     
12   C        24.4872   -5.8050   18.6618  C     
13   N        24.1765   -4.6983   17.9653  N     
14   N        24.9755   -5.6259   19.9111  N     
15   C        25.4469   -6.6442   20.6682  C     
16   C        25.4562   -7.9582   20.1477  C     
17   C        26.0410   -9.0629   20.8349  C     
18   C        25.4848  -10.3564   20.7178  C     
19   C        27.2062   -8.9043   21.6236  C     
20   C        27.8098  -10.0011   22.2647  C     
21   O        28.9655   -9.7878   22.9539  O     
22   C        28.7478   -9.1832   24.2632  C     
23   C        27.2695  -11.2983   22.0904  C     
24   O        27.9257  -12.3943   22.5880  O     
25   C        27.2244  -13.0605   23.6638  C     
26   C        26.1108  -11.4707   21.3005  C     
27   O        25.5446  -12.7014   21.1343  O     
28   C        26.2766  -13.5438   20.2262  C     
29   H        24.9760   -8.8768   13.9990  H     
30   H        25.6003   -8.6035   16.2820  H     
31   H        21.4474   -6.6692   14.6974  H     
32   H        22.0972   -6.3672   16.9849  H     
33   H        24.3061   -3.8217   18.3663  H     
34   H        23.8489   -4.7654   17.0582  H     
35   H        25.8059   -6.4284   21.6038  H     
36   H        24.6106  -10.5026   20.2069  H     
37   H        27.6464   -7.9923   21.7341  H     
38   H        28.2378   -8.2057   24.1889  H     
39   H        29.7285   -9.0473   24.7379  H     
40   H        28.1403   -9.8443   24.9082  H     
41   H        27.1373  -12.3944   24.5323  H     
42   H        27.8176  -13.9303   23.9728  H     
43   H        26.2253  -13.4086   23.3426  H     
44   H        26.2799  -13.1389   19.2077  H     
45   H        25.7827  -14.5151   20.2090  H     
46   H        27.3098  -13.6983   20.5530  H     
@<TRIPOS>BOND
     1    1    2 1
     2    2    3 2
     3    2    4 1
     4    4    5 1
     5    4    7 2
     6    5    6 2
     7    6    9 1
     8    7    8 1
     9    8    9 2
    10    9   10 1
    11   10   11 2
    12   10   12 1
    13   11   16 1
    14   12   13 1
    15   12   14 2
    16   14   15 1
    17   15   16 2
    18   16   17 1
    19   17   18 1
    20   17   19 2
    21   18   26 2
    22   19   20 1
    23   20   21 1
    24   20   23 2
    25   21   22 1
    26   23   24 1
    27   23   26 1
    28   24   25 1
    29   26   27 1
    30   27   28 1
    31    5   29 1
    32    6   30 1
    33    7   31 1
    34    8   32 1
    35   13   33 1
    36   13   34 1
    37   15   35 1
    38   18   36 1
    39   19   37 1
    40   22   38 1
    41   22   39 1
    42   22   40 1
    43   25   41 1
    44   25   42 1
    45   25   43 1
    46   28   44 1
    47   28   45 1
    48   28   46 1
@<TRIPOS>PROPERTY_DATA
  Total_Score	| 10.7097
  Crash		| -0.6851
  Polar		| 6.2725
  FragIndex	| 1
  FragRMSD	| 0.632

