@<TRIPOS>MOLECULE
BindingDB_50330594
 54 56 0 0 0
SMALL
NO_CHARGES


@<TRIPOS>ATOM
1    C        25.6903   -6.4900   20.5608  C     
2    C        25.8991   -7.7753   19.9944  C     
3    N        25.5447   -7.9242   18.6895  N     
4    C        24.9823   -6.9500   17.9198  C     
5    C        24.7382   -5.6930   18.5280  C     
6    N        25.1235   -5.5117   19.8135  N     
7    N        24.1603   -4.6695   17.8712  N     
8    N        24.5923   -7.2137   16.6421  N     
9    C        23.4445   -8.0840   16.4989  C     
10   C        22.6958   -7.8774   15.1481  C     
11   C        23.7278   -8.0030   13.9751  C     
12   C        24.9493   -7.0592   14.1944  C     
13   C        25.5884   -7.2758   15.5906  C     
14   C        23.1611   -7.8547   12.6122  C     
15   O        22.4529   -6.7707   12.2406  O     
16   O        23.4424   -8.7615   11.6445  O     
17   C        26.3680   -8.9033   20.7412  C     
18   C        25.8504  -10.1966   20.4915  C     
19   C        26.2126  -11.3113   21.2748  C     
20   C        27.1594  -11.1476   22.3178  C     
21   C        27.6611   -9.8598   22.6021  C     
22   C        27.2980   -8.7626   21.7953  C     
23   O        28.5013   -9.6590   23.6598  O     
24   C        27.8625   -9.0251   24.7825  C     
25   O        27.4891  -12.1980   23.1352  O     
26   C        28.8270  -12.7078   22.9766  C     
27   O        25.5652  -12.4859   20.9431  O     
28   C        26.1533  -13.4097   20.0019  C     
29   C        21.8855   -6.5510   15.2324  C     
30   H        25.9011   -6.2897   21.5388  H     
31   H        24.0653   -3.8074   18.3121  H     
32   H        23.8547   -4.7781   16.9544  H     
33   H        23.8185   -9.1106   16.5358  H     
34   H        22.7308   -7.9783   17.3339  H     
35   H        21.9706   -8.6908   15.0435  H     
36   H        24.1245   -9.0243   14.0225  H     
37   H        25.7031   -7.2579   13.4235  H     
38   H        24.6421   -6.0182   14.0948  H     
39   H        26.3470   -6.5037   15.7396  H     
40   H        26.0875   -8.2502   15.6227  H     
41   H        25.1635  -10.3216   19.7454  H     
42   H        27.7099   -7.8513   22.0100  H     
43   H        27.4563   -8.0484   24.5154  H     
44   H        28.6121   -8.8782   25.5649  H     
45   H        27.0648   -9.6504   25.1901  H     
46   H        29.0150  -13.0303   21.9460  H     
47   H        28.9336  -13.5747   23.6350  H     
48   H        29.5743  -11.9631   23.2693  H     
49   H        25.9450  -13.0834   18.9754  H     
50   H        25.6978  -14.3848   20.1372  H     
51   H        27.2397  -13.4882   20.1643  H     
52   H        21.1478   -6.6246   16.0314  H     
53   H        21.3464   -6.3603   14.3080  H     
54   H        22.5465   -5.7136   15.4425  H     
@<TRIPOS>BOND
     1    1    2 2
     2    1    6 1
     3    2    3 1
     4    2   17 1
     5    3    4 2
     6    4    5 1
     7    4    8 1
     8    5    6 2
     9    5    7 1
    10    8    9 1
    11    8   13 1
    12    9   10 1
    13   10   11 1
    14   10   29 1
    15   11   12 1
    16   11   14 1
    17   12   13 1
    18   14   15 1
    19   14   16 2
    20   17   18 2
    21   17   22 1
    22   18   19 1
    23   19   20 2
    24   19   27 1
    25   20   21 1
    26   20   25 1
    27   21   22 2
    28   21   23 1
    29   23   24 1
    30   25   26 1
    31   27   28 1
    32    1   30 1
    33    7   31 1
    34    7   32 1
    35    9   33 1
    36    9   34 1
    37   10   35 1
    38   11   36 1
    39   12   37 1
    40   12   38 1
    41   13   39 1
    42   13   40 1
    43   18   41 1
    44   22   42 1
    45   24   43 1
    46   24   44 1
    47   24   45 1
    48   26   46 1
    49   26   47 1
    50   26   48 1
    51   28   49 1
    52   28   50 1
    53   28   51 1
    54   29   52 1
    55   29   53 1
    56   29   54 1
@<TRIPOS>PROPERTY_DATA
  Total_Score	| 7.7091
  Crash		| -3.9259
  Polar		| 5.6332
  FragIndex	| 1
  FragRMSD	| 0.614

