@<TRIPOS>MOLECULE
BindingDB_50330607
 47 49 0 0 0
SMALL
NO_CHARGES


@<TRIPOS>ATOM
1    C        25.5528   -6.6349   20.5746  C     
2    C        25.5764   -7.9483   20.0567  C     
3    N        24.9741   -8.1079   18.8417  N     
4    C        24.3773   -7.1464   18.0892  C     
5    C        24.4288   -5.8352   18.6194  C     
6    N        25.0122   -5.6452   19.8305  N     
7    N        24.0761   -4.7262   17.9554  N     
8    N        23.8008   -7.5324   16.9077  N     
9    C        22.5173   -7.0349   16.4761  C     
10   C        22.5203   -6.6982   14.9698  C     
11   C        22.7049   -7.9956   14.1241  C     
12   C        23.8385   -8.9154   14.6984  C     
13   C        24.4866   -8.5019   16.0734  C     
14   C        22.8586   -7.7367   12.6623  C     
15   O        23.4709   -8.6492   11.8755  O     
16   O        22.2801   -6.6879   12.0348  O     
17   C        26.1202   -9.0658   20.7605  C     
18   C        25.6388  -10.3752   20.5172  C     
19   C        26.1391  -11.4874   21.2106  C     
20   C        27.1424  -11.3262   22.1902  C     
21   C        27.6673  -10.0372   22.4249  C     
22   C        27.1659   -8.9317   21.7019  C     
23   O        28.6839   -9.8757   23.3230  O     
24   C        28.2777   -9.1259   24.4924  C     
25   O        27.6829  -12.3921   22.8627  O     
26   C        26.7483  -13.4387   23.2285  C     
27   H        25.9528   -6.3867   21.4824  H     
28   H        24.2065   -3.8603   18.3751  H     
29   H        23.7849   -4.7710   17.0354  H     
30   H        21.7689   -7.8118   16.6467  H     
31   H        22.1617   -6.1639   17.0236  H     
32   H        21.5742   -6.2205   14.6903  H     
33   H        23.3338   -6.0023   14.7535  H     
34   H        21.7642   -8.5564   14.2236  H     
35   H        23.4063   -9.9235   14.8225  H     
36   H        24.6550   -9.0305   13.9713  H     
37   H        25.4726   -8.0808   15.8382  H     
38   H        24.6570   -9.4315   16.6360  H     
39   H        24.8933  -10.5376   19.8363  H     
40   H        25.7808  -12.4203   20.9876  H     
41   H        27.5946   -8.0219   21.8756  H     
42   H        28.0313   -8.0843   24.2347  H     
43   H        29.1131   -9.1141   25.1919  H     
44   H        27.4182   -9.5957   24.9928  H     
45   H        25.8664  -13.0285   23.7498  H     
46   H        27.2562  -14.1294   23.8950  H     
47   H        26.4256  -13.9921   22.3455  H     
@<TRIPOS>BOND
     1    1    2 2
     2    1    6 1
     3    2    3 1
     4    2   17 1
     5    3    4 2
     6    4    5 1
     7    4    8 1
     8    5    6 2
     9    5    7 1
    10    8    9 1
    11    8   13 1
    12    9   10 1
    13   10   11 1
    14   11   12 1
    15   11   14 1
    16   12   13 1
    17   14   15 1
    18   14   16 2
    19   17   18 2
    20   17   22 1
    21   18   19 1
    22   19   20 2
    23   20   21 1
    24   20   25 1
    25   21   22 2
    26   21   23 1
    27   23   24 1
    28   25   26 1
    29    1   27 1
    30    7   28 1
    31    7   29 1
    32    9   30 1
    33    9   31 1
    34   10   32 1
    35   10   33 1
    36   11   34 1
    37   12   35 1
    38   12   36 1
    39   13   37 1
    40   13   38 1
    41   18   39 1
    42   19   40 1
    43   22   41 1
    44   24   42 1
    45   24   43 1
    46   24   44 1
    47   26   45 1
    48   26   46 1
    49   26   47 1
@<TRIPOS>PROPERTY_DATA
  Total_Score	| 9.0514
  Crash		| -2.4053
  Polar		| 5.4798
  FragIndex	| 1
  FragRMSD	| 0.261

