@<TRIPOS>MOLECULE
BindingDB_50330592
 54 56 0 0 0
SMALL
NO_CHARGES


@<TRIPOS>ATOM
1    C        25.4728   -6.6471   20.7595  C     
2    C        25.5874   -7.9251   20.1703  C     
3    N        25.0752   -8.0499   18.9173  N     
4    C        24.4657   -7.0619   18.1947  C     
5    C        24.4128   -5.7850   18.8118  C     
6    N        24.9084   -5.6375   20.0635  N     
7    N        24.0148   -4.6642   18.1905  N     
8    N        23.9564   -7.3862   16.9623  N     
9    C        24.6996   -8.2397   16.0642  C     
10   C        24.7307   -7.6118   14.6353  C     
11   C        23.2924   -7.1670   14.1493  C     
12   C        22.1652   -7.4900   15.1683  C     
13   C        22.6044   -6.9965   16.5780  C     
14   C        22.9317   -7.6637   12.8050  C     
15   O        22.2802   -6.8639   11.9310  O     
16   O        23.2163   -8.9364   12.4224  O     
17   C        26.1391   -9.0448   20.8498  C     
18   C        27.1545   -8.8930   21.8291  C     
19   C        27.6087   -9.9876   22.5931  C     
20   C        27.1141  -11.2848   22.3316  C     
21   C        26.1365  -11.4669   21.3286  C     
22   C        25.6468  -10.3519   20.6155  C     
23   O        25.5830  -12.7053   21.1320  O     
24   C        26.2196  -13.4672   20.0911  C     
25   O        27.4826  -12.3503   23.1075  O     
26   C        28.8076  -12.8458   22.8663  C     
27   O        28.5416   -9.7821   23.5747  O     
28   C        27.9654   -9.2515   24.7863  C     
29   C        25.7468   -6.4340   14.5882  C     
30   H        25.8043   -6.4513   21.7035  H     
31   H        24.0444   -3.8159   18.6600  H     
32   H        23.8041   -4.6715   17.2449  H     
33   H        25.7235   -8.4191   16.4023  H     
34   H        24.2088   -9.2156   16.0260  H     
35   H        25.1372   -8.3853   13.9747  H     
36   H        23.2867   -6.0730   14.0660  H     
37   H        21.2420   -6.9915   14.8816  H     
38   H        21.9846   -8.5627   15.1998  H     
39   H        21.8969   -7.3884   17.3188  H     
40   H        22.4830   -5.9112   16.5631  H     
41   H        27.5604   -7.9729   22.0220  H     
42   H        24.8911  -10.5001   19.9443  H     
43   H        26.0652  -13.0063   19.1104  H     
44   H        25.7682  -14.4605   20.0761  H     
45   H        27.2928  -13.5879   20.2692  H     
46   H        28.9455  -13.1312   21.8210  H     
47   H        28.9538  -13.7285   23.4892  H     
48   H        29.5629  -12.1065   23.1414  H     
49   H        27.4799   -8.2871   24.6157  H     
50   H        28.7691   -9.0948   25.5059  H     
51   H        27.2425   -9.9483   25.2194  H     
52   H        25.4528   -5.6279   15.2589  H     
53   H        25.8049   -6.0467   13.5730  H     
54   H        26.7409   -6.7671   14.8888  H     
@<TRIPOS>BOND
     1    1    2 2
     2    1    6 1
     3    2    3 1
     4    2   17 1
     5    3    4 2
     6    4    5 1
     7    4    8 1
     8    5    6 2
     9    5    7 1
    10    8    9 1
    11    8   13 1
    12    9   10 1
    13   10   11 1
    14   10   29 1
    15   11   12 1
    16   11   14 1
    17   12   13 1
    18   14   15 1
    19   14   16 2
    20   17   18 2
    21   17   22 1
    22   18   19 1
    23   19   20 2
    24   19   27 1
    25   20   21 1
    26   20   25 1
    27   21   22 2
    28   21   23 1
    29   23   24 1
    30   25   26 1
    31   27   28 1
    32    1   30 1
    33    7   31 1
    34    7   32 1
    35    9   33 1
    36    9   34 1
    37   10   35 1
    38   11   36 1
    39   12   37 1
    40   12   38 1
    41   13   39 1
    42   13   40 1
    43   18   41 1
    44   22   42 1
    45   24   43 1
    46   24   44 1
    47   24   45 1
    48   26   46 1
    49   26   47 1
    50   26   48 1
    51   28   49 1
    52   28   50 1
    53   28   51 1
    54   29   52 1
    55   29   53 1
    56   29   54 1
@<TRIPOS>PROPERTY_DATA
  Total_Score	| 10.0939
  Crash		| -2.8028
  Polar		| 6.0437
  FragIndex	| 1
  FragRMSD	| 0.526

