@<TRIPOS>MOLECULE
BindingDB_50330596
 52 54 0 0 0
SMALL
NO_CHARGES


@<TRIPOS>ATOM
1    C        25.4633   -6.7075   20.7194  C     
2    C        25.5071   -8.0057   20.1561  C     
3    N        24.9604   -8.1271   18.9120  N     
4    C        24.4093   -7.1241   18.1700  C     
5    C        24.4330   -5.8292   18.7534  C     
6    N        24.9399   -5.6834   20.0032  N     
7    N        24.0350   -4.7037   18.1329  N     
8    C        23.9337   -7.4152   16.8515  C     
9    C        24.5937   -8.3837   16.0666  C     
10   C        24.2514   -8.6418   14.7131  C     
11   C        23.1931   -7.8945   14.1099  C     
12   C        22.4884   -6.9686   14.9198  C     
13   C        22.8369   -6.7444   16.2634  C     
14   C        22.8199   -7.9940   12.7332  C     
15   O        23.0399   -9.1068   12.0037  O     
16   O        22.2649   -6.9508   12.0689  O     
17   C        26.0916   -9.1341   20.8135  C     
18   C        27.2070   -8.9914   21.6736  C     
19   C        27.7504  -10.0945   22.3674  C     
20   C        27.2058  -11.3781   22.1758  C     
21   C        26.1314  -11.5522   21.2763  C     
22   C        25.5747  -10.4354   20.6216  C     
23   O        25.5703  -12.7838   21.0903  O     
24   C        26.3287  -13.6391   20.2210  C     
25   O        27.7754  -12.4557   22.8040  O     
26   C        27.0013  -13.0064   23.8862  C     
27   O        28.8476   -9.9324   23.1720  O     
28   C        28.5573   -9.2817   24.4199  C     
29   C        25.0537   -9.6910   14.0166  C     
30   C        24.3522  -11.0641   14.1334  C     
31   H        25.8224   -6.5175   21.6549  H     
32   H        24.1006   -3.8549   18.5993  H     
33   H        23.7305   -4.7280   17.2117  H     
34   H        25.3781   -8.8965   16.4821  H     
35   H        21.7015   -6.4292   14.5422  H     
36   H        22.2945   -6.0640   16.8087  H     
37   H        27.6474   -8.0759   21.7988  H     
38   H        24.7757  -10.5895   20.0039  H     
39   H        26.4209  -13.2117   19.2175  H     
40   H        25.8040  -14.5915   20.1341  H     
41   H        27.3230  -13.8404   20.6245  H     
42   H        26.8733  -12.2857   24.6948  H     
43   H        27.5392  -13.8702   24.2852  H     
44   H        26.0239  -13.3525   23.5477  H     
45   H        28.2536   -8.2453   24.2601  H     
46   H        29.4671   -9.2783   25.0257  H     
47   H        27.7771   -9.8041   24.9817  H     
48   H        25.2246   -9.4323   12.9722  H     
49   H        26.0524   -9.7899   14.4604  H     
50   H        24.3081  -11.3749   15.1836  H     
51   H        24.9242  -11.8086   13.5749  H     
52   H        23.3362  -11.0151   13.7311  H     
@<TRIPOS>BOND
     1    1    2 2
     2    1    6 1
     3    2    3 1
     4    2   17 1
     5    3    4 2
     6    4    5 1
     7    4    8 1
     8    5    6 2
     9    5    7 1
    10    8    9 1
    11    8   13 2
    12    9   10 2
    13   10   11 1
    14   10   29 1
    15   11   12 2
    16   11   14 1
    17   12   13 1
    18   14   15 1
    19   14   16 2
    20   17   18 2
    21   17   22 1
    22   18   19 1
    23   19   20 2
    24   19   27 1
    25   20   21 1
    26   20   25 1
    27   21   22 2
    28   21   23 1
    29   23   24 1
    30   25   26 1
    31   27   28 1
    32   29   30 1
    33    1   31 1
    34    7   32 1
    35    7   33 1
    36    9   34 1
    37   12   35 1
    38   13   36 1
    39   18   37 1
    40   22   38 1
    41   24   39 1
    42   24   40 1
    43   24   41 1
    44   26   42 1
    45   26   43 1
    46   26   44 1
    47   28   45 1
    48   28   46 1
    49   28   47 1
    50   29   48 1
    51   29   49 1
    52   30   50 1
    53   30   51 1
    54   30   52 1
@<TRIPOS>PROPERTY_DATA
  Total_Score	| 10.0542
  Crash		| -1.1228
  Polar		| 5.9768
  FragIndex	| 1
  FragRMSD	| 0.625

