@<TRIPOS>MOLECULE
BindingDB_50330578
 51 53 0 0 0
SMALL
NO_CHARGES


@<TRIPOS>ATOM
1    C        24.5158  -11.0788   14.1117  C     
2    O        24.8067   -9.6907   13.9142  O     
3    C        24.1411   -8.8617   14.7736  C     
4    C        24.7239   -8.4752   16.0018  C     
5    C        24.0363   -7.6328   16.9172  C     
6    C        24.6211   -7.2753   18.1727  C     
7    C        24.4475   -6.0539   18.8558  C     
8    N        25.0198   -5.8961   20.0746  N     
9    C        25.7607   -6.8537   20.6929  C     
10   N        26.2654   -6.4588   21.8765  N     
11   C        25.9870   -8.1025   20.0391  C     
12   N        26.6639   -9.2245   20.4817  N     
13   C        27.3673   -9.2477   21.7597  C     
14   C        27.9192  -10.6296   22.2278  C     
15   C        26.9258  -11.8152   21.9887  C     
16   C        27.6670  -13.1094   21.9175  C     
17   O        27.8509  -13.7222   20.7202  O     
18   O        28.5077  -13.4535   22.9246  O     
19   C        26.0038  -11.5826   20.7404  C     
20   C        26.5724  -10.5068   19.7828  C     
21   N        25.3757   -8.1936   18.8212  N     
22   C        22.7486   -7.1863   16.5571  C     
23   C        22.1779   -7.5337   15.3170  C     
24   O        20.9417   -7.0487   14.9938  O     
25   C        20.9457   -5.6057   14.9627  C     
26   C        22.8722   -8.3703   14.4227  C     
27   O        22.2607   -8.7165   13.2475  O     
28   C        23.0225   -8.4334   12.0630  C     
29   H        24.8615  -11.4151   15.0882  H     
30   H        25.0407  -11.6515   13.3523  H     
31   H        23.4450  -11.2830   14.0175  H     
32   H        25.6643   -8.8184   16.2136  H     
33   H        23.9128   -5.2822   18.4624  H     
34   H        26.8566   -7.0119   22.3939  H     
35   H        26.0376   -5.5785   22.2169  H     
36   H        28.2206   -8.5686   21.7288  H     
37   H        26.6716   -8.9146   22.5315  H     
38   H        28.8436  -10.8071   21.6629  H     
39   H        28.1899  -10.5868   23.2912  H     
40   H        26.2681  -11.8864   22.8700  H     
41   H        25.8318  -12.5164   20.1833  H     
42   H        25.0197  -11.2333   21.0820  H     
43   H        25.9636  -10.5074   18.8792  H     
44   H        27.5706  -10.8090   19.4572  H     
45   H        22.1989   -6.5993   17.1892  H     
46   H        21.2460   -5.1695   15.9218  H     
47   H        19.9376   -5.2729   14.7352  H     
48   H        21.6070   -5.2221   14.1842  H     
49   H        23.6244   -7.5256   12.1491  H     
50   H        22.3203   -8.2828   11.2444  H     
51   H        23.6730   -9.2748   11.8114  H     
@<TRIPOS>BOND
     1    1    2 1
     2    2    3 1
     3    3    4 1
     4    3   26 2
     5    4    5 2
     6    5    6 1
     7    5   22 1
     8    6    7 1
     9    6   21 2
    10    7    8 2
    11    8    9 1
    12    9   10 1
    13    9   11 2
    14   11   12 1
    15   11   21 1
    16   12   13 1
    17   12   20 1
    18   13   14 1
    19   14   15 1
    20   15   16 1
    21   15   19 1
    22   16   17 2
    23   16   18 1
    24   19   20 1
    25   22   23 2
    26   23   24 1
    27   23   26 1
    28   24   25 1
    29   26   27 1
    30   27   28 1
    31    1   29 1
    32    1   30 1
    33    1   31 1
    34    4   32 1
    35    7   33 1
    36   10   34 1
    37   10   35 1
    38   13   36 1
    39   13   37 1
    40   14   38 1
    41   14   39 1
    42   15   40 1
    43   19   41 1
    44   19   42 1
    45   20   43 1
    46   20   44 1
    47   22   45 1
    48   25   46 1
    49   25   47 1
    50   25   48 1
    51   28   49 1
    52   28   50 1
    53   28   51 1
@<TRIPOS>PROPERTY_DATA
  Total_Score	| 1.9268
  Crash		| -6.6014
  Polar		| 1.7773
  FragIndex	| 1
  FragRMSD	| 1.486

