@<TRIPOS>MOLECULE
BindingDB_50330577
 49 51 0 0 0
SMALL
NO_CHARGES


@<TRIPOS>ATOM
1    C        25.0711   -9.5974   13.8591  C     
2    C        24.2749   -8.5954   14.6205  C     
3    C        24.6571   -8.3341   15.9621  C     
4    C        23.1810   -7.8725   14.0497  C     
5    C        22.8113   -7.9200   12.6680  C     
6    O        23.1796   -8.9060   11.8227  O     
7    O        22.2332   -6.8573   12.0604  O     
8    C        22.4402   -7.0179   14.9023  C     
9    C        22.8156   -6.8051   16.2374  C     
10   C        23.9771   -7.3982   16.7733  C     
11   C        24.4603   -7.0579   18.0752  C     
12   N        25.0268   -8.0263   18.8527  N     
13   C        24.4578   -5.7444   18.6145  C     
14   N        24.0779   -4.6393   17.9451  N     
15   N        24.9193   -5.5539   19.8729  N     
16   C        25.4300   -6.5476   20.6329  C     
17   C        25.5406   -7.8546   20.1049  C     
18   C        26.1964   -8.9387   20.7793  C     
19   C        26.9315   -8.7323   21.9737  C     
20   C        26.2190  -10.2460   20.2289  C     
21   C        26.9494  -11.2993   20.8268  C     
22   O        27.0697  -12.5109   20.1940  O     
23   C        25.9334  -13.3915   20.2911  C     
24   C        27.7007  -11.0437   21.9970  C     
25   O        28.6047  -11.9329   22.5166  O     
26   C        28.0954  -12.8484   23.4925  C     
27   C        27.6560   -9.7677   22.5893  C     
28   O        28.4020   -9.5021   23.7065  O     
29   C        27.5974   -9.1449   24.8458  C     
30   H        25.8626  -10.0595   14.4538  H     
31   H        25.5440   -9.1199   12.9998  H     
32   H        24.4168  -10.3996   13.5141  H     
33   H        25.4809   -8.8056   16.3454  H     
34   H        21.6185   -6.5134   14.5576  H     
35   H        22.2481   -6.1719   16.8099  H     
36   H        24.1310   -3.7697   18.3735  H     
37   H        23.7827   -4.6991   17.0204  H     
38   H        25.7383   -6.3107   21.5746  H     
39   H        27.0021   -7.8064   22.3961  H     
40   H        25.7303  -10.4368   19.3521  H     
41   H        25.7352  -13.7127   21.3206  H     
42   H        26.1503  -14.2823   19.7022  H     
43   H        25.0361  -12.9260   19.8794  H     
44   H        27.4318  -12.3726   24.2197  H     
45   H        28.9399  -13.2850   24.0256  H     
46   H        27.5725  -13.6517   22.9769  H     
47   H        27.0456   -8.2176   24.6714  H     
48   H        28.2628   -8.9889   25.6941  H     
49   H        26.8979   -9.9413   25.1029  H     
@<TRIPOS>BOND
     1    1    2 1
     2    2    3 1
     3    2    4 2
     4    3   10 2
     5    4    5 1
     6    4    8 1
     7    5    6 2
     8    5    7 1
     9    8    9 2
    10    9   10 1
    11   10   11 1
    12   11   12 2
    13   11   13 1
    14   12   17 1
    15   13   14 1
    16   13   15 2
    17   15   16 1
    18   16   17 2
    19   17   18 1
    20   18   19 1
    21   18   20 2
    22   19   27 2
    23   20   21 1
    24   21   22 1
    25   21   24 2
    26   22   23 1
    27   24   25 1
    28   24   27 1
    29   25   26 1
    30   27   28 1
    31   28   29 1
    32    1   30 1
    33    1   31 1
    34    1   32 1
    35    3   33 1
    36    8   34 1
    37    9   35 1
    38   14   36 1
    39   14   37 1
    40   16   38 1
    41   19   39 1
    42   20   40 1
    43   23   41 1
    44   23   42 1
    45   23   43 1
    46   26   44 1
    47   26   45 1
    48   26   46 1
    49   29   47 1
    50   29   48 1
    51   29   49 1
@<TRIPOS>PROPERTY_DATA
  Total_Score	| 9.7394
  Crash		| -0.8910
  Polar		| 5.0695
  FragIndex	| 1
  FragRMSD	| 0.592

