@<TRIPOS>MOLECULE
BindingDB_50330595
 54 56 0 0 0
SMALL
NO_CHARGES


@<TRIPOS>ATOM
1    C        25.5201   -6.6145   20.6782  C     
2    C        25.5904   -7.9066   20.1134  C     
3    N        25.0714   -8.0398   18.8613  N     
4    C        24.4974   -7.0495   18.1142  C     
5    C        24.4837   -5.7603   18.7060  C     
6    N        24.9837   -5.6017   19.9574  N     
7    N        24.1019   -4.6411   18.0678  N     
8    N        23.9861   -7.3587   16.8784  N     
9    C        24.5697   -8.4479   16.1149  C     
10   C        24.4775   -8.2025   14.5791  C     
11   C        22.9799   -7.9742   14.1773  C     
12   C        22.3736   -6.8028   15.0050  C     
13   C        22.6246   -6.9793   16.5291  C     
14   C        22.8090   -7.8433   12.7068  C     
15   O        22.2634   -6.7524   12.1223  O     
16   O        23.2169   -8.8438   11.8931  O     
17   C        26.1315   -9.0369   20.7958  C     
18   C        27.2081   -8.9115   21.7090  C     
19   C        27.7134  -10.0248   22.4138  C     
20   C        27.1733  -11.3080   22.1788  C     
21   C        26.1351  -11.4618   21.2329  C     
22   C        25.6090  -10.3337   20.5728  C     
23   O        25.5930  -12.6918   20.9756  O     
24   C        26.3727  -13.4661   20.0425  C     
25   O        27.7364  -12.4115   22.7691  O     
26   C        27.0131  -12.9245   23.9001  C     
27   O        28.7773   -9.8814   23.2660  O     
28   C        28.4427   -9.2777   24.5305  C     
29   C        25.4406   -7.0595   14.1465  C     
30   H        25.8574   -6.4192   21.6220  H     
31   H        24.1580   -3.7856   18.5205  H     
32   H        23.8204   -4.6709   17.1409  H     
33   H        25.6263   -8.5985   16.3683  H     
34   H        24.0557   -9.3781   16.3638  H     
35   H        24.8295   -9.1153   14.0886  H     
36   H        22.4216   -8.8738   14.4532  H     
37   H        22.8030   -5.8565   14.6802  H     
38   H        21.2957   -6.7457   14.8303  H     
39   H        21.9670   -7.7723   16.8849  H     
40   H        22.2852   -6.0704   17.0252  H     
41   H        27.6517   -8.0032   21.8615  H     
42   H        24.8295  -10.4720   19.9273  H     
43   H        26.4748  -12.9557   19.0780  H     
44   H        25.8627  -14.4156   19.8753  H     
45   H        27.3692  -13.6766   20.4438  H     
46   H        26.9733  -12.1948   24.7106  H     
47   H        27.5398  -13.8064   24.2636  H     
48   H        25.9983  -13.2241   23.6296  H     
49   H        28.0938   -8.2500   24.4056  H     
50   H        29.3441   -9.2570   25.1408  H     
51   H        27.6830   -9.8518   25.0633  H     
52   H        25.1792   -6.1147   14.6177  H     
53   H        25.4235   -6.9254   13.0646  H     
54   H        26.4609   -7.3018   14.4397  H     
@<TRIPOS>BOND
     1    1    2 2
     2    1    6 1
     3    2    3 1
     4    2   17 1
     5    3    4 2
     6    4    5 1
     7    4    8 1
     8    5    6 2
     9    5    7 1
    10    8    9 1
    11    8   13 1
    12    9   10 1
    13   10   11 1
    14   10   29 1
    15   11   12 1
    16   11   14 1
    17   12   13 1
    18   14   15 1
    19   14   16 2
    20   17   18 2
    21   17   22 1
    22   18   19 1
    23   19   20 2
    24   19   27 1
    25   20   21 1
    26   20   25 1
    27   21   22 2
    28   21   23 1
    29   23   24 1
    30   25   26 1
    31   27   28 1
    32    1   30 1
    33    7   31 1
    34    7   32 1
    35    9   33 1
    36    9   34 1
    37   10   35 1
    38   11   36 1
    39   12   37 1
    40   12   38 1
    41   13   39 1
    42   13   40 1
    43   18   41 1
    44   22   42 1
    45   24   43 1
    46   24   44 1
    47   24   45 1
    48   26   46 1
    49   26   47 1
    50   26   48 1
    51   28   49 1
    52   28   50 1
    53   28   51 1
    54   29   52 1
    55   29   53 1
    56   29   54 1
@<TRIPOS>PROPERTY_DATA
  Total_Score	| 8.1986
  Crash		| -3.7685
  Polar		| 6.1177
  FragIndex	| 1
  FragRMSD	| 0.107

