@<TRIPOS>MOLECULE
BindingDB_50330598
 53 55 0 0 0
SMALL
NO_CHARGES


@<TRIPOS>ATOM
1    C        25.5684   -6.6309   20.6099  C     
2    C        25.6532   -7.9446   20.0915  C     
3    N        25.1006   -8.1370   18.8602  N     
4    C        24.4638   -7.1949   18.1035  C     
5    C        24.4138   -5.8855   18.6576  C     
6    N        24.9619   -5.6669   19.8798  N     
7    N        23.9510   -4.8047   18.0091  N     
8    N        23.9132   -7.5751   16.9062  N     
9    C        22.5611   -7.2043   16.5358  C     
10   C        22.3998   -6.7994   15.0451  C     
11   C        23.4529   -7.4373   14.0771  C     
12   C        23.9843   -8.7769   14.6697  C     
13   C        24.5894   -8.5696   16.0906  C     
14   C        22.9449   -7.5321   12.7032  C     
15   N        22.9657   -8.6273   11.9730  N     
16   O        22.4203   -6.5588   12.1851  O     
17   C        26.2110   -9.0482   20.8145  C     
18   C        27.2956   -8.8872   21.7104  C     
19   C        27.8127   -9.9709   22.4509  C     
20   C        27.2621  -11.2624   22.2883  C     
21   C        26.2069  -11.4542   21.3622  C     
22   C        25.6793  -10.3506   20.6590  C     
23   O        25.6471  -12.6907   21.1865  O     
24   C        26.3406  -13.4981   20.2190  C     
25   O        27.8376  -12.3313   22.9299  O     
26   C        27.1107  -12.8306   24.0668  C     
27   O        28.9059   -9.7978   23.2593  O     
28   C        28.6131   -9.1845   24.5275  C     
29   H        25.9360   -6.3934   21.5283  H     
30   H        23.9773   -3.9323   18.4403  H     
31   H        23.6414   -4.8679   17.0895  H     
32   H        21.9557   -8.0934   16.6859  H     
33   H        22.1046   -6.4516   17.1749  H     
34   H        21.3839   -7.0753   14.7349  H     
35   H        22.4647   -5.7122   14.9714  H     
36   H        24.3124   -6.7582   14.0299  H     
37   H        23.1591   -9.4905   14.7321  H     
38   H        24.7492   -9.2024   14.0182  H     
39   H        25.6276   -8.2516   15.9527  H     
40   H        24.6127   -9.5368   16.6019  H     
41   H        22.5850   -8.6226   11.0846  H     
42   H        23.3576   -9.4500   12.3067  H     
43   H        27.7406   -7.9731   21.8258  H     
44   H        24.8857  -10.5147   20.0366  H     
45   H        26.3176  -13.0371   19.2289  H     
46   H        25.8404  -14.4641   20.1614  H     
47   H        27.3766  -13.6744   20.5147  H     
48   H        26.9685  -12.0555   24.8209  H     
49   H        27.6921  -13.6359   24.5158  H     
50   H        26.1407  -13.2374   23.7746  H     
51   H        28.1951   -8.1840   24.3972  H     
52   H        29.5467   -9.0927   25.0832  H     
53   H        27.9234   -9.7910   25.1176  H     
@<TRIPOS>BOND
     1    1    2 2
     2    1    6 1
     3    2    3 1
     4    2   17 1
     5    3    4 2
     6    4    5 1
     7    4    8 1
     8    5    6 2
     9    5    7 1
    10    8    9 1
    11    8   13 1
    12    9   10 1
    13   10   11 1
    14   11   12 1
    15   11   14 1
    16   12   13 1
    17   14   15 am
    18   14   16 2
    19   17   18 2
    20   17   22 1
    21   18   19 1
    22   19   20 2
    23   19   27 1
    24   20   21 1
    25   20   25 1
    26   21   22 2
    27   21   23 1
    28   23   24 1
    29   25   26 1
    30   27   28 1
    31    1   29 1
    32    7   30 1
    33    7   31 1
    34    9   32 1
    35    9   33 1
    36   10   34 1
    37   10   35 1
    38   11   36 1
    39   12   37 1
    40   12   38 1
    41   13   39 1
    42   13   40 1
    43   15   41 1
    44   15   42 1
    45   18   43 1
    46   22   44 1
    47   24   45 1
    48   24   46 1
    49   24   47 1
    50   26   48 1
    51   26   49 1
    52   26   50 1
    53   28   51 1
    54   28   52 1
    55   28   53 1
@<TRIPOS>PROPERTY_DATA
  Total_Score	| 7.9889
  Crash		| -2.6209
  Polar		| 5.2313
  FragIndex	| 1
  FragRMSD	| 0.142

