@<TRIPOS>MOLECULE
BindingDB_50330593
 53 55 0 0 0
SMALL
NO_CHARGES


@<TRIPOS>ATOM
1    C        24.9774  -11.6532   15.6413  C     
2    C        24.4378  -11.0508   14.3187  C     
3    O        24.8434   -9.6844   14.0665  O     
4    C        24.1562   -8.7048   14.7427  C     
5    C        24.5800   -8.3878   16.0473  C     
6    C        23.9445   -7.4017   16.8303  C     
7    C        24.4222   -7.1232   18.1434  C     
8    N        24.9584   -8.1450   18.8712  N     
9    C        25.4962   -8.0346   20.1182  C     
10   C        26.0615   -9.1764   20.7628  C     
11   C        25.5099  -10.4660   20.5705  C     
12   C        26.0739  -11.6061   21.1780  C     
13   O        25.4981  -12.8299   20.9690  O     
14   C        26.2060  -13.6352   20.0092  C     
15   C        27.1820  -11.4693   22.0444  C     
16   O        27.7803  -12.5749   22.5929  O     
17   C        27.0571  -13.1789   23.6795  C     
18   C        27.7493  -10.1933   22.2504  C     
19   O        28.8682  -10.0594   23.0306  O     
20   C        28.6213   -9.4250   24.3000  C     
21   C        27.2044   -9.0696   21.5934  C     
22   C        25.4705   -6.7454   20.6954  C     
23   N        24.9582   -5.7087   19.9908  N     
24   C        24.4494   -5.8373   18.7398  C     
25   N        24.0576   -4.7066   18.1260  N     
26   C        22.8537   -6.7165   16.2516  C     
27   C        22.4819   -6.9490   14.9143  C     
28   C        23.1450   -7.9202   14.1246  C     
29   C        22.8323   -8.0308   12.7413  C     
30   O        22.2776   -6.9966   12.0657  O     
31   O        23.2836   -9.0502   11.9758  O     
32   H        26.0452  -11.4458   15.7336  H     
33   H        24.8300  -12.7349   15.6398  H     
34   H        24.4580  -11.2390   16.5134  H     
35   H        24.8575  -11.6407   13.5018  H     
36   H        23.3504  -11.1694   14.2703  H     
37   H        25.4046   -8.8622   16.4061  H     
38   H        24.6821  -10.5900   19.9855  H     
39   H        26.2147  -13.1620   19.0233  H     
40   H        25.6939  -14.5936   19.9241  H     
41   H        27.2336  -13.8294   20.3284  H     
42   H        26.9517  -12.4904   24.5189  H     
43   H        27.6227  -14.0457   24.0202  H     
44   H        26.0688  -13.5235   23.3673  H     
45   H        29.5591   -9.3961   24.8535  H     
46   H        27.8915   -9.9823   24.8902  H     
47   H        28.2704   -8.3971   24.1761  H     
48   H        27.6680   -8.1670   21.7189  H     
49   H        25.8287   -6.5675   21.6348  H     
50   H        24.1284   -3.8577   18.5895  H     
51   H        23.7428   -4.7225   17.2090  H     
52   H        22.3360   -6.0163   16.7894  H     
53   H        21.7249   -6.3837   14.5197  H     
@<TRIPOS>BOND
     1    1    2 1
     2    2    3 1
     3    3    4 1
     4    4    5 1
     5    4   28 2
     6    5    6 2
     7    6    7 1
     8    6   26 1
     9    7    8 2
    10    7   24 1
    11    8    9 1
    12    9   10 1
    13    9   22 2
    14   10   11 1
    15   10   21 2
    16   11   12 2
    17   12   13 1
    18   12   15 1
    19   13   14 1
    20   15   16 1
    21   15   18 2
    22   16   17 1
    23   18   19 1
    24   18   21 1
    25   19   20 1
    26   22   23 1
    27   23   24 2
    28   24   25 1
    29   26   27 2
    30   27   28 1
    31   28   29 1
    32   29   30 2
    33   29   31 1
    34    1   32 1
    35    1   33 1
    36    1   34 1
    37    2   35 1
    38    2   36 1
    39    5   37 1
    40   11   38 1
    41   14   39 1
    42   14   40 1
    43   14   41 1
    44   17   42 1
    45   17   43 1
    46   17   44 1
    47   20   45 1
    48   20   46 1
    49   20   47 1
    50   21   48 1
    51   22   49 1
    52   25   50 1
    53   25   51 1
    54   26   52 1
    55   27   53 1
@<TRIPOS>PROPERTY_DATA
  Total_Score	| 10.0114
  Crash		| -1.0590
  Polar		| 6.0680
  FragIndex	| 1
  FragRMSD	| 0.639

