@<TRIPOS>MOLECULE
BindingDB_50330597
 49 51 0 0 0
SMALL
NO_CHARGES


@<TRIPOS>ATOM
1    C        25.3858   -6.7005   20.6995  C     
2    C        25.4089   -8.0184   20.1776  C     
3    N        24.9216   -8.1787   18.9127  N     
4    C        24.4350   -7.1834   18.1246  C     
5    C        24.4786   -5.8638   18.6581  C     
6    N        24.9197   -5.6849   19.9299  N     
7    N        24.1638   -4.7495   17.9729  N     
8    C        24.0213   -7.4932   16.7945  C     
9    C        24.7508   -8.3702   15.9361  C     
10   C        24.3467   -8.4839   14.5812  C     
11   C        23.2519   -7.7562   14.0517  C     
12   C        22.4985   -6.9575   14.9360  C     
13   C        22.8673   -6.8557   16.2912  C     
14   C        22.9371   -7.8214   12.6754  C     
15   O        23.4540   -8.7833   11.8719  O     
16   O        22.1867   -6.8704   12.0613  O     
17   C        26.0141   -9.1196   20.8453  C     
18   C        27.2417   -8.9434   21.5449  C     
19   C        27.8824  -10.0114   22.1922  C     
20   C        27.2798  -11.2899   22.1657  C     
21   C        26.1152  -11.5016   21.3938  C     
22   C        25.4813  -10.4184   20.7590  C     
23   O        25.5669  -12.7480   21.2838  O     
24   C        26.4648  -13.7247   20.7061  C     
25   O        27.9064  -12.3431   22.7727  O     
26   C        27.1801  -12.8720   23.9079  C     
27   O        29.1087   -9.9491   22.8207  O     
28   C        29.6160   -8.7082   23.3287  C     
29   C        25.9448   -9.1351   16.3829  C     
30   H        25.7229   -6.4968   21.6489  H     
31   H        24.2267   -3.8802   18.4068  H     
32   H        23.8992   -4.7930   17.0425  H     
33   H        24.8892   -9.0841   13.9510  H     
34   H        21.6852   -6.4346   14.6147  H     
35   H        22.2799   -6.2701   16.8887  H     
36   H        27.6699   -8.0239   21.5256  H     
37   H        24.6102  -10.5788   20.2480  H     
38   H        26.8009  -13.4290   19.7036  H     
39   H        25.9366  -14.6768   20.6304  H     
40   H        27.3431  -13.8977   21.3435  H     
41   H        27.0168  -12.0958   24.6710  H     
42   H        27.7970  -13.6671   24.3464  H     
43   H        26.2126  -13.3062   23.6048  H     
44   H        29.9777   -8.0719   22.5216  H     
45   H        30.4776   -8.9209   23.9724  H     
46   H        28.8629   -8.1877   23.9178  H     
47   H        26.6924   -8.4604   16.8046  H     
48   H        26.4221   -9.6916   15.5738  H     
49   H        25.6523   -9.8671   17.1367  H     
@<TRIPOS>BOND
     1    1    2 2
     2    1    6 1
     3    2    3 1
     4    2   17 1
     5    3    4 2
     6    4    5 1
     7    4    8 1
     8    5    6 2
     9    5    7 1
    10    8    9 1
    11    8   13 2
    12    9   10 2
    13    9   29 1
    14   10   11 1
    15   11   12 2
    16   11   14 1
    17   12   13 1
    18   14   15 1
    19   14   16 2
    20   17   18 2
    21   17   22 1
    22   18   19 1
    23   19   20 2
    24   19   27 1
    25   20   21 1
    26   20   25 1
    27   21   22 2
    28   21   23 1
    29   23   24 1
    30   25   26 1
    31   27   28 1
    32    1   30 1
    33    7   31 1
    34    7   32 1
    35   10   33 1
    36   12   34 1
    37   13   35 1
    38   18   36 1
    39   22   37 1
    40   24   38 1
    41   24   39 1
    42   24   40 1
    43   26   41 1
    44   26   42 1
    45   26   43 1
    46   28   44 1
    47   28   45 1
    48   28   46 1
    49   29   47 1
    50   29   48 1
    51   29   49 1
@<TRIPOS>PROPERTY_DATA
  Total_Score	| 11.0146
  Crash		| -1.1049
  Polar		| 6.3234
  FragIndex	| 1
  FragRMSD	| 0.718

