@<TRIPOS>MOLECULE
BindingDB_28452
 43 45 0 0 0
SMALL
NO_CHARGES


@<TRIPOS>ATOM
1    O       -66.5756   -2.6541    4.2305  O     
2    O       -63.5281   -2.2398    4.2252  O     
3    O       -64.5378    0.3442    4.1987  O     
4    N       -67.4675   -0.5388    3.4908  N     
5    N       -67.0005   -4.4809    6.9784  N     
6    N       -68.9316    0.9284    2.6526  N     
7    N       -68.9927   -1.5404    5.1332  N     
8    N       -71.1629   -0.6266    5.1158  N     
9    N       -71.7868    1.0864    3.6722  N     
10   C       -65.6006   -3.0406    5.2210  C     
11   C       -64.5224   -1.9285    5.2046  C     
12   C       -65.3308   -0.6956    4.7747  C     
13   C       -66.2897   -1.3277    3.7431  C     
14   C       -66.2931   -3.2049    6.6187  C     
15   C       -68.6267   -0.6808    4.1493  C     
16   C       -67.6667    0.4492    2.5743  C     
17   C       -67.6186   -4.4462    8.3561  C     
18   C       -69.5339    0.2356    3.6277  C     
19   C       -70.8430    0.2575    4.1340  C     
20   C       -70.2575   -1.5218    5.6232  C     
21   C       -67.9792   -5.0459    5.9836  C     
22   C       -66.7200    0.9438    1.5694  C     
23   H       -62.6791   -2.2516    4.7104  H     
24   H       -63.6072    0.0360    4.2415  H     
25   H       -66.2494   -5.1968    7.0328  H     
26   H       -71.5713    1.6968    2.9622  H     
27   H       -72.6923    1.0403    4.0159  H     
28   H       -65.1533   -4.0038    4.9512  H     
29   H       -64.0444   -1.7755    6.1916  H     
30   H       -65.8873   -0.2969    5.6258  H     
31   H       -65.7568   -1.4525    2.8043  H     
32   H       -66.9825   -2.3649    6.7364  H     
33   H       -65.5243   -3.0838    7.3928  H     
34   H       -66.8521   -4.1535    9.0992  H     
35   H       -68.0212   -5.4402    8.6239  H     
36   H       -68.4421   -3.7061    8.4098  H     
37   H       -70.4928   -2.2101    6.3357  H     
38   H       -68.8420   -4.3684    5.8353  H     
39   H       -68.3409   -6.0346    6.2874  H     
40   H       -67.4668   -5.2023    5.0334  H     
41   H       -65.8148    1.2962    2.0636  H     
42   H       -67.1486    1.7737    0.9990  H     
43   H       -66.4570    0.1396    0.8753  H     
@<TRIPOS>BOND
     1    1   10 1
     2    1   13 1
     3   11    2 1
     4   12    3 1
     5   13    4 1
     6    4   15 1
     7    4   16 1
     8    5   14 1
     9    5   17 1
    10    5   21 1
    11    6   16 2
    12    6   18 1
    13    7   15 1
    14    7   20 2
    15    8   19 2
    16    8   20 1
    17    9   19 1
    18   10   11 1
    19   10   14 1
    20   11   12 1
    21   12   13 1
    22   15   18 2
    23   16   22 1
    24   18   19 1
    25    2   23 1
    26    3   24 1
    27    5   25 1
    28    9   26 1
    29    9   27 1
    30   10   28 1
    31   11   29 1
    32   12   30 1
    33   13   31 1
    34   14   32 1
    35   14   33 1
    36   17   34 1
    37   17   35 1
    38   17   36 1
    39   20   37 1
    40   21   38 1
    41   21   39 1
    42   21   40 1
    43   22   41 1
    44   22   42 1
    45   22   43 1
@<TRIPOS>PROPERTY_DATA
  Total_Score	| 9.0382
  Crash		| -1.0707
  Polar		| 5.7049
  FragIndex	| 1
  FragRMSD	| 0.286

