@<TRIPOS>MOLECULE
BindingDB_28429
 59 61 0 0 0
SMALL
NO_CHARGES


@<TRIPOS>ATOM
1    O       -66.4606   -2.2621    4.3237  O     
2    O       -63.6311   -1.0061    6.1517  O     
3    O       -64.1168    0.1833    3.7490  O     
4    C       -69.1147   -4.7608    8.4431  C     
5    N       -67.5240   -0.3584    3.4137  N     
6    N       -66.6049   -4.6151    6.1669  N     
7    N       -69.0661    1.0292    2.6109  N     
8    N       -69.0077   -1.4560    5.0541  N     
9    N       -71.2168   -0.6487    5.0556  N     
10   N       -71.9083    1.0482    3.5950  N     
11   C       -69.9414   -5.3269    9.6265  C     
12   C       -65.4493   -2.4585    5.3088  C     
13   C       -64.9865   -1.0458    5.7229  C     
14   C       -65.2858   -0.1691    4.4894  C     
15   C       -66.2633   -1.0183    3.6422  C     
16   C       -66.0145   -3.2729    6.5012  C     
17   C       -68.6811   -0.5927    4.0593  C     
18   C       -67.7718    0.6486    2.5356  C     
19   C       -66.8267   -5.4738    7.3828  C     
20   C       -69.6383    0.2764    3.5511  C     
21   C       -67.7795   -4.5867    5.2430  C     
22   C       -66.8039    1.2492    1.5847  C     
23   C       -67.5765   -4.8892    8.6177  C     
24   C       -70.9450    0.2397    4.0614  C     
25   C       -70.2748   -1.4933    5.5518  C     
26   O       -69.1377   -6.2265   10.3951  O     
27   N       -69.7332   -6.5939   11.5636  N     
28   C       -67.1293    2.7032    1.1567  C     
29   H       -63.0499   -1.0842    5.3585  H     
30   H       -63.6678   -0.6691    3.5298  H     
31   H       -69.4262   -5.2849    7.5345  H     
32   H       -69.3802   -3.7053    8.3196  H     
33   H       -65.8800   -5.1088    5.6418  H     
34   H       -71.7152    1.6823    2.8882  H     
35   H       -72.8024    0.9747    3.9505  H     
36   H       -70.2812   -4.4891   10.2366  H     
37   H       -70.8134   -5.8568    9.2331  H     
38   H       -64.6215   -3.0138    4.8522  H     
39   H       -65.5996   -0.6829    6.5460  H     
40   H       -65.7365    0.7715    4.8184  H     
41   H       -65.8116   -1.2549    2.6745  H     
42   H       -66.7628   -2.6750    7.0287  H     
43   H       -65.1781   -3.4138    7.1883  H     
44   H       -67.3226   -6.4037    7.0843  H     
45   H       -65.8405   -5.7880    7.7280  H     
46   H       -68.5170   -3.8391    5.5345  H     
47   H       -68.2840   -5.5572    5.1792  H     
48   H       -67.4394   -4.3552    4.2316  H     
49   H       -65.8090    1.2731    2.0492  H     
50   H       -66.7491    0.6196    0.6939  H     
51   H       -67.1535   -3.9162    8.8904  H     
52   H       -67.3699   -5.5672    9.4493  H     
53   H       -70.5154   -2.1424    6.3024  H     
54   H       -69.9835   -5.7569   12.1124  H     
55   H       -69.0619   -7.1565   12.0943  H     
56   H       -70.5853   -7.1403   11.3690  H     
57   H       -68.1174    2.7607    0.6903  H     
58   H       -66.3890    3.0567    0.4363  H     
59   H       -67.1150    3.3696    2.0251  H     
@<TRIPOS>BOND
     1    1   12 1
     2    1   15 1
     3   13    2 1
     4   14    3 1
     5    4   11 1
     6    4   23 1
     7   15    5 1
     8    5   17 1
     9    5   18 1
    10    6   16 1
    11    6   19 1
    12    6   21 1
    13    7   18 2
    14    7   20 1
    15    8   17 1
    16    8   25 2
    17    9   24 2
    18    9   25 1
    19   10   24 1
    20   11   26 1
    21   12   13 1
    22   12   16 1
    23   13   14 1
    24   14   15 1
    25   17   20 2
    26   18   22 1
    27   19   23 1
    28   20   24 1
    29   22   28 1
    30   26   27 1
    31    2   29 1
    32    3   30 1
    33    4   31 1
    34    4   32 1
    35    6   33 1
    36   10   34 1
    37   10   35 1
    38   11   36 1
    39   11   37 1
    40   12   38 1
    41   13   39 1
    42   14   40 1
    43   15   41 1
    44   16   42 1
    45   16   43 1
    46   19   44 1
    47   19   45 1
    48   21   46 1
    49   21   47 1
    50   21   48 1
    51   22   49 1
    52   22   50 1
    53   23   51 1
    54   23   52 1
    55   25   53 1
    56   27   54 1
    57   27   55 1
    58   27   56 1
    59   28   57 1
    60   28   58 1
    61   28   59 1
@<TRIPOS>PROPERTY_DATA
  Total_Score	| 10.2487
  Crash		| -2.4129
  Polar		| 5.7626
  FragIndex	| 1
  FragRMSD	| 0.897

