@<TRIPOS>MOLECULE
BindingDB_28433
 53 55 0 0 0
SMALL
NO_CHARGES


@<TRIPOS>ATOM
1    O       -66.5527   -2.6215    4.2565  O     
2    O       -63.4906   -2.1511    4.2141  O     
3    O       -64.5717    0.4279    4.2412  O     
4    C       -67.7768   -5.7030   10.2746  C     
5    N       -67.4795   -0.5132    3.5477  N     
6    N       -67.0506   -4.6230    6.6491  N     
7    N       -68.9668    0.9055    2.6964  N     
8    N       -69.0296   -1.5666    5.1575  N     
9    N       -71.2185   -0.6822    5.1230  N     
10   N       -71.8017    1.0510    3.6579  N     
11   C       -65.5279   -3.0441    5.1876  C     
12   C       -64.4884   -1.8866    5.2078  C     
13   C       -65.3209   -0.6641    4.7934  C     
14   C       -66.2748   -1.2752    3.7549  C     
15   C       -66.2117   -3.3668    6.5522  C     
16   C       -68.6524   -0.7049    4.1858  C     
17   C       -67.6894    0.4857    2.6421  C     
18   C       -67.8802   -4.7031    7.9262  C     
19   C       -69.5767    0.1911    3.6508  C     
20   C       -67.8961   -4.9077    5.4599  C     
21   C       -67.0449   -5.0530    9.1815  C     
22   C       -70.8918    0.2045    4.1438  C     
23   C       -70.3156   -1.5604    5.6330  C     
24   N       -67.1655   -5.9800   11.4030  N     
25   O       -68.9324   -6.0733   10.1895  O     
26   C       -66.7522    1.0474    1.6335  C     
27   C       -66.9676    2.5431    1.3485  C     
28   H       -62.6461   -2.2450    4.6979  H     
29   H       -63.6271    0.1294    4.1827  H     
30   H       -66.4016   -5.4072    6.7066  H     
31   H       -71.5613    1.6892    2.9617  H     
32   H       -72.7154    1.0070    3.9796  H     
33   H       -65.0562   -3.9470    4.8173  H     
34   H       -64.0375   -1.7540    6.1932  H     
35   H       -65.8874   -0.2872    5.6519  H     
36   H       -65.7670   -1.4157    2.8034  H     
37   H       -66.7916   -2.4915    6.8490  H     
38   H       -65.4102   -3.4947    7.2936  H     
39   H       -68.4260   -3.7625    8.0895  H     
40   H       -68.6184   -5.4826    7.8030  H     
41   H       -68.6470   -4.1301    5.3195  H     
42   H       -68.4447   -5.8756    5.5697  H     
43   H       -67.3016   -5.0070    4.5706  H     
44   H       -66.5715   -4.1570    9.5802  H     
45   H       -66.2529   -5.7440    8.8698  H     
46   H       -70.5845   -2.2210    6.3557  H     
47   H       -67.6102   -6.5530   12.0404  H     
48   H       -66.2723   -5.6530   11.5877  H     
49   H       -65.7081    0.9160    1.9685  H     
50   H       -66.8773    0.4719    0.7190  H     
51   H       -67.9256    2.7039    0.8655  H     
52   H       -66.1822    2.9177    0.6767  H     
53   H       -66.9286    3.1208    2.2748  H     
@<TRIPOS>BOND
     1    1   11 1
     2    1   14 1
     3   12    2 1
     4   13    3 1
     5    4   21 1
     6    4   24 am
     7    4   25 2
     8   14    5 1
     9    5   16 1
    10    5   17 1
    11    6   15 1
    12    6   18 1
    13    6   20 1
    14    7   17 2
    15    7   19 1
    16    8   16 1
    17    8   23 2
    18    9   22 2
    19    9   23 1
    20   10   22 1
    21   11   12 1
    22   11   15 1
    23   12   13 1
    24   13   14 1
    25   16   19 2
    26   17   26 1
    27   18   21 1
    28   19   22 1
    29   26   27 1
    30    2   28 1
    31    3   29 1
    32    6   30 1
    33   10   31 1
    34   10   32 1
    35   11   33 1
    36   12   34 1
    37   13   35 1
    38   14   36 1
    39   15   37 1
    40   15   38 1
    41   18   39 1
    42   18   40 1
    43   20   41 1
    44   20   42 1
    45   20   43 1
    46   21   44 1
    47   21   45 1
    48   23   46 1
    49   24   47 1
    50   24   48 1
    51   26   49 1
    52   26   50 1
    53   27   51 1
    54   27   52 1
    55   27   53 1
@<TRIPOS>PROPERTY_DATA
  Total_Score	| 11.4434
  Crash		| -1.9388
  Polar		| 7.7325
  FragIndex	| 1
  FragRMSD	| 0.265

