@<TRIPOS>MOLECULE
BindingDB_28428
 56 58 0 0 0
SMALL
NO_CHARGES


@<TRIPOS>ATOM
1    O       -66.6556   -2.6951    4.1795  O     
2    O       -63.6228   -2.3139    4.0744  O     
3    O       -64.5915    0.3429    4.1432  O     
4    C       -69.9032   -5.1895    9.5563  C     
5    N       -67.5525   -0.5668    3.5249  N     
6    N       -67.2009   -4.3982    6.8520  N     
7    N       -69.0236    0.9226    2.7264  N     
8    N       -69.0716   -1.5193    5.2262  N     
9    N       -71.2258   -0.5623    5.2638  N     
10   N       -71.8400    1.1423    3.7856  N     
11   C       -69.8803   -5.6793   11.0373  C     
12   C       -65.6548   -3.0691    5.1510  C     
13   C       -64.5548   -1.9761    5.1017  C     
14   C       -65.3628   -0.7312    4.7036  C     
15   C       -66.3646   -1.3584    3.7060  C     
16   C       -66.3497   -3.1908    6.5451  C     
17   C       -68.7034   -0.6898    4.2180  C     
18   C       -67.7692    0.4238    2.6084  C     
19   C       -68.2792   -4.1022    7.8599  C     
20   C       -69.6124    0.2367    3.7132  C     
21   C       -67.7232   -5.1542    5.6802  C     
22   C       -66.8245    0.9251    1.5861  C     
23   C       -68.5550   -5.3158    8.7887  C     
24   C       -70.9104    0.2935    4.2537  C     
25   C       -70.3217   -1.4525    5.7547  C     
26   O       -70.7182   -6.8330   11.2084  O     
27   N       -70.6164   -7.3012   12.4854  N     
28   H       -62.7465   -1.9667    4.3624  H     
29   H       -63.6804   -0.0098    4.0260  H     
30   H       -70.6720   -5.7281    8.9957  H     
31   H       -70.2135   -4.1471    9.5580  H     
32   H       -66.5627   -5.0549    7.3090  H     
33   H       -71.6281    1.7566    3.0612  H     
34   H       -72.7368    1.1123    4.1498  H     
35   H       -68.8556   -5.9110   11.3603  H     
36   H       -70.2574   -4.8707   11.6688  H     
37   H       -65.2159   -4.0388    4.8951  H     
38   H       -64.0282   -1.8498    6.0515  H     
39   H       -65.8891   -0.3359    5.5887  H     
40   H       -65.8490   -1.4543    2.7467  H     
41   H       -66.9213   -2.2722    6.6866  H     
42   H       -65.5538   -3.1944    7.3117  H     
43   H       -68.0052   -3.2631    8.5185  H     
44   H       -69.2110   -3.8173    7.3515  H     
45   H       -68.3360   -4.5176    5.0532  H     
46   H       -68.3002   -6.0331    6.0006  H     
47   H       -66.9049   -5.5441    5.0805  H     
48   H       -65.9116    1.2687    2.0637  H     
49   H       -67.2684    1.7510    1.0353  H     
50   H       -66.5926    0.1215    0.8879  H     
51   H       -67.7138   -5.3818    9.4893  H     
52   H       -68.5632   -6.2314    8.1855  H     
53   H       -70.5973   -2.0759    6.5165  H     
54   H       -69.6575   -7.5992   12.6659  H     
55   H       -71.2505   -8.0922   12.6062  H     
56   H       -70.8786   -6.5608   13.1427  H     
@<TRIPOS>BOND
     1    1   12 1
     2    1   15 1
     3   13    2 1
     4   14    3 1
     5    4   11 1
     6    4   23 1
     7   15    5 1
     8    5   17 1
     9    5   18 1
    10    6   16 1
    11    6   19 1
    12    6   21 1
    13    7   18 2
    14    7   20 1
    15    8   17 1
    16    8   25 2
    17    9   24 2
    18    9   25 1
    19   10   24 1
    20   11   26 1
    21   12   13 1
    22   12   16 1
    23   13   14 1
    24   14   15 1
    25   17   20 2
    26   18   22 1
    27   19   23 1
    28   20   24 1
    29   26   27 1
    30    2   28 1
    31    3   29 1
    32    4   30 1
    33    4   31 1
    34    6   32 1
    35   10   33 1
    36   10   34 1
    37   11   35 1
    38   11   36 1
    39   12   37 1
    40   13   38 1
    41   14   39 1
    42   15   40 1
    43   16   41 1
    44   16   42 1
    45   19   43 1
    46   19   44 1
    47   21   45 1
    48   21   46 1
    49   21   47 1
    50   22   48 1
    51   22   49 1
    52   22   50 1
    53   23   51 1
    54   23   52 1
    55   25   53 1
    56   27   54 1
    57   27   55 1
    58   27   56 1
@<TRIPOS>PROPERTY_DATA
  Total_Score	| 11.5563
  Crash		| -2.7389
  Polar		| 6.9356
  FragIndex	| 1
  FragRMSD	| 0.578

