@<TRIPOS>MOLECULE
BindingDB_28432
 50 52 0 0 0
SMALL
NO_CHARGES


@<TRIPOS>ATOM
1    O       -66.5669   -2.6377    4.2384  O     
2    O       -63.4732   -2.1399    4.2006  O     
3    O       -64.5375    0.3901    4.0982  O     
4    C       -67.7386   -5.6859   10.2654  C     
5    N       -67.4913   -0.5444    3.5051  N     
6    N       -67.0188   -4.5954    6.6430  N     
7    N       -68.9618    0.9022    2.6693  N     
8    N       -69.0309   -1.5579    5.1557  N     
9    N       -71.2111   -0.6544    5.1226  N     
10   N       -71.8185    1.0466    3.6383  N     
11   C       -65.5432   -3.0139    5.1865  C     
12   C       -64.4906   -1.8650    5.1738  C     
13   C       -65.3061   -0.6442    4.7222  C     
14   C       -66.2839   -1.3083    3.7261  C     
15   C       -66.2426   -3.3012    6.5540  C     
16   C       -68.6607   -0.7106    4.1580  C     
17   C       -67.6952    0.4452    2.5909  C     
18   C       -67.8287   -4.7293    7.9083  C     
19   C       -69.5748    0.1949    3.6274  C     
20   C       -67.8669   -4.8894    5.4473  C     
21   C       -66.9912   -5.0841    9.1719  C     
22   C       -70.8858    0.2157    4.1292  C     
23   C       -70.3022   -1.5282    5.6406  C     
24   C       -66.7250    0.9903    1.6259  C     
25   N       -67.1554   -5.9757   11.4036  N     
26   O       -68.9079   -6.0300   10.1394  O     
27   H       -62.6407   -2.2487    4.7077  H     
28   H       -63.5981    0.0835    4.1318  H     
29   H       -66.3200   -5.3422    6.6683  H     
30   H       -71.5940    1.6720    2.9270  H     
31   H       -72.7278    0.9988    3.9754  H     
32   H       -65.0602   -3.9389    4.8576  H     
33   H       -64.0336   -1.6873    6.1532  H     
34   H       -65.8488   -0.2283    5.5815  H     
35   H       -65.7678   -1.4526    2.7670  H     
36   H       -66.8777   -2.4490    6.8093  H     
37   H       -65.4480   -3.3366    7.3094  H     
38   H       -68.3861   -3.8044    8.0974  H     
39   H       -68.5537   -5.5375    7.7901  H     
40   H       -68.6131   -4.1033    5.2873  H     
41   H       -68.3868   -5.8510    5.5590  H     
42   H       -67.2564   -4.9840    4.5518  H     
43   H       -66.4851   -4.1870    9.5436  H     
44   H       -66.2206   -5.8027    8.8666  H     
45   H       -70.5730   -2.1700    6.3853  H     
46   H       -65.8569    1.3913    2.1528  H     
47   H       -67.1741    1.7984    1.0467  H     
48   H       -66.4033    0.2048    0.9395  H     
49   H       -67.6234   -6.5324   12.0447  H     
50   H       -66.2528   -5.6741   11.6022  H     
@<TRIPOS>BOND
     1    1   11 1
     2    1   14 1
     3   12    2 1
     4   13    3 1
     5    4   21 1
     6    4   25 am
     7    4   26 2
     8   14    5 1
     9    5   16 1
    10    5   17 1
    11    6   15 1
    12    6   18 1
    13    6   20 1
    14    7   17 2
    15    7   19 1
    16    8   16 1
    17    8   23 2
    18    9   22 2
    19    9   23 1
    20   10   22 1
    21   11   12 1
    22   11   15 1
    23   12   13 1
    24   13   14 1
    25   16   19 2
    26   17   24 1
    27   18   21 1
    28   19   22 1
    29    2   27 1
    30    3   28 1
    31    6   29 1
    32   10   30 1
    33   10   31 1
    34   11   32 1
    35   12   33 1
    36   13   34 1
    37   14   35 1
    38   15   36 1
    39   15   37 1
    40   18   38 1
    41   18   39 1
    42   20   40 1
    43   20   41 1
    44   20   42 1
    45   21   43 1
    46   21   44 1
    47   23   45 1
    48   24   46 1
    49   24   47 1
    50   24   48 1
    51   25   49 1
    52   25   50 1
@<TRIPOS>PROPERTY_DATA
  Total_Score	| 11.6866
  Crash		| -1.8598
  Polar		| 7.7091
  FragIndex	| 1
  FragRMSD	| 0.277

