@<TRIPOS>MOLECULE
BindingDB_28441
 49 51 0 0 0
SMALL
NO_CHARGES


@<TRIPOS>ATOM
1    O       -66.6149   -2.7130    4.3001  O     
2    O       -63.5495   -2.2586    4.2569  O     
3    O       -64.5687    0.2794    4.2035  O     
4    C       -66.8348   -5.8195   10.6526  C     
5    N       -67.5362   -0.6226    3.6026  N     
6    N       -66.9639   -4.6943    6.8399  N     
7    N       -68.9720    0.7841    2.6518  N     
8    N       -69.0927   -1.4999    5.3037  N     
9    N       -71.2619   -0.5887    5.1820  N     
10   N       -71.8377    1.0077    3.5631  N     
11   C       -65.6137   -3.1095    5.2591  C     
12   C       -64.5486   -1.9794    5.2461  C     
13   C       -65.3530   -0.7513    4.8145  C     
14   C       -66.3398   -1.3864    3.8184  C     
15   C       -66.2970   -3.3538    6.6421  C     
16   C       -68.7081   -0.7281    4.2558  C     
17   C       -67.7156    0.3054    2.6366  C     
18   C       -67.4971   -4.8781    8.2489  C     
19   C       -69.6023    0.1507    3.6496  C     
20   C       -67.9968   -5.0411    5.8077  C     
21   C       -66.3840   -5.2016    9.2831  C     
22   C       -70.9202    0.2074    4.1321  C     
23   C       -70.3676   -1.4288    5.7687  C     
24   N       -68.2882   -5.9598   10.8500  N     
25   H       -62.6877   -2.3080    4.7241  H     
26   H       -63.6266    0.0078    4.2714  H     
27   H       -66.3713   -6.8066   10.7749  H     
28   H       -66.4630   -5.1879   11.4698  H     
29   H       -66.2314   -5.3997    6.7182  H     
30   H       -71.6065    1.5560    2.7960  H     
31   H       -72.7502    0.9892    3.8866  H     
32   H       -65.1592   -4.0487    4.9366  H     
33   H       -64.0775   -1.8150    6.2193  H     
34   H       -65.8831   -0.3346    5.6773  H     
35   H       -65.8275   -1.5089    2.8582  H     
36   H       -67.0117   -2.5547    6.8363  H     
37   H       -65.5156   -3.2647    7.4001  H     
38   H       -67.0074    0.6091    1.9647  H     
39   H       -68.0539   -3.9898    8.5744  H     
40   H       -68.1892   -5.7281    8.2828  H     
41   H       -68.8047   -4.3060    5.8019  H     
42   H       -68.4234   -6.0283    5.9886  H     
43   H       -67.5564   -5.0892    4.8099  H     
44   H       -65.8223   -4.2868    9.5085  H     
45   H       -65.6855   -5.9031    8.8124  H     
46   H       -70.6580   -2.0078    6.5583  H     
47   H       -68.6986   -5.0428   10.9956  H     
48   H       -68.4796   -6.5359   11.6970  H     
49   H       -68.7350   -6.4101   10.0644  H     
@<TRIPOS>BOND
     1    1   11 1
     2    1   14 1
     3   12    2 1
     4   13    3 1
     5    4   21 1
     6    4   24 1
     7   14    5 1
     8    5   16 1
     9    5   17 1
    10    6   15 1
    11    6   18 1
    12    6   20 1
    13    7   17 2
    14    7   19 1
    15    8   16 1
    16    8   23 2
    17    9   22 2
    18    9   23 1
    19   10   22 1
    20   11   12 1
    21   11   15 1
    22   12   13 1
    23   13   14 1
    24   16   19 2
    25   18   21 1
    26   19   22 1
    27    2   25 1
    28    3   26 1
    29    4   27 1
    30    4   28 1
    31    6   29 1
    32   10   30 1
    33   10   31 1
    34   11   32 1
    35   12   33 1
    36   13   34 1
    37   14   35 1
    38   15   36 1
    39   15   37 1
    40   17   38 1
    41   18   39 1
    42   18   40 1
    43   20   41 1
    44   20   42 1
    45   20   43 1
    46   21   44 1
    47   21   45 1
    48   23   46 1
    49   24   47 1
    50   24   48 1
    51   24   49 1
@<TRIPOS>PROPERTY_DATA
  Total_Score	| 10.9869
  Crash		| -2.0644
  Polar		| 6.9517
  FragIndex	| 1
  FragRMSD	| 0.519

