@<TRIPOS>MOLECULE
BindingDB_28448
 52 54 0 0 0
SMALL
NO_CHARGES


@<TRIPOS>ATOM
1    O       -66.7296   -2.7056    4.4297  O     
2    O       -63.5527   -2.2972    4.2575  O     
3    O       -64.5544    0.1540    3.9659  O     
4    C       -66.8368   -5.8282   10.6852  C     
5    N       -67.5929   -0.6602    3.5508  N     
6    N       -66.9484   -4.7273    6.8609  N     
7    N       -69.0137    0.8373    2.6957  N     
8    N       -69.1606   -1.5901    5.2098  N     
9    N       -71.2970   -0.5898    5.1949  N     
10   N       -71.8373    1.1317    3.6935  N     
11   C       -65.6363   -3.0956    5.2931  C     
12   C       -64.5743   -1.9683    5.2197  C     
13   C       -65.3741   -0.7664    4.6953  C     
14   C       -66.4188   -1.4584    3.7867  C     
15   C       -66.2378   -3.4026    6.7058  C     
16   C       -68.7656   -0.7717    4.2019  C     
17   C       -67.7658    0.3244    2.6219  C     
18   C       -67.5233   -4.9364    8.2454  C     
19   C       -69.6420    0.1683    3.6681  C     
20   C       -66.4172   -5.2783    9.2889  C     
21   C       -70.9471    0.2550    4.1851  C     
22   C       -70.4231   -1.5006    5.7075  C     
23   N       -68.2769   -5.9960   10.9068  N     
24   C       -66.8007    0.8099    1.6148  C     
25   C       -67.9368   -5.0641    5.7864  C     
26   H       -62.7041   -2.2777    4.7522  H     
27   H       -63.6310   -0.1045    4.1566  H     
28   H       -66.3720   -6.8031   10.8519  H     
29   H       -66.4762   -5.1571   11.4671  H     
30   H       -66.2192   -5.4365    6.7603  H     
31   H       -71.5948    1.7360    2.9711  H     
32   H       -72.7375    1.1284    4.0437  H     
33   H       -65.1831   -4.0156    4.9022  H     
34   H       -64.1227   -1.7390    6.1951  H     
35   H       -65.8668   -0.2434    5.5292  H     
36   H       -65.9545   -1.7091    2.8257  H     
37   H       -66.9093   -2.5792    6.9874  H     
38   H       -65.4062   -3.3998    7.4129  H     
39   H       -68.0955   -4.0581    8.5867  H     
40   H       -68.2286   -5.7769    8.2467  H     
41   H       -65.8302   -4.3784    9.4655  H     
42   H       -65.7373   -6.0114    8.8296  H     
43   H       -70.7292   -2.1141    6.4626  H     
44   H       -68.6890   -5.0800   11.1232  H     
45   H       -68.4195   -6.6469   11.6984  H     
46   H       -68.7332   -6.3849   10.0728  H     
47   H       -65.9104    1.2152    2.1046  H     
48   H       -67.2438    1.6030    1.0194  H     
49   H       -66.5169   -0.0056    0.9514  H     
50   H       -68.7421   -4.3239    5.7366  H     
51   H       -68.3752   -6.0513    5.9488  H     
52   H       -67.4459   -5.1269    4.8175  H     
@<TRIPOS>BOND
     1    1   11 1
     2    1   14 1
     3   12    2 1
     4   13    3 1
     5    4   20 1
     6    4   23 1
     7   14    5 1
     8    5   16 1
     9    5   17 1
    10    6   15 1
    11    6   18 1
    12    6   25 1
    13    7   17 2
    14    7   19 1
    15    8   16 1
    16    8   22 2
    17    9   21 2
    18    9   22 1
    19   10   21 1
    20   11   12 1
    21   11   15 1
    22   12   13 1
    23   13   14 1
    24   16   19 2
    25   17   24 1
    26   18   20 1
    27   19   21 1
    28    2   26 1
    29    3   27 1
    30    4   28 1
    31    4   29 1
    32    6   30 1
    33   10   31 1
    34   10   32 1
    35   11   33 1
    36   12   34 1
    37   13   35 1
    38   14   36 1
    39   15   37 1
    40   15   38 1
    41   18   39 1
    42   18   40 1
    43   20   41 1
    44   20   42 1
    45   22   43 1
    46   23   44 1
    47   23   45 1
    48   23   46 1
    49   24   47 1
    50   24   48 1
    51   24   49 1
    52   25   50 1
    53   25   51 1
    54   25   52 1
@<TRIPOS>PROPERTY_DATA
  Total_Score	| 12.2710
  Crash		| -2.1131
  Polar		| 7.0937
  FragIndex	| 1
  FragRMSD	| 0.525

