@<TRIPOS>MOLECULE
BindingDB_28430
 53 55 0 0 0
SMALL
NO_CHARGES


@<TRIPOS>ATOM
1    O       -66.5771   -2.5331    4.1210  O     
2    O       -63.5500   -2.1590    4.1156  O     
3    O       -64.5433    0.4893    3.9473  O     
4    C       -66.3740   -5.7840    8.1386  C     
5    N       -67.5519   -0.4668    3.3940  N     
6    N       -67.7478   -3.3530    6.5162  N     
7    N       -68.9804    1.0479    2.5954  N     
8    N       -69.1422   -1.5195    4.9529  N     
9    N       -71.2840   -0.5555    4.9769  N     
10   N       -71.8548    1.2147    3.5756  N     
11   C       -66.4321   -4.9838    9.4657  C     
12   C       -65.6267   -2.8304    5.1566  C     
13   C       -64.5364   -1.7425    5.0611  C     
14   C       -65.3351   -0.5324    4.5474  C     
15   C       -66.3377   -1.2127    3.5898  C     
16   C       -66.3302   -2.8623    6.5445  C     
17   C       -68.7399   -0.6424    4.0011  C     
18   C       -67.7228    0.5663    2.5403  C     
19   C       -67.9751   -4.8149    6.2654  C     
20   C       -69.6266    0.3085    3.5045  C     
21   C       -68.5792   -2.7676    7.6108  C     
22   C       -67.7292   -5.8685    7.3797  C     
23   C       -70.9380    0.3401    4.0113  C     
24   C       -70.4073   -1.4786    5.4486  C     
25   O       -67.3744   -5.5550   10.3826  O     
26   N       -66.7595   -6.3063   11.3319  N     
27   H       -62.7179   -2.2256    4.6219  H     
28   H       -63.6121    0.1885    3.9827  H     
29   H       -65.6130   -5.3671    7.4806  H     
30   H       -66.0427   -6.7947    8.3884  H     
31   H       -68.1272   -2.9183    5.6759  H     
32   H       -71.6317    1.8643    2.8947  H     
33   H       -72.7542    1.1752    3.9379  H     
34   H       -65.4368   -4.8918    9.9169  H     
35   H       -66.7874   -3.9834    9.2398  H     
36   H       -65.1832   -3.8123    4.9642  H     
37   H       -64.0589   -1.5433    6.0232  H     
38   H       -65.8778   -0.0622    5.3730  H     
39   H       -65.8588   -1.3558    2.6169  H     
40   H       -66.3209   -1.8430    6.9361  H     
41   H       -65.7221   -3.4579    7.2240  H     
42   H       -67.0002    0.9504    1.9267  H     
43   H       -69.0274   -4.9010    5.9816  H     
44   H       -67.4184   -5.1331    5.3821  H     
45   H       -68.1180   -2.9057    8.5918  H     
46   H       -69.5929   -3.1828    7.6190  H     
47   H       -68.6795   -1.6945    7.4519  H     
48   H       -67.7719   -6.8448    6.8868  H     
49   H       -68.5626   -5.8568    8.0863  H     
50   H       -70.7074   -2.1449    6.1596  H     
51   H       -66.0832   -6.9483   10.9084  H     
52   H       -67.4636   -6.8390   11.8409  H     
53   H       -66.2734   -5.6858   11.9824  H     
@<TRIPOS>BOND
     1    1   12 1
     2    1   15 1
     3   13    2 1
     4   14    3 1
     5    4   11 1
     6    4   22 1
     7   15    5 1
     8    5   17 1
     9    5   18 1
    10    6   16 1
    11    6   19 1
    12    6   21 1
    13    7   18 2
    14    7   20 1
    15    8   17 1
    16    8   24 2
    17    9   23 2
    18    9   24 1
    19   10   23 1
    20   11   25 1
    21   12   13 1
    22   12   16 1
    23   13   14 1
    24   14   15 1
    25   17   20 2
    26   19   22 1
    27   20   23 1
    28   25   26 1
    29    2   27 1
    30    3   28 1
    31    4   29 1
    32    4   30 1
    33    6   31 1
    34   10   32 1
    35   10   33 1
    36   11   34 1
    37   11   35 1
    38   12   36 1
    39   13   37 1
    40   14   38 1
    41   15   39 1
    42   16   40 1
    43   16   41 1
    44   18   42 1
    45   19   43 1
    46   19   44 1
    47   21   45 1
    48   21   46 1
    49   21   47 1
    50   22   48 1
    51   22   49 1
    52   24   50 1
    53   26   51 1
    54   26   52 1
    55   26   53 1
@<TRIPOS>PROPERTY_DATA
  Total_Score	| 10.7874
  Crash		| -2.9708
  Polar		| 7.7920
  FragIndex	| 1
  FragRMSD	| 1.069

