@<TRIPOS>MOLECULE
BindingDB_28436
 52 54 0 0 0
SMALL
NO_CHARGES


@<TRIPOS>ATOM
1    O       -66.5111   -2.5910    4.1747  O     
2    O       -63.4452   -2.0651    4.2007  O     
3    O       -64.5453    0.4547    4.0649  O     
4    C       -68.6148   -5.6726    9.7849  C     
5    N       -67.5039   -0.5128    3.4903  N     
6    N       -67.1530   -4.3175    6.7332  N     
7    N       -68.9803    0.9486    2.6792  N     
8    N       -69.0499   -1.5523    5.1220  N     
9    N       -71.2204   -0.6250    5.1183  N     
10   N       -71.8129    1.1307    3.6953  N     
11   C       -65.5192   -2.9351    5.1618  C     
12   C       -64.4773   -1.7832    5.1549  C     
13   C       -65.3076   -0.5798    4.6895  C     
14   C       -66.2811   -1.2504    3.6976  C     
15   C       -66.2330   -3.1344    6.5352  C     
16   C       -68.6725   -0.6868    4.1431  C     
17   C       -67.7183    0.4844    2.5867  C     
18   C       -68.1317   -4.0705    7.8569  C     
19   C       -69.5822    0.2348    3.6339  C     
20   C       -67.8211   -4.8476    5.5024  C     
21   C       -68.8703   -5.3410    8.3951  C     
22   C       -70.8909    0.2664    4.1451  C     
23   C       -70.3233   -1.5236    5.6055  C     
24   N       -67.3932   -5.5635   10.2812  N     
25   O       -69.5280   -6.1421   10.4712  O     
26   C       -66.7693    1.0335    1.5992  C     
27   N       -67.0496   -5.9704   11.4228  N     
28   H       -62.6387   -2.2352    4.7288  H     
29   H       -63.6043    0.1898    4.1414  H     
30   H       -66.5507   -5.0799    7.0542  H     
31   H       -71.5877    1.7800    3.0098  H     
32   H       -72.7157    1.0915    4.0489  H     
33   H       -65.0260   -3.8688    4.8806  H     
34   H       -64.0283   -1.5917    6.1369  H     
35   H       -65.8509   -0.1519    5.5391  H     
36   H       -65.7656   -1.3612    2.7381  H     
37   H       -66.7621   -2.2026    6.7509  H     
38   H       -65.4498   -3.2390    7.2873  H     
39   H       -67.6072   -3.5937    8.6935  H     
40   H       -68.8825   -3.3450    7.5283  H     
41   H       -68.4643   -4.0903    5.0491  H     
42   H       -68.4267   -5.7370    5.7138  H     
43   H       -67.0725   -5.1581    4.7720  H     
44   H       -68.5751   -6.2150    7.8038  H     
45   H       -69.9461   -5.2167    8.2383  H     
46   H       -70.6119   -2.1801    6.3304  H     
47   H       -66.7144   -5.1261    9.7386  H     
48   H       -65.8960    1.4489    2.1061  H     
49   H       -67.2441    1.8287    1.0192  H     
50   H       -66.4514    0.2453    0.9123  H     
51   H       -66.2132   -5.7346   11.7682  H     
52   H       -67.5559   -6.6281   11.8577  H     
@<TRIPOS>BOND
     1    1   11 1
     2    1   14 1
     3   12    2 1
     4   13    3 1
     5    4   21 1
     6    4   24 am
     7    4   25 2
     8   14    5 1
     9    5   16 1
    10    5   17 1
    11    6   15 1
    12    6   18 1
    13    6   20 1
    14    7   17 2
    15    7   19 1
    16    8   16 1
    17    8   23 2
    18    9   22 2
    19    9   23 1
    20   10   22 1
    21   11   12 1
    22   11   15 1
    23   12   13 1
    24   13   14 1
    25   16   19 2
    26   17   26 1
    27   18   21 1
    28   19   22 1
    29   24   27 1
    30    2   28 1
    31    3   29 1
    32    6   30 1
    33   10   31 1
    34   10   32 1
    35   11   33 1
    36   12   34 1
    37   13   35 1
    38   14   36 1
    39   15   37 1
    40   15   38 1
    41   18   39 1
    42   18   40 1
    43   20   41 1
    44   20   42 1
    45   20   43 1
    46   21   44 1
    47   21   45 1
    48   23   46 1
    49   24   47 1
    50   26   48 1
    51   26   49 1
    52   26   50 1
    53   27   51 1
    54   27   52 1
@<TRIPOS>PROPERTY_DATA
  Total_Score	| 11.5043
  Crash		| -2.0108
  Polar		| 7.7936
  FragIndex	| 1
  FragRMSD	| 0.516

