@<TRIPOS>MOLECULE
BindingDB_28443
 49 51 0 0 0
SMALL
NO_CHARGES


@<TRIPOS>ATOM
1    O       -66.6631   -2.7300    4.3318  O     
2    O       -63.5522   -2.3761    4.3033  O     
3    O       -64.5597    0.2484    4.1265  O     
4    N       -66.9948   -5.4392   10.7597  N     
5    N       -67.5489   -0.6627    3.5542  N     
6    N       -66.9024   -4.6962    6.9311  N     
7    N       -68.9669    0.8338    2.7154  N     
8    N       -69.1165   -1.6323    5.2024  N     
9    N       -71.2605   -0.6200    5.1991  N     
10   N       -71.7828    1.1276    3.7172  N     
11   C       -65.6551   -3.1088    5.3052  C     
12   C       -64.5610   -2.0043    5.2478  C     
13   C       -65.3518   -0.7732    4.7544  C     
14   C       -66.3581   -1.4385    3.7867  C     
15   C       -66.3219   -3.3248    6.7107  C     
16   C       -68.7198   -0.7899    4.2110  C     
17   C       -67.7189    0.3245    2.6327  C     
18   C       -67.4516   -4.9147    8.3145  C     
19   C       -69.5989    0.1558    3.6833  C     
20   C       -67.8931   -5.1359    5.8931  C     
21   C       -66.4058   -5.1997    9.4233  C     
22   C       -70.9017    0.2367    4.2016  C     
23   C       -70.3833   -1.5450    5.6924  C     
24   C       -66.7533    0.8025    1.6217  C     
25   H       -62.6943   -2.1710    4.7164  H     
26   H       -63.6240   -0.0688    4.1452  H     
27   H       -67.7386   -4.7587   10.9566  H     
28   H       -66.2755   -5.3581   11.4715  H     
29   H       -67.3751   -6.3844   10.7972  H     
30   H       -66.1194   -5.3493    6.8343  H     
31   H       -71.5229    1.7322    3.0035  H     
32   H       -72.6928    1.1174    4.0469  H     
33   H       -65.1986   -4.0683    4.9968  H     
34   H       -64.0889   -1.8173    6.2186  H     
35   H       -65.8836   -0.3393    5.6098  H     
36   H       -65.8668   -1.6320    2.8368  H     
37   H       -67.0893   -2.5528    6.8634  H     
38   H       -65.5368   -3.1658    7.4628  H     
39   H       -68.0527   -4.0441    8.6129  H     
40   H       -68.1331   -5.7722    8.2842  H     
41   H       -68.7727   -4.4802    5.8707  H     
42   H       -68.2353   -6.1533    6.0867  H     
43   H       -67.4486   -5.1617    4.8979  H     
44   H       -65.7324   -4.3415    9.5191  H     
45   H       -65.8066   -6.0905    9.1613  H     
46   H       -70.6810   -2.1703    6.4399  H     
47   H       -65.8391    1.1583    2.1098  H     
48   H       -67.1921    1.6259    1.0367  H     
49   H       -66.5149   -0.0216    0.9406  H     
@<TRIPOS>BOND
     1    1   11 1
     2    1   14 1
     3   12    2 1
     4   13    3 1
     5    4   21 1
     6   14    5 1
     7    5   16 1
     8    5   17 1
     9    6   15 1
    10    6   18 1
    11    6   20 1
    12    7   17 2
    13    7   19 1
    14    8   16 1
    15    8   23 2
    16    9   22 2
    17    9   23 1
    18   10   22 1
    19   11   12 1
    20   11   15 1
    21   12   13 1
    22   13   14 1
    23   16   19 2
    24   17   24 1
    25   18   21 1
    26   19   22 1
    27    2   25 1
    28    3   26 1
    29    4   27 1
    30    4   28 1
    31    4   29 1
    32    6   30 1
    33   10   31 1
    34   10   32 1
    35   11   33 1
    36   12   34 1
    37   13   35 1
    38   14   36 1
    39   15   37 1
    40   15   38 1
    41   18   39 1
    42   18   40 1
    43   20   41 1
    44   20   42 1
    45   20   43 1
    46   21   44 1
    47   21   45 1
    48   23   46 1
    49   24   47 1
    50   24   48 1
    51   24   49 1
@<TRIPOS>PROPERTY_DATA
  Total_Score	| 11.2380
  Crash		| -1.5214
  Polar		| 7.1213
  FragIndex	| 1
  FragRMSD	| 0.393

