@<TRIPOS>MOLECULE
BindingDB_28449
 55 57 0 0 0
SMALL
NO_CHARGES


@<TRIPOS>ATOM
1    O       -66.6895   -2.6412    4.3110  O     
2    O       -63.5653   -2.3140    4.2752  O     
3    O       -64.5591    0.3146    4.5533  O     
4    C       -66.6429   -5.5927   10.0496  C     
5    N       -67.4925   -0.5307    3.5750  N     
6    N       -67.2860   -4.6233    6.4610  N     
7    N       -68.9723    0.7953    2.5796  N     
8    N       -69.0214   -1.3390    5.3410  N     
9    N       -71.2252   -0.5034    5.1802  N     
10   N       -71.8487    0.9941    3.4885  N     
11   C       -65.6509   -3.1556    5.1692  C     
12   C       -64.5680   -2.0520    5.2618  C     
13   C       -65.3779   -0.7885    4.9379  C     
14   C       -66.3244   -1.3282    3.8468  C     
15   C       -66.2192   -3.5626    6.5590  C     
16   C       -68.6544   -0.6168    4.2489  C     
17   C       -67.6955    0.3568    2.5594  C     
18   C       -67.1879   -5.6879    7.5145  C     
19   C       -69.5838    0.1954    3.6080  C     
20   C       -67.6772   -5.2861    8.9372  C     
21   C       -70.9068    0.2463    4.0863  C     
22   C       -70.2983   -1.2742    5.8116  C     
23   N       -67.2891   -5.6965   11.3680  N     
24   C       -66.7528    0.8533    1.5323  C     
25   C       -68.6671   -4.0708    6.2856  C     
26   C       -65.3940    1.3064    2.1138  C     
27   H       -62.7523   -1.8728    4.5920  H     
28   H       -63.6730   -0.0512    4.3232  H     
29   H       -66.1168   -6.5306    9.8538  H     
30   H       -65.9043   -4.7820   10.0933  H     
31   H       -67.0927   -5.1237    5.5869  H     
32   H       -71.6290    1.5471    2.7229  H     
33   H       -72.7556    0.9698    3.8223  H     
34   H       -65.2272   -4.0506    4.7004  H     
35   H       -64.0971   -1.9707    6.2449  H     
36   H       -65.9571   -0.4837    5.8122  H     
37   H       -65.7590   -1.4672    2.9230  H     
38   H       -66.5771   -2.6704    7.0879  H     
39   H       -65.3736   -3.9365    7.1470  H     
40   H       -67.7565   -6.5596    7.1862  H     
41   H       -66.1453   -6.0124    7.5668  H     
42   H       -68.6134   -5.8124    9.1559  H     
43   H       -67.8844   -4.2189    8.9750  H     
44   H       -70.5657   -1.8114    6.6382  H     
45   H       -68.1441   -5.1238   11.3880  H     
46   H       -66.6309   -5.3490   12.0756  H     
47   H       -67.5167   -6.6747   11.5810  H     
48   H       -66.6029    0.0864    0.7726  H     
49   H       -67.2038    1.7160    1.0350  H     
50   H       -68.8843   -3.2882    7.0219  H     
51   H       -69.4140   -4.8532    6.3751  H     
52   H       -68.7645   -3.6587    5.2876  H     
53   H       -65.5002    1.7166    3.1171  H     
54   H       -64.9558    2.0791    1.4838  H     
55   H       -64.6996    0.4655    2.1480  H     
@<TRIPOS>BOND
     1    1   11 1
     2    1   14 1
     3   12    2 1
     4   13    3 1
     5    4   20 1
     6    4   23 1
     7   14    5 1
     8    5   16 1
     9    5   17 1
    10    6   15 1
    11    6   18 1
    12    6   25 1
    13    7   17 2
    14    7   19 1
    15    8   16 1
    16    8   22 2
    17    9   21 2
    18    9   22 1
    19   10   21 1
    20   11   12 1
    21   11   15 1
    22   12   13 1
    23   13   14 1
    24   16   19 2
    25   17   24 1
    26   18   20 1
    27   19   21 1
    28   24   26 1
    29    2   27 1
    30    3   28 1
    31    4   29 1
    32    4   30 1
    33    6   31 1
    34   10   32 1
    35   10   33 1
    36   11   34 1
    37   12   35 1
    38   13   36 1
    39   14   37 1
    40   15   38 1
    41   15   39 1
    42   18   40 1
    43   18   41 1
    44   20   42 1
    45   20   43 1
    46   22   44 1
    47   23   45 1
    48   23   46 1
    49   23   47 1
    50   24   48 1
    51   24   49 1
    52   25   50 1
    53   25   51 1
    54   25   52 1
    55   26   53 1
    56   26   54 1
    57   26   55 1
@<TRIPOS>PROPERTY_DATA
  Total_Score	| 12.0855
  Crash		| -2.6770
  Polar		| 8.4589
  FragIndex	| 1
  FragRMSD	| 0.610

