@<TRIPOS>MOLECULE
BindingDB_28421
 50 52 0 0 0
SMALL
NO_CHARGES


@<TRIPOS>ATOM
1    O       -66.6243   -2.7027    4.1799  O     
2    O       -63.5542   -2.3491    4.1630  O     
3    O       -64.5295    0.2429    4.0748  O     
4    O       -67.5777   -5.6673   10.2429  O     
5    N       -67.5281   -0.5885    3.5116  N     
6    N       -67.1029   -4.6443    6.6595  N     
7    N       -68.9848    0.8748    2.6887  N     
8    N       -69.0629   -1.5636    5.1845  N     
9    N       -71.2257   -0.6220    5.1810  N     
10   N       -71.8147    1.0868    3.6906  N     
11   N       -66.7771   -6.2269   11.1879  N     
12   C       -65.6423   -3.1069    5.1522  C     
13   C       -64.5482   -2.0095    5.1340  C     
14   C       -65.3284   -0.7656    4.6968  C     
15   C       -66.3368   -1.3751    3.7065  C     
16   C       -66.3464   -3.3440    6.5270  C     
17   C       -68.6865   -0.7216    4.1867  C     
18   C       -67.7314    0.3908    2.5917  C     
19   C       -67.7904   -4.7935    7.9922  C     
20   C       -69.5895    0.1993    3.6671  C     
21   C       -68.0387   -4.9475    5.5348  C     
22   C       -66.8202   -5.1183    9.1483  C     
23   C       -70.8958    0.2368    4.1777  C     
24   C       -70.3286   -1.5158    5.6837  C     
25   C       -66.7793    0.8817    1.5798  C     
26   H       -62.6934   -2.1738    4.5914  H     
27   H       -63.5888    0.0361    4.2815  H     
28   H       -66.3956   -5.3787    6.6178  H     
29   H       -71.5846    1.7024    2.9753  H     
30   H       -72.7239    1.0552    4.0286  H     
31   H       -66.0871   -6.8380   10.7427  H     
32   H       -67.3502   -6.7926   11.8200  H     
33   H       -66.2963   -5.4996   11.7235  H     
34   H       -65.2000   -4.0573    4.8416  H     
35   H       -64.0700   -1.8706    6.1063  H     
36   H       -65.8400   -0.3349    5.5589  H     
37   H       -65.8375   -1.5079    2.7424  H     
38   H       -67.0033   -2.4939    6.7458  H     
39   H       -65.5668   -3.3454    7.2931  H     
40   H       -68.3645   -3.8985    8.2411  H     
41   H       -68.4986   -5.6283    7.9594  H     
42   H       -67.5075   -5.0114    4.5820  H     
43   H       -68.8212   -4.1847    5.4589  H     
44   H       -68.5141   -5.9252    5.6701  H     
45   H       -66.2839   -4.2246    9.4796  H     
46   H       -66.0876   -5.8577    8.7936  H     
47   H       -70.6074   -2.1558    6.4301  H     
48   H       -65.8939    1.2923    2.0668  H     
49   H       -67.2339    1.6656    0.9713  H     
50   H       -66.4820    0.0620    0.9227  H     
@<TRIPOS>BOND
     1    1   12 1
     2    1   15 1
     3   13    2 1
     4   14    3 1
     5    4   11 1
     6    4   22 1
     7   15    5 1
     8    5   17 1
     9    5   18 1
    10    6   16 1
    11    6   19 1
    12    6   21 1
    13    7   18 2
    14    7   20 1
    15    8   17 2
    16    8   24 1
    17    9   23 1
    18    9   24 2
    19   10   23 1
    20   12   13 1
    21   12   16 1
    22   13   14 1
    23   14   15 1
    24   17   20 1
    25   18   25 1
    26   19   22 1
    27   20   23 2
    28    2   26 1
    29    3   27 1
    30    6   28 1
    31   10   29 1
    32   10   30 1
    33   11   31 1
    34   11   32 1
    35   11   33 1
    36   12   34 1
    37   13   35 1
    38   14   36 1
    39   15   37 1
    40   16   38 1
    41   16   39 1
    42   19   40 1
    43   19   41 1
    44   21   42 1
    45   21   43 1
    46   21   44 1
    47   22   45 1
    48   22   46 1
    49   24   47 1
    50   25   48 1
    51   25   49 1
    52   25   50 1
@<TRIPOS>PROPERTY_DATA
  Total_Score	| 12.8907
  Crash		| -1.7492
  Polar		| 8.4413
  FragIndex	| 1
  FragRMSD	| 0.304

