@<TRIPOS>MOLECULE
BindingDB_28438
 49 51 0 0 0
SMALL
NO_CHARGES


@<TRIPOS>ATOM
1    O       -66.6179   -2.7393    4.3438  O     
2    O       -63.5553   -2.3277    4.2565  O     
3    O       -64.5505    0.2388    4.1755  O     
4    N       -66.8750   -5.5665   10.6123  N     
5    N       -67.5403   -0.6568    3.5975  N     
6    N       -66.8892   -4.6994    6.9296  N     
7    N       -68.9772    0.8192    2.7660  N     
8    N       -69.0958   -1.6286    5.2546  N     
9    N       -71.2389   -0.6502    5.2541  N     
10   N       -71.8074    1.0740    3.7766  N     
11   C       -65.6149   -3.1054    5.3110  C     
12   C       -64.5366   -1.9956    5.2484  C     
13   C       -65.3457   -0.7779    4.7928  C     
14   C       -66.3450   -1.4319    3.8169  C     
15   C       -66.2870   -3.3315    6.7082  C     
16   C       -68.7071   -0.7878    4.2571  C     
17   C       -67.7241    0.3302    2.6798  C     
18   C       -67.4811   -4.9033    8.3053  C     
19   C       -69.5969    0.1409    3.7357  C     
20   C       -67.8613   -5.0981    5.8602  C     
21   C       -66.5574   -5.0808    9.4222  C     
22   C       -70.9008    0.2066    4.2535  C     
23   C       -70.3608   -1.5610    5.7539  C     
24   C       -66.7571    0.8277    1.6876  C     
25   O       -65.3703   -4.8213    9.2811  O     
26   N       -68.0000   -6.0425   10.9389  N     
27   H       -62.6993   -2.3680    4.7318  H     
28   H       -63.6162    0.0942    4.4701  H     
29   H       -66.1732   -5.6049   11.2812  H     
30   H       -66.1195   -5.3546    6.8455  H     
31   H       -71.5744    1.6877    3.0630  H     
32   H       -72.7121    1.0572    4.1272  H     
33   H       -65.1607   -4.0544    5.0055  H     
34   H       -64.0495   -1.8110    6.2105  H     
35   H       -65.8686   -0.3394    5.6452  H     
36   H       -65.8430   -1.5921    2.8585  H     
37   H       -67.0357   -2.5510    6.8790  H     
38   H       -65.5132   -3.1819    7.4629  H     
39   H       -68.1542   -4.0681    8.5440  H     
40   H       -68.0989   -5.8071    8.2962  H     
41   H       -68.7086   -4.4016    5.8056  H     
42   H       -68.2552   -6.1044    6.0402  H     
43   H       -67.3813   -5.1427    4.8797  H     
44   H       -70.6495   -2.1949    6.5002  H     
45   H       -65.8792    1.2265    2.1917  H     
46   H       -67.1965    1.6204    1.0821  H     
47   H       -66.4552    0.0159    1.0254  H     
48   H       -68.0719   -6.5355   11.7316  H     
49   H       -68.7130   -6.0427   10.3352  H     
@<TRIPOS>BOND
     1    1   11 1
     2    1   14 1
     3   12    2 1
     4   13    3 1
     5    4   21 am
     6    4   26 1
     7   14    5 1
     8    5   16 1
     9    5   17 1
    10    6   15 1
    11    6   18 1
    12    6   20 1
    13    7   17 2
    14    7   19 1
    15    8   16 1
    16    8   23 2
    17    9   22 2
    18    9   23 1
    19   10   22 1
    20   11   12 1
    21   11   15 1
    22   12   13 1
    23   13   14 1
    24   16   19 2
    25   17   24 1
    26   18   21 1
    27   19   22 1
    28   21   25 2
    29    2   27 1
    30    3   28 1
    31    4   29 1
    32    6   30 1
    33   10   31 1
    34   10   32 1
    35   11   33 1
    36   12   34 1
    37   13   35 1
    38   14   36 1
    39   15   37 1
    40   15   38 1
    41   18   39 1
    42   18   40 1
    43   20   41 1
    44   20   42 1
    45   20   43 1
    46   23   44 1
    47   24   45 1
    48   24   46 1
    49   24   47 1
    50   26   48 1
    51   26   49 1
@<TRIPOS>PROPERTY_DATA
  Total_Score	| 11.7928
  Crash		| -1.7458
  Polar		| 7.6852
  FragIndex	| 1
  FragRMSD	| 0.375

