@<TRIPOS>MOLECULE
BindingDB_50386765
 54 57 0 0 0
SMALL
NO_CHARGES


@<TRIPOS>ATOM
1    N       -10.9782   18.2425    1.7078  N     
2    C       -11.0697   17.9992    0.3869  C     
3    C        -9.7721   18.0190   -0.1467  C     
4    N        -8.9137   18.2817    0.8676  N     
5    C       -12.0012   18.0310    2.7057  C     
6    N       -12.1612   17.7234   -0.3956  N     
7    C        -9.6797   18.5095    1.9630  C     
8    C        -9.6386   17.7694   -1.5134  C     
9    N       -10.7240   17.5261   -2.2539  N     
10   C       -12.1977   16.5146    2.9814  C     
11   C       -11.9768   17.4978   -1.7260  C     
12   O       -11.6776   18.6505    3.9742  O     
13   P        -9.0482   18.6317    6.4303  P     
14   C       -12.1620   17.7804    5.0052  C     
15   C       -11.8425   16.3759    4.4728  C     
16   C       -11.6043   18.1085    6.4228  C     
17   O       -10.2591   17.6921    6.7294  O     
18   O        -8.5510   17.8178   -2.0627  O     
19   O        -8.0331   18.4432    7.5747  O     
20   O        -8.2926   18.1723    5.1692  O     
21   O        -9.3446   20.0398    6.3504  O     
22   C        -7.4609   18.2489    0.8855  C     
23   N       -13.0185   17.2384   -2.5231  N     
24   O       -13.5406   16.1135    2.7145  O     
25   O       -12.5762   15.3582    5.1435  O     
26   C        -6.8649   17.5970    2.1878  C     
27   O        -5.9204   16.5185    1.9495  O     
28   C        -5.7071   15.6320    2.9890  C     
29   C        -5.1349   14.3846    2.6503  C     
30   C        -6.0569   15.8605    4.3463  C     
31   C        -5.8925   14.8435    5.3184  C     
32   C        -4.9281   13.3855    3.6252  C     
33   C        -5.3190   13.6105    4.9569  C     
34   H       -12.9310   18.4751    2.3458  H     
35   H        -9.3002   18.7319    2.8918  H     
36   H       -10.6181   17.3620   -3.2016  H     
37   H       -11.5305   15.8804    2.3872  H     
38   H       -13.2492   17.9122    5.0655  H     
39   H       -10.7713   16.1629    4.5711  H     
40   H       -11.7717   19.1663    6.6600  H     
41   H       -12.2152   17.5360    7.1328  H     
42   H        -7.0795   17.7097    0.0166  H     
43   H        -7.1086   19.2827    0.7968  H     
44   H       -12.8741   17.0938   -3.4687  H     
45   H       -13.9151   17.2059   -2.1628  H     
46   H       -13.6693   16.2573    1.7524  H     
47   H       -12.2893   14.5156    4.7180  H     
48   H        -6.3523   18.3970    2.7518  H     
49   H        -7.6997   17.2218    2.8083  H     
50   H        -4.8817   14.1868    1.6774  H     
51   H        -6.4551   16.7552    4.6325  H     
52   H        -6.1798   15.0081    6.2919  H     
53   H        -4.5066   12.4918    3.3681  H     
54   H        -5.1822   12.8830    5.6625  H     
@<TRIPOS>BOND
     1    1    2 1
     2    5    1 1
     3    1    7 1
     4    2    3 2
     5    2    6 1
     6    3    4 1
     7    3    8 1
     8    4    7 2
     9    4   22 1
    10    5   10 1
    11    5   12 1
    12    6   11 2
    13    8    9 1
    14    8   18 2
    15    9   11 1
    16   10   15 1
    17   10   24 1
    18   11   23 1
    19   12   14 1
    20   13   17 1
    21   13   19 1
    22   13   20 1
    23   13   21 2
    24   14   15 1
    25   14   16 1
    26   15   25 1
    27   16   17 1
    28   22   26 1
    29   26   27 1
    30   27   28 1
    31   28   29 2
    32   28   30 1
    33   29   32 1
    34   30   31 2
    35   31   33 1
    36   32   33 2
    37    5   34 1
    38    7   35 1
    39    9   36 1
    40   10   37 1
    41   14   38 1
    42   15   39 1
    43   16   40 1
    44   16   41 1
    45   22   42 1
    46   22   43 1
    47   23   44 1
    48   23   45 1
    49   24   46 1
    50   25   47 1
    51   26   48 1
    52   26   49 1
    53   29   50 1
    54   30   51 1
    55   31   52 1
    56   32   53 1
    57   33   54 1
@<TRIPOS>PROPERTY_DATA
  Total_Score	| 9.4269
  Crash		| -1.0018
  Polar		| 7.5515
  FragIndex	| 1
  FragRMSD	| 0.567

