@<TRIPOS>MOLECULE
BindingDB_50386763
 53 56 0 0 0
SMALL
NO_CHARGES


@<TRIPOS>ATOM
1    N       -11.2904   17.9858    1.6617  N     
2    C       -11.3190   17.9181    0.3170  C     
3    C       -10.0060   17.9984   -0.1626  C     
4    N        -9.1881   18.1393    0.9104  N     
5    C       -12.3924   17.8872    2.5854  C     
6    N       -12.3649   17.7229   -0.5357  N     
7    C        -9.9858   18.1047    2.0008  C     
8    C        -9.8063   17.8519   -1.5364  C     
9    N       -10.8467   17.6396   -2.3379  N     
10   C       -12.6239   16.4412    3.0897  C     
11   C       -12.1220   17.5824   -1.8677  C     
12   O       -12.1354   18.7041    3.7453  O     
13   P        -8.5588   18.7813    6.0707  P     
14   C       -12.1591   17.9019    4.9317  C     
15   C       -11.9606   16.4416    4.4739  C     
16   C        -7.7425   18.2020    0.9792  C     
17   C       -11.1204   18.4192    5.9642  C     
18   O        -9.7989   17.9112    5.6544  O     
19   O        -8.6871   17.8613   -2.0236  O     
20   O        -7.5228   18.6199    4.9267  O     
21   O        -7.8274   18.2941    7.3448  O     
22   O        -8.8624   20.1866    6.1655  O     
23   N       -13.1299   17.3655   -2.7267  N     
24   O       -14.0239   16.1587    3.1865  O     
25   O       -12.5407   15.5014    5.3732  O     
26   C        -7.9377   23.4268    0.4174  C     
27   C        -7.1604   19.3911    1.8082  C     
28   C        -7.4773   20.7632    1.3050  C     
29   Cl       -8.2768   24.9809   -0.1377  Cl    
30   C        -7.4601   22.4531   -0.4759  C     
31   C        -8.1793   23.0730    1.7545  C     
32   C        -7.2194   21.1365   -0.0349  C     
33   C        -7.9552   21.7554    2.1958  C     
34   H       -13.2954   18.2661    2.0999  H     
35   H        -9.6369   18.1345    2.9622  H     
36   H       -10.6948   17.5089   -3.2838  H     
37   H       -12.1717   15.6900    2.4324  H     
38   H       -13.1479   18.0105    5.3736  H     
39   H       -10.8995   16.2103    4.3658  H     
40   H        -7.4040   17.2730    1.4607  H     
41   H        -7.2995   18.2170   -0.0213  H     
42   H       -11.1311   19.5238    5.9454  H     
43   H       -11.4028   18.0914    6.9805  H     
44   H       -12.9430   17.2354   -3.6740  H     
45   H       -14.0466   17.3236   -2.4070  H     
46   H       -14.3493   16.1522    2.2594  H     
47   H       -12.3247   14.6201    4.9984  H     
48   H        -7.4976   19.2597    2.8472  H     
49   H        -6.0706   19.2883    1.8183  H     
50   H        -7.3058   22.6710   -1.4642  H     
51   H        -8.5299   23.7732    2.4103  H     
52   H        -6.8562   20.4425   -0.6994  H     
53   H        -8.1373   21.5296    3.1788  H     
@<TRIPOS>BOND
     1    1    2 1
     2    5    1 1
     3    1    7 1
     4    2    3 2
     5    2    6 1
     6    3    4 1
     7    3    8 1
     8    4    7 2
     9    4   16 1
    10    5   10 1
    11    5   12 1
    12    6   11 2
    13    8    9 1
    14    8   19 2
    15    9   11 1
    16   10   15 1
    17   10   24 1
    18   11   23 1
    19   12   14 1
    20   13   18 1
    21   13   20 1
    22   13   21 1
    23   13   22 2
    24   14   15 1
    25   14   17 1
    26   15   25 1
    27   16   27 1
    28   17   18 1
    29   26   29 1
    30   26   30 1
    31   26   31 2
    32   27   28 1
    33   28   32 1
    34   28   33 2
    35   30   32 2
    36   31   33 1
    37    5   34 1
    38    7   35 1
    39    9   36 1
    40   10   37 1
    41   14   38 1
    42   15   39 1
    43   16   40 1
    44   16   41 1
    45   17   42 1
    46   17   43 1
    47   23   44 1
    48   23   45 1
    49   24   46 1
    50   25   47 1
    51   27   48 1
    52   27   49 1
    53   30   50 1
    54   31   51 1
    55   32   52 1
    56   33   53 1
@<TRIPOS>PROPERTY_DATA
  Total_Score	| 9.7678
  Crash		| -1.2164
  Polar		| 8.2371
  FragIndex	| 1
  FragRMSD	| 0.156

