@<TRIPOS>MOLECULE
BindingDB_50316302
 48 50 0 0 0
SMALL
NO_CHARGES


@<TRIPOS>ATOM
1    N       -10.8363   16.9824    1.6625  N     
2    C       -11.0587   17.0636    0.3391  C     
3    C        -9.9059   17.5645   -0.2716  C     
4    N        -9.0003   17.8012    0.7003  N     
5    C       -11.7148   16.4031    2.6511  C     
6    N       -12.1563   16.7247   -0.4004  N     
7    C        -9.5792   17.4417    1.8622  C     
8    P        -9.0903   18.1004    8.9489  P     
9    C        -9.9021   17.6754   -1.6577  C     
10   N       -10.9890   17.3417   -2.3525  N     
11   C       -13.1480   16.9939    2.7783  C     
12   C       -12.1194   16.8768   -1.7510  C     
13   O       -11.1470   16.5286    3.9620  O     
14   P        -8.8312   18.5381    6.3827  P     
15   O        -8.1243   18.3204    7.7498  O     
16   O       -10.1153   16.9320    8.8240  O     
17   P        -9.5309   15.5432    8.4283  P     
18   C       -11.7200   17.7040    4.5430  C     
19   C       -13.2117   17.5206    4.2297  C     
20   O        -9.8540   19.4035    9.2582  O     
21   C       -11.2939   17.7988    6.0204  C     
22   O        -8.2681   17.9292   10.1172  O     
23   O        -9.8979   17.4414    6.0884  O     
24   O        -8.9162   18.0555   -2.2647  O     
25   O        -9.2589   20.0036    6.1561  O     
26   O        -9.1762   14.6847    9.6569  O     
27   O        -7.7898   18.3116    5.4152  O     
28   O        -8.4189   15.5814    7.5117  O     
29   N       -13.1904   16.5661   -2.4962  N     
30   C        -7.6614   18.3018    0.6226  C     
31   O       -13.3993   18.0478    1.8540  O     
32   O       -10.6537   14.7818    7.7031  O     
33   O       -13.8147   16.5581    5.0972  O     
34   H       -11.7858   15.3323    2.4392  H     
35   H        -9.1035   17.4808    2.7678  H     
36   H       -10.9708   17.4151   -3.3191  H     
37   H       -13.9010   16.2174    2.6130  H     
38   H       -11.3512   18.6063    4.0375  H     
39   H       -13.7530   18.4675    4.3115  H     
40   H       -11.8443   17.0548    6.5988  H     
41   H       -11.5400   18.7847    6.4285  H     
42   H       -13.1561   16.6687   -3.4614  H     
43   H       -13.9977   16.2332   -2.0733  H     
44   H        -7.3554   18.5198   -0.3976  H     
45   H        -6.9680   17.5659    1.0342  H     
46   H        -7.5795   19.2228    1.2032  H     
47   H       -14.3053   18.3483    2.0731  H     
48   H       -14.7640   16.5498    4.8509  H     
@<TRIPOS>BOND
     1    1    2 1
     2    5    1 1
     3    1    7 1
     4    2    3 2
     5    2    6 1
     6    3    9 1
     7    3    4 1
     8    4    7 2
     9    4   30 1
    10    5   11 1
    11    5   13 1
    12    6   12 2
    13    8   15 1
    14    8   16 1
    15    8   20 1
    16    8   22 2
    17    9   10 1
    18    9   24 2
    19   10   12 1
    20   11   19 1
    21   11   31 1
    22   12   29 1
    23   13   18 1
    24   14   23 1
    25   14   15 1
    26   14   25 1
    27   14   27 2
    28   16   17 1
    29   17   26 1
    30   17   28 2
    31   17   32 1
    32   18   21 1
    33   18   19 1
    34   19   33 1
    35   21   23 1
    36    5   34 1
    37    7   35 1
    38   10   36 1
    39   11   37 1
    40   18   38 1
    41   19   39 1
    42   21   40 1
    43   21   41 1
    44   29   42 1
    45   29   43 1
    46   30   44 1
    47   30   45 1
    48   30   46 1
    49   31   47 1
    50   33   48 1
@<TRIPOS>PROPERTY_DATA
  Total_Score	| 7.5250
  Crash		| -1.1959
  Polar		| 8.6480
  FragIndex	| 1
  FragRMSD	| 1.243

