@<TRIPOS>MOLECULE
BindingDB_50386766
 54 57 0 0 0
SMALL
NO_CHARGES


@<TRIPOS>ATOM
1    N       -10.9918   18.1069    1.7075  N     
2    C       -11.0692   17.8932    0.3833  C     
3    C        -9.7668   17.9011   -0.1326  C     
4    N        -8.9094   18.1398    0.8945  N     
5    C       -12.0356   17.9246    2.6840  C     
6    N       -12.1612   17.7151   -0.4236  N     
7    C        -9.6903   18.3064    1.9878  C     
8    C        -9.6299   17.7113   -1.5075  C     
9    N       -10.7089   17.5407   -2.2734  N     
10   C       -11.9920   16.4884    3.2480  C     
11   C       -11.9737   17.5508   -1.7596  C     
12   O       -11.9198   18.8109    3.8118  O     
13   P        -8.5457   18.8508    5.9719  P     
14   C       -12.2233   18.1056    5.0349  C     
15   C       -12.5875   16.6416    4.6506  C     
16   C       -11.0614   18.2837    6.0654  C     
17   O        -9.7737   18.0225    5.4703  O     
18   O        -8.5310   17.7290   -2.0445  O     
19   O        -7.7994   18.2912    7.1976  O     
20   O        -7.5072   18.9397    4.8389  O     
21   O        -8.9005   20.2251    6.2317  O     
22   C        -7.4676   18.3144    0.8894  C     
23   N       -13.0341   17.4096   -2.5692  N     
24   O       -12.7005   15.5561    2.4332  O     
25   O       -14.0078   16.4738    4.6341  O     
26   C        -5.4726   13.6763    4.9590  C     
27   C        -5.7824   15.7203    3.0091  C     
28   Cl       -5.3040   12.4673    6.1362  Cl    
29   C        -5.1456   13.4307    3.6109  C     
30   C        -5.9419   14.9436    5.3332  C     
31   C        -5.3208   14.4404    2.6460  C     
32   C        -6.0576   15.9724    4.3776  C     
33   O        -5.9623   16.6114    1.9658  O     
34   C        -6.6873   17.8610    2.1588  C     
35   H       -13.0116   18.1163    2.2278  H     
36   H        -9.3470   18.5207    2.9228  H     
37   H       -10.6053   17.4067   -3.2319  H     
38   H       -10.9608   16.1408    3.3406  H     
39   H       -13.1138   18.5776    5.4684  H     
40   H       -12.1717   15.8991    5.3361  H     
41   H       -11.1289   19.3103    6.4538  H     
42   H       -11.1927   17.6106    6.9226  H     
43   H        -7.0222   17.8280    0.0208  H     
44   H        -7.3009   19.3895    0.7568  H     
45   H       -12.9018   17.2913   -3.5276  H     
46   H       -13.9348   17.4350   -2.2026  H     
47   H       -12.0967   15.3357    1.6928  H     
48   H       -14.1611   15.5256    4.4344  H     
49   H        -4.7955   12.5181    3.3314  H     
50   H        -6.1945   15.1328    6.3142  H     
51   H        -5.1080   14.2363    1.6654  H     
52   H        -6.3644   16.9065    4.6766  H     
53   H        -5.9603   18.6412    2.4279  H     
54   H        -7.3892   17.7736    2.9915  H     
@<TRIPOS>BOND
     1    1    2 1
     2    5    1 1
     3    1    7 1
     4    2    3 2
     5    2    6 1
     6    3    4 1
     7    3    8 1
     8    4    7 2
     9    4   22 1
    10    5   10 1
    11    5   12 1
    12    6   11 2
    13    8    9 1
    14    8   18 2
    15    9   11 1
    16   10   15 1
    17   10   24 1
    18   11   23 1
    19   12   14 1
    20   13   17 1
    21   13   19 1
    22   13   20 1
    23   13   21 2
    24   14   15 1
    25   14   16 1
    26   15   25 1
    27   16   17 1
    28   22   34 1
    29   26   28 1
    30   26   29 1
    31   26   30 2
    32   27   31 1
    33   27   32 2
    34   27   33 1
    35   29   31 2
    36   30   32 1
    37   33   34 1
    38    5   35 1
    39    7   36 1
    40    9   37 1
    41   10   38 1
    42   14   39 1
    43   15   40 1
    44   16   41 1
    45   16   42 1
    46   22   43 1
    47   22   44 1
    48   23   45 1
    49   23   46 1
    50   24   47 1
    51   25   48 1
    52   29   49 1
    53   30   50 1
    54   31   51 1
    55   32   52 1
    56   34   53 1
    57   34   54 1
@<TRIPOS>PROPERTY_DATA
  Total_Score	| 10.0964
  Crash		| -1.1363
  Polar		| 7.5783
  FragIndex	| 1
  FragRMSD	| 0.606

