@<TRIPOS>MOLECULE
BindingDB_50386768
 55 58 0 0 0
SMALL
NO_CHARGES


@<TRIPOS>ATOM
1    N       -11.0354   18.1730    1.6935  N     
2    C       -11.1091   17.9480    0.3708  C     
3    C        -9.8126   17.9659   -0.1512  C     
4    N        -8.9558   18.2032    0.8696  N     
5    C       -12.0578   17.9143    2.6745  C     
6    N       -12.1921   17.7053   -0.4200  N     
7    C        -9.7335   18.3946    1.9624  C     
8    C        -9.6728   17.7501   -1.5219  C     
9    N       -10.7527   17.5441   -2.2803  N     
10   C       -11.9382   16.4616    3.1824  C     
11   C       -12.0088   17.5177   -1.7528  C     
12   O       -11.9484   18.7694    3.8236  O     
13   P        -8.5437   18.8254    5.8979  P     
14   C       -12.2032   18.0120    5.0210  C     
15   C       -12.4863   16.5417    4.6109  C     
16   N        -5.4367   11.7710    6.6282  N     
17   C       -11.0334   18.2219    6.0314  C     
18   C        -5.4718   12.5989    5.8285  C     
19   O        -9.7574   17.9756    5.4066  O     
20   O        -8.5814   17.7714   -2.0625  O     
21   O        -7.8457   18.3335    7.1793  O     
22   O        -7.4714   18.8659    4.7939  O     
23   O        -8.9159   20.2105    6.0635  O     
24   C        -7.5072   18.2525    0.8935  C     
25   N       -13.0673   17.3259   -2.5558  N     
26   O       -12.6483   15.5314    2.3634  O     
27   O       -13.8894   16.2681    4.6426  O     
28   C        -5.5272   13.5525    4.9443  C     
29   C        -5.7658   15.6519    3.0208  C     
30   C        -5.9795   14.8328    5.3307  C     
31   C        -5.1747   13.3348    3.5999  C     
32   C        -6.0589   15.8739    4.3905  C     
33   C        -5.3140   14.3680    2.6493  C     
34   O        -5.9491   16.5656    1.9946  O     
35   C        -6.8246   17.7003    2.1967  C     
36   H       -13.0551   18.0807    2.2363  H     
37   H        -9.3722   18.5932    2.8985  H     
38   H       -10.6474   17.4063   -3.2388  H     
39   H       -10.8888   16.1476    3.2296  H     
40   H       -13.1125   18.4235    5.4854  H     
41   H       -11.9866   15.8155    5.2643  H     
42   H       -11.1253   19.2487    6.4227  H     
43   H       -11.1456   17.5368    6.8890  H     
44   H        -7.0890   17.7362    0.0337  H     
45   H        -7.2341   19.3143    0.7769  H     
46   H       -12.9408   17.2084   -3.5131  H     
47   H       -13.9650   17.3270   -2.1899  H     
48   H       -12.1192   15.4591    1.5418  H     
49   H       -13.9705   15.3242    4.3739  H     
50   H        -6.2526   15.0140    6.3075  H     
51   H        -4.8256   12.4235    3.2926  H     
52   H        -6.3696   16.7946    4.7033  H     
53   H        -5.0987   14.1764    1.6683  H     
54   H        -6.2444   18.5047    2.6557  H     
55   H        -7.6110   17.4167    2.9023  H     
@<TRIPOS>BOND
     1    1    2 1
     2    5    1 1
     3    1    7 1
     4    2    3 2
     5    2    6 1
     6    3    4 1
     7    3    8 1
     8    4    7 2
     9    4   24 1
    10    5   10 1
    11    5   12 1
    12    6   11 2
    13    8    9 1
    14    8   20 2
    15    9   11 1
    16   10   15 1
    17   10   26 1
    18   11   25 1
    19   12   14 1
    20   13   19 1
    21   13   21 1
    22   13   22 1
    23   13   23 2
    24   14   15 1
    25   14   17 1
    26   15   27 1
    27   16   18 3
    28   17   19 1
    29   18   28 1
    30   24   35 1
    31   28   30 2
    32   28   31 1
    33   29   32 2
    34   29   33 1
    35   29   34 1
    36   30   32 1
    37   31   33 2
    38   34   35 1
    39    5   36 1
    40    7   37 1
    41    9   38 1
    42   10   39 1
    43   14   40 1
    44   15   41 1
    45   17   42 1
    46   17   43 1
    47   24   44 1
    48   24   45 1
    49   25   46 1
    50   25   47 1
    51   26   48 1
    52   27   49 1
    53   30   50 1
    54   31   51 1
    55   32   52 1
    56   33   53 1
    57   35   54 1
    58   35   55 1
@<TRIPOS>PROPERTY_DATA
  Total_Score	| 10.2850
  Crash		| -1.0423
  Polar		| 7.4967
  FragIndex	| 1
  FragRMSD	| 0.579

