@<TRIPOS>MOLECULE
BindingDB_50316305
 50 53 0 0 0
SMALL
NO_CHARGES


@<TRIPOS>ATOM
1    N       -10.7138   17.1396    1.7275  N     
2    C       -10.9397   17.2068    0.4036  C     
3    N        -8.8632   17.9065    0.7590  N     
4    C        -9.7702   17.6596   -0.2109  C     
5    C       -11.5992   16.6140    2.7313  C     
6    N       -12.0521   16.9071   -0.3390  N     
7    C        -9.4552   17.5836    1.9275  C     
8    C        -9.7518   17.7505   -1.5981  C     
9    N       -10.8489   17.4494   -2.2977  N     
10   C       -12.8588   17.4658    3.0069  C     
11   C       -12.0038   17.0434   -1.6911  C     
12   O       -10.9348   16.4488    3.9964  O     
13   P        -8.9540   19.0360    6.5883  P     
14   C       -11.7964   16.8703    5.0748  C     
15   C       -13.1915   17.0766    4.4482  C     
16   C        -7.5371   18.4391    0.6368  C     
17   C       -11.1836   18.1331    5.7529  C     
18   O        -9.8378   17.8216    6.1726  O     
19   O        -8.7234   18.0426   -2.1896  O     
20   O        -9.5729   19.9062    7.6997  O     
21   O        -7.6190   18.5062    7.1381  O     
22   O        -8.6532   19.8568    5.4460  O     
23   N       -13.0818   16.7596   -2.4337  N     
24   O       -13.9483   17.1842    2.1307  O     
25   O       -14.0000   18.0321    5.1218  O     
26   C        -7.5549   19.9116    0.8582  C     
27   C        -7.2582   20.8095   -0.1994  C     
28   C        -7.9190   20.4454    2.1215  C     
29   C        -7.9332   21.8343    2.3343  C     
30   C        -7.2515   22.1994    0.0259  C     
31   C        -7.5795   22.7138    1.2961  C     
32   H       -11.9040   15.6105    2.4160  H     
33   H        -8.9973   17.6472    2.8419  H     
34   H       -10.8248   17.5018   -3.2669  H     
35   H       -12.6123   18.5290    2.9511  H     
36   H       -11.8355   16.0574    5.8138  H     
37   H       -13.7137   16.1204    4.4528  H     
38   H        -7.1108   18.1936   -0.3353  H     
39   H        -6.8696   17.9645    1.3676  H     
40   H       -11.2123   18.9775    5.0413  H     
41   H       -11.7990   18.3869    6.6328  H     
42   H       -13.9010   16.4687   -2.0057  H     
43   H       -13.0518   16.8447   -3.4008  H     
44   H       -13.7650   17.6849    1.3109  H     
45   H       -14.8246   18.0922    4.5977  H     
46   H        -7.0487   20.4619   -1.1422  H     
47   H        -8.1682   19.8280    2.8994  H     
48   H        -8.2013   22.2098    3.2464  H     
49   H        -7.0290   22.8453   -0.7357  H     
50   H        -7.5870   23.7234    1.4504  H     
@<TRIPOS>BOND
     1    1    2 1
     2    5    1 1
     3    1    7 1
     4    2    4 2
     5    2    6 1
     6    3    7 2
     7    3   16 1
     8    3    4 1
     9    4    8 1
    10    5   10 1
    11    5   12 1
    12    6   11 2
    13    8    9 1
    14    8   19 2
    15    9   11 1
    16   10   15 1
    17   10   24 1
    18   11   23 1
    19   12   14 1
    20   13   18 1
    21   13   20 1
    22   13   21 1
    23   13   22 2
    24   14   17 1
    25   14   15 1
    26   15   25 1
    27   16   26 1
    28   17   18 1
    29   26   27 2
    30   26   28 1
    31   27   30 1
    32   28   29 2
    33   29   31 1
    34   30   31 2
    35    5   32 1
    36    7   33 1
    37    9   34 1
    38   10   35 1
    39   14   36 1
    40   15   37 1
    41   16   38 1
    42   16   39 1
    43   17   40 1
    44   17   41 1
    45   23   42 1
    46   23   43 1
    47   24   44 1
    48   25   45 1
    49   27   46 1
    50   28   47 1
    51   29   48 1
    52   30   49 1
    53   31   50 1
@<TRIPOS>PROPERTY_DATA
  Total_Score	| 8.7498
  Crash		| -0.7673
  Polar		| 6.2166
  FragIndex	| 1
  FragRMSD	| 1.248

