@<TRIPOS>MOLECULE
BindingDB_50386761
 57 60 0 0 0
SMALL
NO_CHARGES


@<TRIPOS>ATOM
1    N       -11.1415   17.9244    1.6387  N     
2    C       -11.1788   17.7287    0.3100  C     
3    C        -9.8609   17.7822   -0.1674  C     
4    N        -9.0281   18.0160    0.8887  N     
5    C       -12.2622   17.8736    2.5472  C     
6    N       -12.2522   17.5848   -0.5315  N     
7    C        -9.8489   18.1398    1.9536  C     
8    C        -9.6902   17.6625   -1.5436  C     
9    N       -10.7528   17.5286   -2.3462  N     
10   C       -12.5251   16.4240    3.0269  C     
11   C       -12.0295   17.4954   -1.8671  C     
12   O       -12.0345   18.6756    3.7273  O     
13   P        -8.4922   18.8606    6.0689  P     
14   C       -12.0300   17.8360    4.8942  C     
15   C       -11.8171   16.3954    4.3890  C     
16   C        -5.1408   12.6236    6.0018  C     
17   C       -10.9923   18.3107    5.9430  C     
18   C        -5.3938   13.7096    5.0083  C     
19   O        -9.6546   17.9745    5.5168  O     
20   O        -8.5845   17.7027   -2.0548  O     
21   O        -7.6801   18.2155    7.2061  O     
22   O        -7.4865   19.1421    4.9379  O     
23   O        -8.9590   20.1421    6.5178  O     
24   C        -7.6040   18.2871    0.9272  C     
25   N       -13.0710   17.4007   -2.7060  N     
26   O       -13.9275   16.1717    3.1655  O     
27   F        -5.6925   12.8512    7.2392  F     
28   F        -5.6594   11.4316    5.5559  F     
29   F        -3.7888   12.4774    6.1847  F     
30   C        -4.9844   13.5374    3.6619  C     
31   C        -6.0131   14.9276    5.3615  C     
32   O       -12.3431   15.4199    5.2837  O     
33   C        -5.8480   15.7578    3.0530  C     
34   C        -5.2276   14.5397    2.7057  C     
35   C        -6.2268   15.9415    4.4007  C     
36   O        -6.0744   16.6266    1.9954  O     
37   C        -6.8248   17.8676    2.1926  C     
38   H       -13.1506   18.2695    2.0419  H     
39   H        -9.5455   18.3962    2.8866  H     
40   H       -10.6251   17.4623   -3.3086  H     
41   H       -12.0984   15.6664    2.3556  H     
42   H       -13.0254   17.9113    5.3490  H     
43   H       -10.7492   16.2015    4.2402  H     
44   H       -11.0992   19.4033    6.0342  H     
45   H       -11.2100   17.8468    6.9092  H     
46   H        -7.1246   17.8325    0.0516  H     
47   H        -7.5169   19.3766    0.7892  H     
48   H       -12.9173   17.3488   -3.6627  H     
49   H       -13.9781   17.4083   -2.3561  H     
50   H       -14.2823   16.2067    2.2522  H     
51   H        -4.5168   12.6758    3.3666  H     
52   H        -6.2982   15.1004    6.3260  H     
53   H       -12.1105   14.5566    4.8770  H     
54   H        -4.9455   14.3736    1.7265  H     
55   H        -6.6808   16.8104    4.6977  H     
56   H        -6.1019   18.6687    2.4379  H     
57   H        -7.5269   17.8057    3.0416  H     
@<TRIPOS>BOND
     1    1    2 1
     2    5    1 1
     3    1    7 1
     4    2    3 2
     5    2    6 1
     6    3    4 1
     7    3    8 1
     8    4    7 2
     9    4   24 1
    10    5   10 1
    11    5   12 1
    12    6   11 2
    13    8    9 1
    14    8   20 2
    15    9   11 1
    16   10   15 1
    17   10   26 1
    18   11   25 1
    19   12   14 1
    20   13   19 1
    21   13   21 1
    22   13   22 1
    23   13   23 2
    24   14   15 1
    25   14   17 1
    26   15   32 1
    27   16   18 1
    28   16   27 1
    29   16   28 1
    30   16   29 1
    31   17   19 1
    32   18   30 2
    33   18   31 1
    34   24   37 1
    35   30   34 1
    36   31   35 2
    37   33   34 2
    38   33   35 1
    39   33   36 1
    40   36   37 1
    41    5   38 1
    42    7   39 1
    43    9   40 1
    44   10   41 1
    45   14   42 1
    46   15   43 1
    47   17   44 1
    48   17   45 1
    49   24   46 1
    50   24   47 1
    51   25   48 1
    52   25   49 1
    53   26   50 1
    54   30   51 1
    55   31   52 1
    56   32   53 1
    57   34   54 1
    58   35   55 1
    59   37   56 1
    60   37   57 1
@<TRIPOS>PROPERTY_DATA
  Total_Score	| 10.2039
  Crash		| -1.1627
  Polar		| 7.6388
  FragIndex	| 1
  FragRMSD	| 0.238

