@<TRIPOS>MOLECULE
BindingDB_50316304
 40 42 0 0 0
SMALL
NO_CHARGES


@<TRIPOS>ATOM
1    N       -11.2766   17.8722    1.6803  N     
2    C       -11.2932   17.7976    0.3377  C     
3    C        -9.9747   17.8166   -0.1245  C     
4    N        -9.1696   17.9261    0.9524  N     
5    C       -12.4230   17.8393    2.5543  C     
6    N       -12.3419   17.6830   -0.5305  N     
7    C        -9.9748   17.9498    2.0335  C     
8    C        -9.7663   17.7138   -1.4956  C     
9    N       -10.8088   17.5894   -2.3170  N     
10   C       -12.6413   16.4619    3.2221  C     
11   C       -12.0931   17.5773   -1.8625  C     
12   O       -12.2910   18.8103    3.6021  O     
13   P        -8.4773   18.8438    5.8872  P     
14   C       -12.1448   18.1483    4.8701  C     
15   C       -11.9952   16.6284    4.6054  C     
16   C       -10.9980   18.8359    5.6539  C     
17   O        -9.7886   18.0515    5.6007  O     
18   O        -8.6436   17.7173   -1.9701  O     
19   O        -7.8027   18.2545    7.1386  O     
20   O        -7.4829   18.7213    4.7142  O     
21   O        -8.7610   20.2335    6.1364  O     
22   N       -13.1084   17.4489   -2.7295  N     
23   C        -7.7420   18.0117    1.0393  C     
24   O       -14.0348   16.1770    3.3631  O     
25   O       -10.6409   16.1769    4.5916  O     
26   H       -13.3170   18.1110    1.9837  H     
27   H        -9.6283   18.0155    2.9887  H     
28   H       -10.6509   17.4969   -3.2688  H     
29   H       -12.1813   15.6484    2.6525  H     
30   H       -13.0769   18.3057    5.4228  H     
31   H       -12.5267   16.0494    5.3667  H     
32   H       -11.3201   18.9618    6.6928  H     
33   H       -10.8429   19.8309    5.2296  H     
34   H       -12.9275   17.3445   -3.6783  H     
35   H       -14.0239   17.4419   -2.4080  H     
36   H        -7.2558   17.9419    0.0682  H     
37   H        -7.4601   18.9658    1.4893  H     
38   H        -7.3592   17.2046    1.6668  H     
39   H       -14.3659   16.0487    2.4489  H     
40   H       -10.6883   15.2197    4.3830  H     
@<TRIPOS>BOND
     1    1    2 1
     2    5    1 1
     3    1    7 1
     4    2    3 2
     5    2    6 1
     6    3    8 1
     7    3    4 1
     8    4    7 2
     9    4   23 1
    10    5   10 1
    11    5   12 1
    12    6   11 2
    13    8   18 2
    14    8    9 1
    15    9   11 1
    16   10   15 1
    17   10   24 1
    18   11   22 1
    19   12   14 1
    20   13   17 1
    21   13   19 1
    22   13   20 1
    23   13   21 2
    24   14   16 1
    25   14   15 1
    26   15   25 1
    27   16   17 1
    28    5   26 1
    29    7   27 1
    30    9   28 1
    31   10   29 1
    32   14   30 1
    33   15   31 1
    34   16   32 1
    35   16   33 1
    36   22   34 1
    37   22   35 1
    38   23   36 1
    39   23   37 1
    40   23   38 1
    41   24   39 1
    42   25   40 1
@<TRIPOS>PROPERTY_DATA
  Total_Score	| 7.6019
  Crash		| -0.6947
  Polar		| 6.9500
  FragIndex	| 1
  FragRMSD	| 0.514

