@<TRIPOS>MOLECULE
BindingDB_50386767
 54 57 0 0 0
SMALL
NO_CHARGES


@<TRIPOS>ATOM
1    N       -11.1430   18.0303    1.6517  N     
2    C       -11.1528   17.8284    0.3272  C     
3    C        -9.8277   17.8621   -0.1372  C     
4    N        -9.0217   18.0827    0.9253  N     
5    C       -12.2567   17.9162    2.5552  C     
6    N       -12.2081   17.6562   -0.5278  N     
7    C        -9.8403   18.2471    1.9957  C     
8    C        -9.6370   17.7112   -1.5134  C     
9    N       -10.6850   17.5418   -2.3211  N     
10   C       -12.4815   16.4429    2.9869  C     
11   C       -11.9650   17.5202   -1.8576  C     
12   O       -12.0628   18.6914    3.7522  O     
13   P        -8.5163   18.8443    6.0519  P     
14   C       -12.0592   17.8196    4.8951  C     
15   C       -11.8099   16.3921    4.3676  C     
16   C       -11.0433   18.3240    5.9575  C     
17   O        -9.7090   17.9590    5.5589  O     
18   O        -8.5209   17.7839   -2.0130  O     
19   O        -7.4774   18.7983    4.8841  O     
20   O        -7.7451   18.3234    7.2897  O     
21   O        -8.8051   20.2399    6.2248  O     
22   C        -7.5770   18.1656    1.0103  C     
23   N       -12.9803   17.3771   -2.7183  N     
24   O       -13.8796   16.1467    3.0472  O     
25   O       -12.3600   15.3852    5.2185  O     
26   C        -5.2396   13.4339    4.8538  C     
27   C        -5.7266   15.5388    2.9953  C     
28   F        -5.0303   12.4620    5.7008  F     
29   C        -4.9083   13.2785    3.4901  C     
30   C        -5.7879   14.6520    5.3020  C     
31   C        -5.1718   14.3021    2.5730  C     
32   C        -5.9911   15.7224    4.3670  C     
33   O        -6.0045   16.4666    2.0116  O     
34   C        -6.9239   17.5390    2.3061  C     
35   H       -13.1506   18.2970    2.0516  H     
36   H        -9.5396   18.4704    2.9348  H     
37   H       -10.5379   17.4461   -3.2727  H     
38   H       -12.0175   15.7290    2.2960  H     
39   H       -13.0532   17.8655    5.3462  H     
40   H       -10.7354   16.2080    4.2409  H     
41   H       -11.1542   19.4146    6.0439  H     
42   H       -11.2635   17.8753    6.9358  H     
43   H        -7.1203   17.6859    0.1348  H     
44   H        -7.3109   19.2252    0.9752  H     
45   H       -13.8933   17.3776   -2.4015  H     
46   H       -12.7985   17.2863   -3.6675  H     
47   H       -13.9315   15.1994    3.3051  H     
48   H       -11.8133   15.4124    6.0384  H     
49   H        -4.4982   12.3951    3.1709  H     
50   H        -6.0230   14.7940    6.2893  H     
51   H        -4.9550   14.1609    1.5760  H     
52   H        -6.3678   16.5970    4.7401  H     
53   H        -6.3720   18.3370    2.8223  H     
54   H        -7.6940   17.1740    2.9781  H     
@<TRIPOS>BOND
     1    1    2 1
     2    5    1 1
     3    1    7 1
     4    2    3 2
     5    2    6 1
     6    3    4 1
     7    3    8 1
     8    4    7 2
     9    4   22 1
    10    5   10 1
    11    5   12 1
    12    6   11 2
    13    8    9 1
    14    8   18 2
    15    9   11 1
    16   10   15 1
    17   10   24 1
    18   11   23 1
    19   12   14 1
    20   13   17 1
    21   13   19 1
    22   13   20 1
    23   13   21 2
    24   14   15 1
    25   14   16 1
    26   15   25 1
    27   16   17 1
    28   22   34 1
    29   26   28 1
    30   26   29 1
    31   26   30 2
    32   27   31 1
    33   27   32 2
    34   27   33 1
    35   29   31 2
    36   30   32 1
    37   33   34 1
    38    5   35 1
    39    7   36 1
    40    9   37 1
    41   10   38 1
    42   14   39 1
    43   15   40 1
    44   16   41 1
    45   16   42 1
    46   22   43 1
    47   22   44 1
    48   23   45 1
    49   23   46 1
    50   24   47 1
    51   25   48 1
    52   29   49 1
    53   30   50 1
    54   31   51 1
    55   32   52 1
    56   34   53 1
    57   34   54 1
@<TRIPOS>PROPERTY_DATA
  Total_Score	| 9.8681
  Crash		| -1.0335
  Polar		| 7.6945
  FragIndex	| 1
  FragRMSD	| 0.202

