@<TRIPOS>MOLECULE
BindingDB_50316308
 50 53 0 0 0
SMALL
NO_CHARGES


@<TRIPOS>ATOM
1    N       -10.6250   17.0667    1.7928  N     
2    C       -10.9466   17.0908    0.4802  C     
3    N        -8.9068   17.9689    0.6856  N     
4    C        -9.8631   17.6541   -0.2135  C     
5    C       -11.3021   16.6511    2.9890  C     
6    N       -12.0728   16.6895   -0.1923  N     
7    C        -9.3702   17.5644    1.8795  C     
8    C        -9.9407   17.7268   -1.5984  C     
9    N       -11.0232   17.2710   -2.2313  N     
10   C       -12.7913   16.2568    2.9932  C     
11   C       -12.0955   16.7704   -1.5504  C     
12   O       -11.2647   17.7226    3.9487  O     
13   P        -9.1407   18.5111    6.3634  P     
14   C       -12.1404   17.3972    5.0306  C     
15   C       -13.0693   16.2644    4.5102  C     
16   C        -7.6391   18.6183    0.5085  C     
17   C       -11.3096   17.0588    6.3025  C     
18   O       -10.6145   18.2199    6.8035  O     
19   O        -9.0170   18.1425   -2.2804  O     
20   O        -8.1108   18.1940    7.4701  O     
21   O        -9.0738   20.0336    6.1915  O     
22   O        -8.7009   17.9655    5.1066  O     
23   N       -13.1685   16.3559   -2.2434  N     
24   C        -7.6656   20.0662    0.8816  C     
25   O       -13.6125   17.2040    2.3051  O     
26   O       -14.4422   16.4911    4.8241  O     
27   C        -6.9998   21.0302    0.0777  C     
28   C        -6.8970   22.3734    0.4940  C     
29   Cl       -5.9771   23.4679   -0.4068  Cl    
30   C        -8.2016   21.8604    2.4848  C     
31   C        -8.2572   20.5087    2.0950  C     
32   C        -7.5116   22.7963    1.6892  C     
33   H       -10.7302   15.7996    3.3897  H     
34   H        -8.8342   17.6199    2.7507  H     
35   H       -11.0373   17.2785   -3.2023  H     
36   H       -12.9373   15.2584    2.5669  H     
37   H       -12.7335   18.2935    5.2361  H     
38   H       -12.7775   15.2957    4.9384  H     
39   H        -6.8939   18.1286    1.1384  H     
40   H        -7.2982   18.4643   -0.5122  H     
41   H       -12.0002   16.7782    7.0943  H     
42   H       -10.6478   16.2041    6.1294  H     
43   H       -13.1575   16.4065   -3.2176  H     
44   H       -13.9418   15.9979   -1.7775  H     
45   H       -13.4234   18.0797    2.7095  H     
46   H       -14.9215   15.7253    4.4297  H     
47   H        -6.5488   20.7431   -0.7945  H     
48   H        -8.6387   22.1666    3.3604  H     
49   H        -8.7266   19.8475    2.7241  H     
50   H        -7.4405   23.7734    2.0006  H     
@<TRIPOS>BOND
     1    1    2 1
     2    5    1 1
     3    1    7 1
     4    2    4 2
     5    2    6 1
     6    3    7 2
     7    3   16 1
     8    3    4 1
     9    4    8 1
    10    5   10 1
    11    5   12 1
    12    6   11 2
    13    8    9 1
    14    8   19 2
    15    9   11 1
    16   10   15 1
    17   10   25 1
    18   11   23 1
    19   12   14 1
    20   13   18 1
    21   13   20 1
    22   13   21 1
    23   13   22 2
    24   14   17 1
    25   14   15 1
    26   15   26 1
    27   16   24 1
    28   17   18 1
    29   24   27 1
    30   24   31 2
    31   27   28 2
    32   28   29 1
    33   28   32 1
    34   30   31 1
    35   30   32 2
    36    5   33 1
    37    7   34 1
    38    9   35 1
    39   10   36 1
    40   14   37 1
    41   15   38 1
    42   16   39 1
    43   16   40 1
    44   17   41 1
    45   17   42 1
    46   23   43 1
    47   23   44 1
    48   25   45 1
    49   26   46 1
    50   27   47 1
    51   30   48 1
    52   31   49 1
    53   32   50 1
@<TRIPOS>PROPERTY_DATA
  Total_Score	| 6.9909
  Crash		| -1.6624
  Polar		| 5.8218
  FragIndex	| 1
  FragRMSD	| 1.225

