@<TRIPOS>MOLECULE
BindingDB_50316307
 50 53 0 0 0
SMALL
NO_CHARGES


@<TRIPOS>ATOM
1    N       -11.2860   17.9246    1.6161  N     
2    C       -11.3920   17.7560    0.2859  C     
3    N        -9.2569   18.1579    0.7266  N     
4    C       -10.1194   17.8856   -0.2761  C     
5    C       -12.3473   17.8675    2.5862  C     
6    N       -12.4900   17.5454   -0.5007  N     
7    C        -9.9842   18.1745    1.8616  C     
8    C       -10.0044   17.7691   -1.6582  C     
9    N       -11.0914   17.5518   -2.3984  N     
10   C       -12.7425   16.4198    2.9857  C     
11   C       -12.3331   17.4522   -1.8481  C     
12   O       -11.9902   18.5465    3.8055  O     
13   P        -9.0115   18.6301    6.4292  P     
14   C       -11.6193   17.5435    4.7641  C     
15   C       -12.6662   16.4394    4.5256  C     
16   C        -7.8550   18.4782    0.6767  C     
17   C       -11.5376   18.1371    6.2033  C     
18   O       -10.2977   17.8794    6.9010  O     
19   O        -8.9251   17.8494   -2.2167  O     
20   O        -7.9104   18.3878    7.4806  O     
21   O        -8.4631   18.0425    5.1114  O     
22   O        -9.1778   20.0611    6.3192  O     
23   N       -13.3998   17.2709   -2.6407  N     
24   O       -14.0421   16.0501    2.5263  O     
25   O       -12.2713   15.1822    5.0859  O     
26   C        -7.6700   19.9502    0.8141  C     
27   C        -7.5561   22.7780    1.0262  C     
28   Cl       -7.5390   24.4643    1.1514  Cl    
29   C        -7.8589   20.5919    2.0632  C     
30   C        -7.4160   20.7492   -0.3235  C     
31   C        -7.3490   22.1516   -0.2194  C     
32   C        -7.8126   21.9950    2.1658  C     
33   H       -13.2195   18.3893    2.1881  H     
34   H        -9.5915   18.3724    2.7822  H     
35   H       -11.0005   17.4773   -3.3630  H     
36   H       -12.0150   15.6945    2.5982  H     
37   H       -10.6363   17.1478    4.4932  H     
38   H       -13.6345   16.7379    4.9470  H     
39   H        -7.3275   17.9537    1.4804  H     
40   H        -7.4020   18.1221   -0.2490  H     
41   H       -11.7453   19.2100    6.1766  H     
42   H       -12.3191   17.6909    6.8189  H     
43   H       -13.2848   17.1987   -3.6023  H     
44   H       -14.2864   17.2150   -2.2528  H     
45   H       -13.9684   16.0390    1.5466  H     
46   H       -13.0238   14.5797    4.8978  H     
47   H        -8.0564   20.0418    2.9037  H     
48   H        -7.3026   20.3172   -1.2446  H     
49   H        -7.1781   22.7031   -1.0635  H     
50   H        -8.0048   22.4446    3.0647  H     
@<TRIPOS>BOND
     1    1    2 1
     2    5    1 1
     3    1    7 1
     4    2    4 2
     5    2    6 1
     6    3    7 2
     7    3   16 1
     8    3    4 1
     9    4    8 1
    10    5   10 1
    11    5   12 1
    12    6   11 2
    13    8    9 1
    14    8   19 2
    15    9   11 1
    16   10   15 1
    17   10   24 1
    18   11   23 1
    19   12   14 1
    20   13   18 1
    21   13   20 1
    22   13   21 1
    23   13   22 2
    24   14   17 1
    25   14   15 1
    26   15   25 1
    27   16   26 1
    28   17   18 1
    29   26   29 1
    30   26   30 2
    31   27   32 1
    32   27   28 1
    33   27   31 2
    34   29   32 2
    35   30   31 1
    36    5   33 1
    37    7   34 1
    38    9   35 1
    39   10   36 1
    40   14   37 1
    41   15   38 1
    42   16   39 1
    43   16   40 1
    44   17   41 1
    45   17   42 1
    46   23   43 1
    47   23   44 1
    48   24   45 1
    49   25   46 1
    50   29   47 1
    51   30   48 1
    52   31   49 1
    53   32   50 1
@<TRIPOS>PROPERTY_DATA
  Total_Score	| 8.7912
  Crash		| -0.7015
  Polar		| 7.2715
  FragIndex	| 1
  FragRMSD	| 0.522

