@<TRIPOS>MOLECULE
BindingDB_50386764
 56 59 0 0 0
SMALL
NO_CHARGES


@<TRIPOS>ATOM
1    N       -11.0945   17.9985    1.7103  N     
2    C       -11.1555   17.9536    0.3657  C     
3    C        -9.8445   17.9853   -0.1274  C     
4    N        -9.0088   18.0937    0.9323  N     
5    C       -12.1740   17.8932    2.6586  C     
6    N       -12.2274   17.7745   -0.4633  N     
7    C        -9.7879   18.0690    2.0367  C     
8    C        -9.6713   17.8203   -1.5017  C     
9    N       -10.7333   17.6219   -2.2860  N     
10   C       -12.3254   16.4642    3.2336  C     
11   C       -12.0056   17.6019   -1.7922  C     
12   O       -11.9193   18.7649    3.7743  O     
13   P        -9.7395   18.5168    7.5818  P     
14   C       -12.5818   18.2208    4.9152  C     
15   C       -12.6201   16.6839    4.7313  C     
16   C       -11.8804   18.6820    6.2147  C     
17   O       -10.5456   18.1257    6.2990  O     
18   O        -8.5660   17.8145   -2.0160  O     
19   O       -10.2801   17.7442    8.8064  O     
20   O        -8.2427   18.1539    7.4602  O     
21   O        -9.8107   19.9315    7.8808  O     
22   C        -7.5696   18.0306    0.9920  C     
23   N       -13.0324   17.3820   -2.6319  N     
24   O       -13.3528   15.7414    2.5548  O     
25   O       -13.8807   16.1495    5.1534  O     
26   C        -6.3739   14.7066    4.6151  C     
27   C        -5.8716   17.2210    3.3938  C     
28   Cl       -6.6785   13.2002    5.3339  Cl    
29   C        -5.5273   14.7890    3.4930  C     
30   C        -6.9545   15.8745    5.1409  C     
31   C        -5.2730   16.0384    2.8955  C     
32   C        -6.6977   17.1234    4.5407  C     
33   C        -6.8890   19.0756    1.9384  C     
34   C        -5.6490   18.5384    2.7255  C     
35   H       -13.1158   18.2083    2.1920  H     
36   H        -9.4432   18.0481    3.0002  H     
37   H       -10.6069   17.4600   -3.2383  H     
38   H       -11.3953   15.8953    3.1281  H     
39   H       -13.6041   18.6101    4.9214  H     
40   H       -11.8374   16.1934    5.3245  H     
41   H       -11.8181   19.7725    6.1969  H     
42   H       -12.5082   18.3850    7.0629  H     
43   H        -7.3314   17.0251    1.3496  H     
44   H        -7.1248   18.1415    0.0045  H     
45   H       -12.8611   17.2214   -3.5766  H     
46   H       -13.9444   17.3629   -2.2967  H     
47   H       -12.9307   15.4181    1.7231  H     
48   H       -13.8108   15.1774    5.0245  H     
49   H        -5.1052   13.9447    3.1038  H     
50   H        -7.5636   15.8190    5.9637  H     
51   H        -4.6622   16.0762    2.0764  H     
52   H        -7.1476   17.9571    4.9219  H     
53   H        -6.5679   19.9324    1.3388  H     
54   H        -7.6065   19.4600    2.6686  H     
55   H        -5.3704   19.2659    3.4976  H     
56   H        -4.8003   18.4716    2.0301  H     
@<TRIPOS>BOND
     1    1    2 1
     2    5    1 1
     3    1    7 1
     4    2    3 2
     5    2    6 1
     6    3    4 1
     7    3    8 1
     8    4    7 2
     9    4   22 1
    10    5   10 1
    11    5   12 1
    12    6   11 2
    13    8    9 1
    14    8   18 2
    15    9   11 1
    16   10   15 1
    17   10   24 1
    18   11   23 1
    19   12   14 1
    20   13   17 1
    21   13   19 1
    22   13   20 1
    23   13   21 2
    24   14   15 1
    25   14   16 1
    26   15   25 1
    27   16   17 1
    28   22   33 1
    29   26   28 1
    30   26   29 1
    31   26   30 2
    32   27   31 1
    33   27   32 2
    34   27   34 1
    35   29   31 2
    36   30   32 1
    37   33   34 1
    38    5   35 1
    39    7   36 1
    40    9   37 1
    41   10   38 1
    42   14   39 1
    43   15   40 1
    44   16   41 1
    45   16   42 1
    46   22   43 1
    47   22   44 1
    48   23   45 1
    49   23   46 1
    50   24   47 1
    51   25   48 1
    52   29   49 1
    53   30   50 1
    54   31   51 1
    55   32   52 1
    56   33   53 1
    57   33   54 1
    58   34   55 1
    59   34   56 1
@<TRIPOS>PROPERTY_DATA
  Total_Score	| 8.9007
  Crash		| -0.7867
  Polar		| 6.6353
  FragIndex	| 1
  FragRMSD	| 0.203

