@<TRIPOS>MOLECULE
BindingDB_50316309
 50 53 0 0 0
SMALL
NO_CHARGES


@<TRIPOS>ATOM
1    N       -10.8317   16.9701    1.7286  N     
2    C       -11.0767   17.1285    0.4129  C     
3    N        -9.0918   18.0390    0.8263  N     
4    C        -9.9715   17.7618   -0.1662  C     
5    C       -11.6250   16.2432    2.6766  C     
6    N       -12.1238   16.6995   -0.3557  N     
7    C        -9.6172   17.5145    1.9558  C     
8    C        -9.9442   17.8759   -1.5574  C     
9    N       -10.9706   17.4206   -2.2808  N     
10   C       -12.9826   16.8817    3.0440  C     
11   C       -12.0735   16.8615   -1.7071  C     
12   O       -10.9147   15.9989    3.9062  O     
13   P        -9.1086   18.6056    6.8438  P     
14   C       -11.7159   16.3872    5.0338  C     
15   C       -13.1637   16.4310    4.5016  C     
16   C        -7.7892   18.6545    0.7442  C     
17   C        -7.8251   20.1457    0.8500  C     
18   C       -11.1790   17.7017    5.6670  C     
19   O        -9.7468   17.6205    5.8133  O     
20   O        -8.9633   18.3065   -2.1404  O     
21   O        -9.7764   18.4330    8.2258  O     
22   O        -7.6176   18.2898    7.0642  O     
23   O        -9.2225   19.9917    6.4681  O     
24   C        -8.3367   20.8267    1.9933  C     
25   N       -13.0750   16.4249   -2.4848  N     
26   O       -12.9811   18.3090    2.9123  O     
27   O       -14.0608   17.2384    5.2640  O     
28   Cl       -8.9072   20.0265    3.3740  Cl    
29   C        -7.2739   20.9340   -0.1916  C     
30   C        -8.3246   22.2382    2.0572  C     
31   C        -7.2358   22.3433   -0.1043  C     
32   C        -7.7718   22.9969    1.0153  C     
33   H       -11.8338   15.2624    2.2418  H     
34   H        -9.1249   17.4904    2.8575  H     
35   H       -10.9226   17.4557   -3.2511  H     
36   H       -13.7794   16.4752    2.4098  H     
37   H       -11.6298   15.5920    5.7892  H     
38   H       -13.5626   15.4132    4.5016  H     
39   H        -7.1447   18.2813    1.5372  H     
40   H        -7.3170   18.3286   -0.1803  H     
41   H       -11.4238   18.5515    5.0211  H     
42   H       -11.6803   17.8316    6.6354  H     
43   H       -13.8519   16.0004   -2.0872  H     
44   H       -13.0112   16.5048   -3.4479  H     
45   H       -13.9180   18.5782    3.0338  H     
46   H       -13.6813   18.1443    5.2557  H     
47   H        -6.8757   20.4939   -1.0265  H     
48   H        -8.7184   22.7232    2.8674  H     
49   H        -6.8188   22.9021   -0.8528  H     
50   H        -7.7518   24.0193    1.0735  H     
@<TRIPOS>BOND
     1    1    2 1
     2    5    1 1
     3    1    7 1
     4    2    4 2
     5    2    6 1
     6    3    7 2
     7    3   16 1
     8    3    4 1
     9    4    8 1
    10    5   10 1
    11    5   12 1
    12    6   11 2
    13    8    9 1
    14    8   20 2
    15    9   11 1
    16   10   15 1
    17   10   26 1
    18   11   25 1
    19   12   14 1
    20   13   19 1
    21   13   21 1
    22   13   22 1
    23   13   23 2
    24   14   18 1
    25   14   15 1
    26   15   27 1
    27   16   17 1
    28   17   24 1
    29   17   29 2
    30   18   19 1
    31   24   28 1
    32   24   30 2
    33   29   31 1
    34   30   32 1
    35   31   32 2
    36    5   33 1
    37    7   34 1
    38    9   35 1
    39   10   36 1
    40   14   37 1
    41   15   38 1
    42   16   39 1
    43   16   40 1
    44   18   41 1
    45   18   42 1
    46   25   43 1
    47   25   44 1
    48   26   45 1
    49   27   46 1
    50   29   47 1
    51   30   48 1
    52   31   49 1
    53   32   50 1
@<TRIPOS>PROPERTY_DATA
  Total_Score	| 8.1496
  Crash		| -1.2356
  Polar		| 6.7871
  FragIndex	| 1
  FragRMSD	| 1.311

