@<TRIPOS>MOLECULE
BindingDB_50386762
 54 57 0 0 0
SMALL
NO_CHARGES


@<TRIPOS>ATOM
1    N       -11.2265   18.1053    1.6310  N     
2    C       -11.2405   17.8721    0.3089  C     
3    C        -9.9261   17.9129   -0.1640  C     
4    N        -9.1185   18.1762    0.8893  N     
5    C       -12.3355   17.9545    2.5400  C     
6    N       -12.2927   17.6575   -0.5317  N     
7    C        -9.9406   18.3787    1.9448  C     
8    C        -9.7322   17.7284   -1.5310  C     
9    N       -10.7804   17.5363   -2.3321  N     
10   C       -12.5363   16.4758    2.9631  C     
11   C       -12.0572   17.5078   -1.8610  C     
12   O       -12.1467   18.7037    3.7576  O     
13   P        -8.5144   18.8479    6.0134  P     
14   C       -12.0622   17.8040    4.8767  C     
15   C       -11.7759   16.4056    4.2949  C     
16   C       -11.0335   18.3137    5.9263  C     
17   O        -9.6990   17.9732    5.5029  O     
18   O        -8.6213   17.7940   -2.0311  O     
19   O        -7.6863   18.2942    7.1949  O     
20   O        -7.5254   18.9459    4.8312  O     
21   O        -8.8862   20.2114    6.2636  O     
22   C        -7.6789   18.2614    0.9484  C     
23   N       -13.0789   17.3574   -2.7121  N     
24   O       -13.9232   16.1799    3.1563  O     
25   O       -12.2245   15.3665    5.1634  O     
26   C        -5.4873   13.7346    5.0819  C     
27   C        -5.8434   15.7194    3.0774  C     
28   Br       -5.3074   12.4417    6.4063  Br    
29   C        -5.1560   13.4570    3.7385  C     
30   C        -5.9485   15.0126    5.4297  C     
31   C        -5.3554   14.4351    2.7436  C     
32   C        -6.0956   16.0056    4.4424  C     
33   O        -6.0918   16.5854    2.0259  O     
34   C        -7.0343   17.6633    2.2436  C     
35   H       -13.2344   18.3280    2.0487  H     
36   H        -9.6249   18.6422    2.8805  H     
37   H       -10.6353   17.4328   -3.2853  H     
38   H       -12.1251   15.7673    2.2347  H     
39   H       -13.0468   17.7935    5.3596  H     
40   H       -10.7084   16.2706    4.0971  H     
41   H       -11.1591   19.3989    6.0117  H     
42   H       -11.2448   17.8616    6.9020  H     
43   H        -7.2170   17.7808    0.0881  H     
44   H        -7.4179   19.3253    0.8888  H     
45   H       -12.9134   17.2811   -3.6637  H     
46   H       -13.9937   17.3543   -2.3810  H     
47   H       -14.3225   16.2372    2.2594  H     
48   H       -11.9868   14.5328    4.7089  H     
49   H        -4.7903   12.5379    3.4887  H     
50   H        -6.1711   15.2281    6.4059  H     
51   H        -5.1501   14.2036    1.7631  H     
52   H        -6.4090   16.9328    4.7356  H     
53   H        -6.4940   18.4642    2.7536  H     
54   H        -7.8290   17.3058    2.9079  H     
@<TRIPOS>BOND
     1    1    2 1
     2    5    1 1
     3    1    7 1
     4    2    3 2
     5    2    6 1
     6    3    4 1
     7    3    8 1
     8    4    7 2
     9    4   22 1
    10    5   10 1
    11    5   12 1
    12    6   11 2
    13    8    9 1
    14    8   18 2
    15    9   11 1
    16   10   15 1
    17   10   24 1
    18   11   23 1
    19   12   14 1
    20   13   17 1
    21   13   19 1
    22   13   20 1
    23   13   21 2
    24   14   15 1
    25   14   16 1
    26   15   25 1
    27   16   17 1
    28   22   34 1
    29   26   28 1
    30   26   29 1
    31   26   30 2
    32   27   31 1
    33   27   32 2
    34   27   33 1
    35   29   31 2
    36   30   32 1
    37   33   34 1
    38    5   35 1
    39    7   36 1
    40    9   37 1
    41   10   38 1
    42   14   39 1
    43   15   40 1
    44   16   41 1
    45   16   42 1
    46   22   43 1
    47   22   44 1
    48   23   45 1
    49   23   46 1
    50   24   47 1
    51   25   48 1
    52   29   49 1
    53   30   50 1
    54   31   51 1
    55   32   52 1
    56   34   53 1
    57   34   54 1
@<TRIPOS>PROPERTY_DATA
  Total_Score	| 10.0076
  Crash		| -1.1325
  Polar		| 7.7390
  FragIndex	| 1
  FragRMSD	| 0.214

