@<TRIPOS>MOLECULE
BindingDB_50078439
 54 56 0 0 0
SMALL
NO_CHARGES


@<TRIPOS>ATOM
1    C        93.5772   35.1275   78.0690  C     
2    S        95.6627   40.8890   80.7096  S     
3    C        94.7975   35.6555   77.6705  C     
4    S        93.3987   35.4245   79.7511  S     
5    C        94.9199   36.2227   79.9644  C     
6    S        92.8154   34.4259   76.6977  S     
7    C        95.5405   36.2571   78.7018  C     
8    N        96.8514   40.1178   81.6193  N     
9    C        96.5945   39.2362   82.7133  C     
10   C        95.4067   36.7280   81.1576  C     
11   C        95.0774   35.4930   76.3045  C     
12   C        94.0842   34.8063   75.5875  C     
13   C        97.1431   39.8143   83.9627  C     
14   N        96.6324   37.2357   81.2439  N     
15   O        94.4087   41.2658   81.6087  O     
16   O        96.2814   42.2899   80.3008  O     
17   C        97.2214   37.8471   82.4003  C     
18   N        93.4815   30.6624   70.8529  N     
19   O        94.6840   36.6850   82.1479  O     
20   O        98.0370   40.8287   83.9644  O     
21   C        94.1125   34.5084   74.1376  C     
22   C        95.1444   40.0379   79.2104  C     
23   O        96.7001   39.3766   85.1601  O     
24   C        94.4652   33.0319   73.7653  C     
25   C        93.2589   32.0712   73.4746  C     
26   C        93.0981   32.0909   70.8734  C     
27   C        94.3722   30.2711   71.9685  C     
28   C        92.4120   32.4624   72.2154  C     
29   C        93.7082   30.5776   73.3372  C     
30   H        96.4554   36.6826   78.5331  H     
31   H        97.7738   40.3364   81.4190  H     
32   H        95.5193   39.1134   82.8620  H     
33   H        95.9369   35.8425   75.8759  H     
34   H        97.1872   37.1942   80.4484  H     
35   H        98.2915   37.9703   82.2073  H     
36   H        97.1317   37.1722   83.2567  H     
37   H        92.6304   30.1016   70.9163  H     
38   H        93.9353   30.4538   69.9590  H     
39   H        93.1510   34.8035   73.7234  H     
40   H        94.8663   35.1555   73.6809  H     
41   H        96.0193   39.8277   78.5889  H     
42   H        94.4458   40.6739   78.6609  H     
43   H        94.6477   39.1051   79.4811  H     
44   H        95.1128   33.0459   72.8886  H     
45   H        95.0642   32.6088   74.5746  H     
46   H        92.5970   32.1257   74.3475  H     
47   H        93.9819   32.7128   70.7076  H     
48   H        92.4080   32.2753   70.0473  H     
49   H        94.5701   29.2002   71.8890  H     
50   H        95.3299   30.7942   71.8892  H     
51   H        91.4541   31.9356   72.2622  H     
52   H        92.1914   33.5285   72.2152  H     
53   H        94.3938   30.3088   74.1446  H     
54   H        92.8280   29.9359   73.4380  H     
@<TRIPOS>BOND
     1    1    3 2
     2    1    4 1
     3    1    6 1
     4    2    8 1
     5    2   15 2
     6    2   16 2
     7    2   22 1
     8    3    7 1
     9    3   11 1
    10    4    5 1
    11    5    7 2
    12    5   10 1
    13    6   12 1
    14    9    8 1
    15    9   13 1
    16    9   17 1
    17   10   14 am
    18   10   19 2
    19   11   12 2
    20   12   21 1
    21   13   20 2
    22   13   23 1
    23   14   17 1
    24   18   26 1
    25   18   27 1
    26   21   24 1
    27   24   25 1
    28   25   28 1
    29   25   29 1
    30   26   28 1
    31   27   29 1
    32    7   30 1
    33    8   31 1
    34    9   32 1
    35   11   33 1
    36   14   34 1
    37   17   35 1
    38   17   36 1
    39   18   37 1
    40   18   38 1
    41   21   39 1
    42   21   40 1
    43   22   41 1
    44   22   42 1
    45   22   43 1
    46   24   44 1
    47   24   45 1
    48   25   46 1
    49   26   47 1
    50   26   48 1
    51   27   49 1
    52   27   50 1
    53   28   51 1
    54   28   52 1
    55   29   53 1
    56   29   54 1
@<TRIPOS>PROPERTY_DATA
  Total_Score	| 10.0619
  Crash		| -0.9837
  Polar		| 7.2677
  FragIndex	| 1
  FragRMSD	| 0.873

