@<TRIPOS>MOLECULE
BindingDB_50078436
 64 66 0 0 0
SMALL
NO_CHARGES


@<TRIPOS>ATOM
1    C        93.5011   35.3524   78.0648  C     
2    S        95.7848   40.9662   80.7897  S     
3    C        94.7987   35.6586   77.6792  C     
4    S        93.3263   35.7656   79.7182  S     
5    C        94.9456   36.3315   79.9442  C     
6    S        92.6634   34.7246   76.7007  S     
7    C        95.6050   36.1878   78.7057  C     
8    N        96.9841   40.1799   81.6683  N     
9    C        96.7236   39.2407   82.7132  C     
10   C        95.4537   36.8570   81.1279  C     
11   C        95.0750   35.3947   76.3229  C     
12   C        93.9980   34.8519   75.6068  C     
13   C        97.2405   39.7425   84.0041  C     
14   N        96.7285   37.2285   81.2222  N     
15   C        95.3332   40.1684   79.2324  C     
16   O        94.5109   41.1985   81.7146  O     
17   O        96.3187   42.4287   80.4853  O     
18   C        97.3508   37.8641   82.3543  C     
19   N        93.6337   30.6119   70.9263  N     
20   O        94.6927   36.9900   82.0797  O     
21   O        98.1051   40.7930   84.0777  O     
22   C        93.9870   34.5453   74.1609  C     
23   O        96.6943   39.3088   85.1682  O     
24   C        94.5249   33.1386   73.7642  C     
25   C        96.4955   40.2060   78.2089  C     
26   C        93.4741   31.9955   73.5660  C     
27   O        96.6699   41.5319   77.6516  O     
28   C        93.0341   31.9647   70.9957  C     
29   C        94.6980   30.3951   71.9275  C     
30   C        96.1615   41.7679   76.3225  C     
31   C        94.1383   30.5930   73.3632  C     
32   C        92.4482   32.2433   72.4082  C     
33   C        97.1944   41.5436   75.1780  C     
34   H        96.5744   36.4665   78.5506  H     
35   H        97.8974   40.4371   81.5106  H     
36   H        95.6443   39.1057   82.8420  H     
37   H        95.9764   35.5970   75.9039  H     
38   H        97.3012   37.0518   80.4523  H     
39   H        95.0898   39.1270   79.4483  H     
40   H        94.4578   40.6563   78.8102  H     
41   H        98.4099   38.0029   82.1098  H     
42   H        97.3003   37.1753   83.2109  H     
43   H        92.9012   29.9185   71.0902  H     
44   H        94.0193   30.4488   69.9946  H     
45   H        92.9836   34.6998   73.7734  H     
46   H        94.6275   35.2920   73.6761  H     
47   H        95.0989   33.2427   72.8341  H     
48   H        95.2358   32.8346   74.5354  H     
49   H        97.4320   39.9260   78.7005  H     
50   H        96.3004   39.4595   77.4556  H     
51   H        92.9026   31.9411   74.4984  H     
52   H        93.7861   32.7153   70.7410  H     
53   H        92.2365   32.0252   70.2517  H     
54   H        95.0608   29.3686   71.8151  H     
55   H        95.5367   31.0696   71.7424  H     
56   H        95.2539   41.1667   76.1338  H     
57   H        95.8953   42.8324   76.2769  H     
58   H        94.9430   30.4386   74.0909  H     
59   H        93.3909   29.8204   73.5444  H     
60   H        91.5972   31.5637   72.5513  H     
61   H        92.0532   33.2539   72.4361  H     
62   H        98.0322   42.2392   75.2846  H     
63   H        96.6943   41.7351   74.2119  H     
64   H        97.5805   40.5215   75.1641  H     
@<TRIPOS>BOND
     1    1    3 2
     2    1    4 1
     3    1    6 1
     4    2    8 1
     5    2   15 1
     6    2   16 2
     7    2   17 2
     8    3    7 1
     9    3   11 1
    10    4    5 1
    11    5    7 2
    12    5   10 1
    13    6   12 1
    14    9    8 1
    15    9   13 1
    16    9   18 1
    17   10   14 am
    18   10   20 2
    19   11   12 2
    20   12   22 1
    21   13   21 2
    22   13   23 1
    23   14   18 1
    24   15   25 1
    25   19   28 1
    26   19   29 1
    27   22   24 1
    28   24   26 1
    29   25   27 1
    30   26   31 1
    31   26   32 1
    32   27   30 1
    33   28   32 1
    34   29   31 1
    35   30   33 1
    36    7   34 1
    37    8   35 1
    38    9   36 1
    39   11   37 1
    40   14   38 1
    41   15   39 1
    42   15   40 1
    43   18   41 1
    44   18   42 1
    45   19   43 1
    46   19   44 1
    47   22   45 1
    48   22   46 1
    49   24   47 1
    50   24   48 1
    51   25   49 1
    52   25   50 1
    53   26   51 1
    54   28   52 1
    55   28   53 1
    56   29   54 1
    57   29   55 1
    58   30   56 1
    59   30   57 1
    60   31   58 1
    61   31   59 1
    62   32   60 1
    63   32   61 1
    64   33   62 1
    65   33   63 1
    66   33   64 1
@<TRIPOS>PROPERTY_DATA
  Total_Score	| 11.6477
  Crash		| -1.6129
  Polar		| 8.0783
  FragIndex	| 1
  FragRMSD	| 0.811

