@<TRIPOS>MOLECULE
BindingDB_50078443
 63 65 0 0 0
SMALL
NO_CHARGES


@<TRIPOS>ATOM
1    C        93.5874   35.1871   78.0998  C     
2    S        95.8235   40.9348   80.6901  S     
3    C        94.8259   35.6275   77.6557  C     
4    S        93.4703   35.5252   79.7805  S     
5    C        95.0442   36.2364   79.9379  C     
6    S        92.7247   34.5129   76.7747  S     
7    C        95.6332   36.2001   78.6553  C     
8    C        96.7771   39.2565   82.6684  C     
9    N        97.0243   40.1793   81.6038  N     
10   C        95.5702   36.7663   81.1031  C     
11   C        95.0361   35.4440   76.2788  C     
12   C        93.9735   34.8039   75.6158  C     
13   C        97.2908   39.7498   83.9636  C     
14   N        96.8048   37.2509   81.1610  N     
15   O        94.4519   41.0116   81.5038  O     
16   O        96.2690   42.4453   80.4714  O     
17   C        97.4151   37.8840   82.2978  C     
18   N        93.2194   30.2002   71.1833  N     
19   O        94.8581   36.7612   82.1006  O     
20   O        98.0936   40.8376   84.0797  O     
21   C        93.9105   34.4865   74.1701  C     
22   C        95.4779   40.1576   79.0920  C     
23   O        96.6708   39.3343   85.0861  O     
24   C        94.0731   32.9667   73.8665  C     
25   C        94.4572   32.6480   72.3739  C     
26   C        94.2896   30.0543   72.1918  C     
27   C        92.3893   31.4148   71.3799  C     
28   C        95.2232   31.2941   72.2072  C     
29   C        93.2625   32.7011   71.3678  C     
30   C        96.6161   40.3664   78.0437  C     
31   C        96.0779   40.4548   76.5928  C     
32   C        97.1906   40.8109   75.5821  C     
33   H        96.5648   36.5659   78.4465  H     
34   H        95.6980   39.1065   82.7806  H     
35   H        97.9500   40.3735   81.3808  H     
36   H        95.8919   35.7440   75.8102  H     
37   H        97.3381   37.1928   80.3518  H     
38   H        98.4692   38.0440   82.0538  H     
39   H        97.3734   37.1959   83.1499  H     
40   H        93.6626   30.2187   70.2494  H     
41   H        92.6211   29.3713   71.2358  H     
42   H        92.9588   34.8600   73.7708  H     
43   H        94.7188   35.0333   73.6702  H     
44   H        95.3148   39.0832   79.2545  H     
45   H        94.5201   40.5684   78.7456  H     
46   H        94.8810   32.5949   74.5038  H     
47   H        93.1640   32.4279   74.1443  H     
48   H        95.1671   33.4165   72.0590  H     
49   H        93.8465   29.8978   73.1891  H     
50   H        94.8641   29.1627   71.9208  H     
51   H        91.6526   31.4778   70.5672  H     
52   H        91.8429   31.3499   72.3305  H     
53   H        95.7777   31.3035   71.2566  H     
54   H        95.9583   31.1555   73.0084  H     
55   H        92.6332   33.5741   71.5716  H     
56   H        93.6661   32.8145   70.3526  H     
57   H        97.1760   41.2812   78.2497  H     
58   H        97.3172   39.5319   78.1268  H     
59   H        95.6338   39.4982   76.2897  H     
60   H        95.3019   41.2242   76.5420  H     
61   H        97.6675   41.7599   75.8526  H     
62   H        96.7661   40.9073   74.5789  H     
63   H        97.9549   40.0207   75.5598  H     
@<TRIPOS>BOND
     1    1    3 2
     2    1    4 1
     3    1    6 1
     4    2    9 1
     5    2   15 2
     6    2   16 2
     7    2   22 1
     8    3    7 1
     9    3   11 1
    10    4    5 1
    11    5    7 2
    12    5   10 1
    13    6   12 1
    14    8    9 1
    15    8   13 1
    16    8   17 1
    17   10   14 am
    18   10   19 2
    19   11   12 2
    20   12   21 1
    21   13   20 2
    22   13   23 1
    23   14   17 1
    24   18   26 1
    25   18   27 1
    26   21   24 1
    27   22   30 1
    28   24   25 1
    29   25   28 1
    30   25   29 1
    31   26   28 1
    32   27   29 1
    33   30   31 1
    34   31   32 1
    35    7   33 1
    36    8   34 1
    37    9   35 1
    38   11   36 1
    39   14   37 1
    40   17   38 1
    41   17   39 1
    42   18   40 1
    43   18   41 1
    44   21   42 1
    45   21   43 1
    46   22   44 1
    47   22   45 1
    48   24   46 1
    49   24   47 1
    50   25   48 1
    51   26   49 1
    52   26   50 1
    53   27   51 1
    54   27   52 1
    55   28   53 1
    56   28   54 1
    57   29   55 1
    58   29   56 1
    59   30   57 1
    60   30   58 1
    61   31   59 1
    62   31   60 1
    63   32   61 1
    64   32   62 1
    65   32   63 1
@<TRIPOS>PROPERTY_DATA
  Total_Score	| 11.4405
  Crash		| -1.9294
  Polar		| 7.1855
  FragIndex	| 1
  FragRMSD	| 0.896

