@<TRIPOS>MOLECULE
BindingDB_50078432
 54 57 0 0 0
SMALL
NO_CHARGES


@<TRIPOS>ATOM
1    S        95.7524   40.9074   80.8427  S     
2    C        93.3257   35.6051   78.2363  C     
3    C        94.6650   35.2735   78.0335  C     
4    S        93.1949   36.4396   79.7233  S     
5    S        92.3965   35.0188   76.9159  S     
6    C        94.8858   36.3757   80.1128  C     
7    C        93.7342   34.2996   76.0800  C     
8    N        96.9497   40.0454   81.6630  N     
9    C        95.5316   35.6972   79.0615  C     
10   C        94.8874   34.5445   76.8510  C     
11   C        96.7145   39.1985   82.7875  C     
12   C        95.2388   40.0385   79.4305  C     
13   C        95.4260   36.9114   81.2672  C     
14   C        97.2372   39.8082   84.0288  C     
15   N        96.7313   37.0976   81.4200  N     
16   O        94.4426   41.0849   81.7350  O     
17   O        96.2804   42.3651   80.4715  O     
18   C        97.3450   37.7929   82.5196  C     
19   N        93.2242   33.0022   71.9416  N     
20   O        94.6444   37.2595   82.1405  O     
21   O        98.1177   40.8306   84.0173  O     
22   C        93.6810   33.4940   74.8303  C     
23   N        95.7708   38.6062   77.5782  N     
24   O        96.6881   39.4562   85.2145  O     
25   C        96.1666   39.2778   78.6890  C     
26   C        93.8963   40.0775   78.9909  C     
27   C        92.2935   32.4261   72.9398  C     
28   C        94.5978   33.2074   72.4609  C     
29   C        94.4890   38.6216   77.1420  C     
30   C        94.6025   34.0961   73.7324  C     
31   C        92.2576   33.2843   74.2371  C     
32   C        93.5148   39.3627   77.8381  C     
33   H        97.8727   40.2416   81.4392  H     
34   H        96.5450   35.5113   79.0435  H     
35   H        95.8060   34.1848   76.5913  H     
36   H        95.6429   39.0649   82.9325  H     
37   H        97.3191   36.7610   80.7198  H     
38   H        98.4135   37.9047   82.2888  H     
39   H        97.2629   37.1679   83.4156  H     
40   H        93.2765   32.3619   71.1420  H     
41   H        92.8453   33.8969   71.6136  H     
42   H        94.0742   32.5123   75.0971  H     
43   H        97.1466   39.2378   78.9552  H     
44   H        93.1964   40.6294   79.4921  H     
45   H        91.2903   32.3932   72.4977  H     
46   H        92.5940   31.3992   73.1729  H     
47   H        95.0423   32.2316   72.6972  H     
48   H        95.2067   33.6694   71.6814  H     
49   H        94.2465   38.1121   76.2907  H     
50   H        94.2688   35.1088   73.4757  H     
51   H        95.6344   34.1695   74.0931  H     
52   H        91.6145   32.7834   74.9675  H     
53   H        91.8074   34.2546   73.9982  H     
54   H        92.5462   39.3983   77.4991  H     
@<TRIPOS>BOND
     1    1    8 1
     2    1   12 1
     3    1   16 2
     4    1   17 2
     5    2    3 2
     6    2    4 1
     7    2    5 1
     8    3    9 1
     9    3   10 1
    10    4    6 1
    11    5    7 1
    12    6    9 2
    13    6   13 1
    14    7   10 2
    15    7   22 1
    16   11    8 1
    17   11   14 1
    18   11   18 1
    19   12   25 2
    20   12   26 1
    21   13   15 am
    22   13   20 2
    23   14   21 2
    24   14   24 1
    25   15   18 1
    26   19   27 1
    27   19   28 1
    28   22   30 1
    29   22   31 1
    30   23   25 1
    31   23   29 2
    32   26   32 2
    33   27   31 1
    34   28   30 1
    35   29   32 1
    36    8   33 1
    37    9   34 1
    38   10   35 1
    39   11   36 1
    40   15   37 1
    41   18   38 1
    42   18   39 1
    43   19   40 1
    44   19   41 1
    45   22   42 1
    46   25   43 1
    47   26   44 1
    48   27   45 1
    49   27   46 1
    50   28   47 1
    51   28   48 1
    52   29   49 1
    53   30   50 1
    54   30   51 1
    55   31   52 1
    56   31   53 1
    57   32   54 1
@<TRIPOS>PROPERTY_DATA
  Total_Score	| 7.8881
  Crash		| -1.6949
  Polar		| 7.2629
  FragIndex	| 1
  FragRMSD	| 0.809

