@<TRIPOS>MOLECULE
BindingDB_50078444
 61 64 0 0 0
SMALL
NO_CHARGES


@<TRIPOS>ATOM
1    S        95.6628   40.9010   80.7572  S     
2    C        93.7237   34.9418   78.1624  C     
3    C        94.9192   35.4986   77.7297  C     
4    S        93.5710   35.2683   79.8397  S     
5    C        95.0685   36.1191   80.0076  C     
6    S        92.9412   34.2077   76.8193  S     
7    N        96.8898   40.1122   81.6005  N     
8    C        95.6702   36.1367   78.7334  C     
9    C        96.6644   39.2245   82.6965  C     
10   C        95.5447   36.6846   81.1759  C     
11   C        95.1569   35.3434   76.3532  C     
12   C        94.1529   34.6388   75.6652  C     
13   C        97.1553   39.8173   83.9592  C     
14   C        94.8601   39.9427   79.5422  C     
15   N        96.7611   37.2080   81.2490  N     
16   O        94.6294   41.5355   81.7889  O     
17   O        96.3299   42.1636   80.0631  O     
18   C        97.3424   37.8606   82.3909  C     
19   N        93.4796   30.6362   70.8151  N     
20   O        94.8133   36.6800   82.1585  O     
21   O        96.7089   39.3464   85.1445  O     
22   C        95.4812   39.6662   78.3050  C     
23   C        93.5548   39.4679   79.7826  C     
24   C        94.1038   34.4154   74.2036  C     
25   O        98.0491   40.8347   83.9819  O     
26   C        93.4944   38.4555   77.5669  C     
27   C        92.8735   38.7340   78.7994  C     
28   C        94.7995   38.9268   77.3173  C     
29   Cl       92.6679   37.5380   76.4131  Cl    
30   C        94.4331   32.9605   73.7447  C     
31   C        93.2121   32.0274   73.4438  C     
32   C        93.1203   32.0723   70.8457  C     
33   C        94.3071   30.1899   71.9612  C     
34   C        92.3976   32.4355   72.1720  C     
35   C        93.6152   30.5200   73.3119  C     
36   H        97.8002   40.3689   81.4034  H     
37   H        96.5626   36.5889   78.5340  H     
38   H        95.5910   39.0567   82.8200  H     
39   H        95.9732   35.7414   75.8863  H     
40   H        97.3262   37.1329   80.4623  H     
41   H        98.4035   38.0330   82.1865  H     
42   H        97.2811   37.1993   83.2584  H     
43   H        92.6136   30.0921   70.8155  H     
44   H        93.9832   30.4301   69.9479  H     
45   H        96.4260   40.0103   78.1077  H     
46   H        93.0868   39.6566   80.6725  H     
47   H        93.1217   34.7313   73.8454  H     
48   H        94.8322   35.0841   73.7307  H     
49   H        91.9210   38.4085   78.9837  H     
50   H        95.2533   38.7396   76.4211  H     
51   H        95.0471   33.0178   72.8443  H     
52   H        95.0575   32.4924   74.5099  H     
53   H        92.5384   32.0984   74.3041  H     
54   H        94.0236   32.6750   70.7269  H     
55   H        92.4632   32.2846   69.9995  H     
56   H        94.4457   29.1096   71.8754  H     
57   H        95.2922   30.6637   71.9121  H     
58   H        91.4397   31.9060   72.1851  H     
59   H        92.1732   33.5033   72.1743  H     
60   H        94.2701   30.2220   74.1341  H     
61   H        92.7123   29.9060   73.3878  H     
@<TRIPOS>BOND
     1    1    7 1
     2    1   14 1
     3    1   16 2
     4    1   17 2
     5    2    3 2
     6    2    4 1
     7    2    6 1
     8    3    8 1
     9    3   11 1
    10    4    5 1
    11    5    8 2
    12    5   10 1
    13    6   12 1
    14    9    7 1
    15    9   13 1
    16    9   18 1
    17   10   15 am
    18   10   20 2
    19   11   12 2
    20   12   24 1
    21   13   21 2
    22   13   25 1
    23   14   22 2
    24   14   23 1
    25   15   18 1
    26   19   32 1
    27   19   33 1
    28   22   28 1
    29   23   27 2
    30   24   30 1
    31   26   27 1
    32   26   28 2
    33   26   29 1
    34   30   31 1
    35   31   34 1
    36   31   35 1
    37   32   34 1
    38   33   35 1
    39    7   36 1
    40    8   37 1
    41    9   38 1
    42   11   39 1
    43   15   40 1
    44   18   41 1
    45   18   42 1
    46   19   43 1
    47   19   44 1
    48   22   45 1
    49   23   46 1
    50   24   47 1
    51   24   48 1
    52   27   49 1
    53   28   50 1
    54   30   51 1
    55   30   52 1
    56   31   53 1
    57   32   54 1
    58   32   55 1
    59   33   56 1
    60   33   57 1
    61   34   58 1
    62   34   59 1
    63   35   60 1
    64   35   61 1
@<TRIPOS>PROPERTY_DATA
  Total_Score	| 10.2329
  Crash		| -1.4638
  Polar		| 7.3424
  FragIndex	| 1
  FragRMSD	| 0.794

