@<TRIPOS>MOLECULE
BindingDB_50078440
 61 64 0 0 0
SMALL
NO_CHARGES


@<TRIPOS>ATOM
1    S        95.6461   40.8575   80.7433  S     
2    C        93.6011   35.1407   78.0885  C     
3    C        94.8428   35.5785   77.6473  C     
4    S        93.4883   35.4518   79.7706  S     
5    C        95.0603   36.1531   79.9326  C     
6    S        92.7272   34.4900   76.7662  S     
7    N        96.8957   40.0649   81.5581  N     
8    C        95.6548   36.1325   78.6529  C     
9    C        96.6878   39.1479   82.6336  C     
10   C        95.5778   36.6659   81.1077  C     
11   C        95.0451   35.3927   76.2683  C     
12   C        93.9655   34.7893   75.5981  C     
13   C        97.1632   39.7289   83.9080  C     
14   N        96.8127   37.1378   81.1814  N     
15   O        94.4860   41.2484   81.7565  O     
16   O        96.2436   42.2690   80.3130  O     
17   C        95.0593   40.0125   79.3382  C     
18   C        97.3997   37.8021   82.3090  C     
19   N        93.2363   30.1763   71.1975  N     
20   O        94.8632   36.6403   82.1132  O     
21   O        98.0341   40.7658   83.9571  O     
22   C        93.8908   34.4808   74.1554  C     
23   O        96.7012   39.2470   85.0842  O     
24   C        94.0700   32.9652   73.8322  C     
25   C        94.4197   32.6671   72.3324  C     
26   C        94.3188   30.0815   72.1936  C     
27   C        92.3690   31.3680   71.3714  C     
28   C        95.8034   40.0211   78.1349  C     
29   C        93.8407   39.2984   79.3851  C     
30   C        95.2200   31.3383   72.1423  C     
31   C        93.1954   32.6813   71.3602  C     
32   C        93.3680   38.6215   78.2487  C     
33   C        95.3311   39.3424   77.0015  C     
34   C        94.1104   38.6390   77.0556  C     
35   H        97.8056   40.3227   81.3462  H     
36   H        96.5916   36.4933   78.4620  H     
37   H        95.6180   38.9570   82.7572  H     
38   H        95.9076   35.6667   75.7950  H     
39   H        97.3711   37.0479   80.3895  H     
40   H        98.4519   37.9930   82.0792  H     
41   H        97.3727   37.1355   83.1757  H     
42   H        93.6625   30.1769   70.2658  H     
43   H        92.6703   29.3320   71.2762  H     
44   H        92.9237   34.8255   73.7763  H     
45   H        94.6662   35.0503   73.6413  H     
46   H        94.8809   32.5962   74.4654  H     
47   H        93.1620   32.4255   74.1189  H     
48   H        95.0931   33.4679   72.0039  H     
49   H        93.9007   29.9445   73.1945  H     
50   H        94.9118   29.2018   71.9486  H     
51   H        91.6474   31.3887   70.5548  H     
52   H        91.8142   31.2818   72.3075  H     
53   H        96.6923   40.5239   78.0819  H     
54   H        93.2918   39.2687   80.2476  H     
55   H        95.7144   31.3617   71.1678  H     
56   H        95.9981   31.2462   72.9006  H     
57   H        92.5369   33.5223   71.5884  H     
58   H        93.5621   32.8274   70.3423  H     
59   H        92.4859   38.1075   78.2885  H     
60   H        95.8735   39.3497   76.1343  H     
61   H        93.7686   38.1401   76.2325  H     
@<TRIPOS>BOND
     1    1    7 1
     2    1   15 2
     3    1   16 2
     4    1   17 1
     5    2    3 2
     6    2    4 1
     7    2    6 1
     8    3    8 1
     9    3   11 1
    10    4    5 1
    11    5    8 2
    12    5   10 1
    13    6   12 1
    14    9    7 1
    15    9   13 1
    16    9   18 1
    17   10   14 am
    18   10   20 2
    19   11   12 2
    20   12   22 1
    21   13   21 2
    22   13   23 1
    23   14   18 1
    24   17   28 1
    25   17   29 2
    26   19   26 1
    27   19   27 1
    28   22   24 1
    29   24   25 1
    30   25   30 1
    31   25   31 1
    32   26   30 1
    33   27   31 1
    34   28   33 2
    35   29   32 1
    36   32   34 2
    37   33   34 1
    38    7   35 1
    39    8   36 1
    40    9   37 1
    41   11   38 1
    42   14   39 1
    43   18   40 1
    44   18   41 1
    45   19   42 1
    46   19   43 1
    47   22   44 1
    48   22   45 1
    49   24   46 1
    50   24   47 1
    51   25   48 1
    52   26   49 1
    53   26   50 1
    54   27   51 1
    55   27   52 1
    56   28   53 1
    57   29   54 1
    58   30   55 1
    59   30   56 1
    60   31   57 1
    61   31   58 1
    62   32   59 1
    63   33   60 1
    64   34   61 1
@<TRIPOS>PROPERTY_DATA
  Total_Score	| 10.5571
  Crash		| -1.7497
  Polar		| 7.7944
  FragIndex	| 1
  FragRMSD	| 0.894

