@<TRIPOS>MOLECULE
BindingDB_50078433
 61 64 0 0 0
SMALL
NO_CHARGES


@<TRIPOS>ATOM
1    S        95.7141   40.9159   80.8695  S     
2    C        95.0443   35.5616   77.6592  C     
3    C        93.7413   35.2301   77.9927  C     
4    C        95.1492   36.2434   79.9052  C     
5    S        93.5433   35.6500   79.6451  S     
6    C        95.8299   36.1151   78.6819  C     
7    N        96.9646   40.1159   81.6609  N     
8    S        95.2579   35.1664   76.0040  S     
9    C        92.9634   34.6714   76.9661  C     
10   C        96.7874   39.1848   82.7283  C     
11   C        95.6219   36.7754   81.0962  C     
12   C        93.6649   34.5470   75.7546  C     
13   C        97.3173   39.7372   83.9982  C     
14   N        96.8681   37.2171   81.2048  N     
15   O        94.5438   41.2682   81.8870  O     
16   O        96.3130   42.3381   80.4889  O     
17   C        95.1743   40.1380   79.4113  C     
18   C        97.4523   37.8306   82.3614  C     
19   N        93.2184   30.2137   71.1421  N     
20   O        94.8572   36.8354   82.0504  O     
21   O        96.7188   39.3850   85.1568  O     
22   C        93.1820   33.9999   74.4671  C     
23   O        98.1006   40.8424   84.0404  O     
24   C        93.9097   32.6824   74.0408  C     
25   C        94.3241   32.6039   72.5341  C     
26   C        94.3348   30.0513   72.0931  C     
27   C        92.3322   31.3676   71.4252  C     
28   C        93.9417   39.4535   79.3853  C     
29   C        95.9731   40.1790   78.2473  C     
30   C        95.1844   31.3399   72.2072  C     
31   C        93.1324   32.6907   71.5279  C     
32   C        95.5394   39.5462   77.0681  C     
33   C        93.5100   38.8195   78.2075  C     
34   C        94.3115   38.8619   77.0501  C     
35   H        96.7953   36.4063   78.5373  H     
36   H        97.8734   40.3419   81.4021  H     
37   H        91.9912   34.3856   77.0900  H     
38   H        95.7175   39.0084   82.8841  H     
39   H        97.4528   37.1048   80.4378  H     
40   H        98.5070   38.0136   82.1468  H     
41   H        97.4044   37.1397   83.2080  H     
42   H        93.6137   30.2941   70.1995  H     
43   H        92.6640   29.3570   71.1695  H     
44   H        92.1094   33.7991   74.5294  H     
45   H        93.3179   34.7834   73.7156  H     
46   H        94.8224   32.5633   74.6303  H     
47   H        93.2690   31.8340   74.2921  H     
48   H        94.9682   33.4733   72.3537  H     
49   H        93.9392   29.7686   73.0721  H     
50   H        94.9607   29.2335   71.7320  H     
51   H        91.6007   31.4537   70.6194  H     
52   H        91.7894   31.1914   72.3553  H     
53   H        93.3531   39.4067   80.2175  H     
54   H        96.8648   40.6788   78.2458  H     
55   H        95.6995   31.4964   71.2538  H     
56   H        95.9504   31.1861   72.9678  H     
57   H        92.4547   33.5013   71.8019  H     
58   H        93.5286   32.9271   70.5363  H     
59   H        96.1186   39.5794   76.2264  H     
60   H        92.6221   38.3101   78.1948  H     
61   H        94.0018   38.3869   76.1993  H     
@<TRIPOS>BOND
     1    1    7 1
     2    1   15 2
     3    1   16 2
     4    1   17 1
     5    2    3 2
     6    2    6 1
     7    2    8 1
     8    3    5 1
     9    3    9 1
    10    4    5 1
    11    4    6 2
    12    4   11 1
    13   10    7 1
    14    8   12 1
    15    9   12 2
    16   10   13 1
    17   10   18 1
    18   11   14 am
    19   11   20 2
    20   12   22 1
    21   13   21 2
    22   13   23 1
    23   14   18 1
    24   17   28 2
    25   17   29 1
    26   19   26 1
    27   19   27 1
    28   22   24 1
    29   24   25 1
    30   25   30 1
    31   25   31 1
    32   26   30 1
    33   27   31 1
    34   28   33 1
    35   29   32 2
    36   32   34 1
    37   33   34 2
    38    6   35 1
    39    7   36 1
    40    9   37 1
    41   10   38 1
    42   14   39 1
    43   18   40 1
    44   18   41 1
    45   19   42 1
    46   19   43 1
    47   22   44 1
    48   22   45 1
    49   24   46 1
    50   24   47 1
    51   25   48 1
    52   26   49 1
    53   26   50 1
    54   27   51 1
    55   27   52 1
    56   28   53 1
    57   29   54 1
    58   30   55 1
    59   30   56 1
    60   31   57 1
    61   31   58 1
    62   32   59 1
    63   33   60 1
    64   34   61 1
@<TRIPOS>PROPERTY_DATA
  Total_Score	| 10.1377
  Crash		| -1.7204
  Polar		| 7.4460
  FragIndex	| 1
  FragRMSD	| 0.778

