@<TRIPOS>MOLECULE
BindingDB_50078437
 60 63 0 0 0
SMALL
NO_CHARGES


@<TRIPOS>ATOM
1    S        95.7201   40.8841   80.7738  S     
2    C        93.5586   35.2971   78.1705  C     
3    C        94.8729   35.5143   77.7802  C     
4    S        93.4284   35.7165   79.8291  S     
5    C        95.0802   36.1866   80.0321  C     
6    S        92.6539   34.7674   76.8088  S     
7    N        96.9812   40.1496   81.6159  N     
8    C        95.7191   35.9939   78.7954  C     
9    C        96.8020   39.1990   82.6657  C     
10   C        95.2103   40.0162   79.3557  C     
11   C        95.6238   36.6894   81.1942  C     
12   C        95.1216   35.2650   76.4223  C     
13   C        93.9895   34.8276   75.7146  C     
14   C        97.2863   39.7300   83.9571  C     
15   N        96.8639   37.1743   81.2082  N     
16   O        94.5281   41.2529   81.7626  O     
17   O        96.2750   42.3037   80.3168  O     
18   C        97.5042   37.8543   82.2954  C     
19   N        93.7063   30.9495   70.7356  N     
20   O        94.9282   36.7270   82.2054  O     
21   O        96.6654   39.3195   85.0816  O     
22   N        95.7606   38.5718   77.5229  N     
23   C        93.9367   34.6498   74.2449  C     
24   O        98.0800   40.8192   84.0631  O     
25   C        96.1379   39.2181   78.6541  C     
26   C        94.4782   33.2839   73.7340  C     
27   C        93.8942   40.1096   78.8509  C     
28   C        93.5395   32.0318   73.5089  C     
29   C        92.8276   32.1175   71.0295  C     
30   C        94.8376   30.7615   71.6702  C     
31   C        94.5090   38.6641   77.0060  C     
32   C        94.3545   30.7400   73.1511  C     
33   C        92.3532   32.1375   72.5026  C     
34   C        93.5381   39.4350   77.6714  C     
35   H        97.8840   40.4119   81.3827  H     
36   H        96.7023   36.1971   78.6243  H     
37   H        95.7423   38.9952   82.7998  H     
38   H        96.0302   35.4400   75.9823  H     
39   H        97.3880   37.0860   80.3979  H     
40   H        98.5383   38.0705   81.9991  H     
41   H        97.5520   37.1943   83.1694  H     
42   H        93.1273   30.0901   70.7380  H     
43   H        94.0907   31.0789   69.7904  H     
44   H        92.9460   34.8634   73.8362  H     
45   H        94.5928   35.4256   73.8480  H     
46   H        97.1004   39.1159   78.9812  H     
47   H        95.0261   33.5089   72.8051  H     
48   H        95.2664   32.9710   74.4311  H     
49   H        93.1910   40.6737   79.3324  H     
50   H        93.0712   31.8267   74.4801  H     
51   H        93.3591   33.0519   70.8437  H     
52   H        91.9601   32.0623   70.3660  H     
53   H        95.3265   29.8091   71.4329  H     
54   H        95.5688   31.5703   71.5216  H     
55   H        94.2762   38.1529   76.1561  H     
56   H        95.2175   30.6355   73.8222  H     
57   H        93.7197   29.8572   73.2932  H     
58   H        91.6863   31.2756   72.6526  H     
59   H        91.7645   33.0377   72.6943  H     
60   H        92.5903   39.5038   77.2918  H     
@<TRIPOS>BOND
     1    1    7 1
     2    1   10 1
     3    1   16 2
     4    1   17 2
     5    2    3 2
     6    2    4 1
     7    2    6 1
     8    3    8 1
     9    3   12 1
    10    4    5 1
    11    5    8 2
    12    5   11 1
    13    6   13 1
    14    9    7 1
    15    9   14 1
    16    9   18 1
    17   10   25 2
    18   10   27 1
    19   11   15 am
    20   11   20 2
    21   12   13 2
    22   13   23 1
    23   14   21 2
    24   14   24 1
    25   15   18 1
    26   19   29 1
    27   19   30 1
    28   22   25 1
    29   22   31 2
    30   23   26 1
    31   26   28 1
    32   27   34 2
    33   28   32 1
    34   28   33 1
    35   29   33 1
    36   30   32 1
    37   31   34 1
    38    7   35 1
    39    8   36 1
    40    9   37 1
    41   12   38 1
    42   15   39 1
    43   18   40 1
    44   18   41 1
    45   19   42 1
    46   19   43 1
    47   23   44 1
    48   23   45 1
    49   25   46 1
    50   26   47 1
    51   26   48 1
    52   27   49 1
    53   28   50 1
    54   29   51 1
    55   29   52 1
    56   30   53 1
    57   30   54 1
    58   31   55 1
    59   32   56 1
    60   32   57 1
    61   33   58 1
    62   33   59 1
    63   34   60 1
@<TRIPOS>PROPERTY_DATA
  Total_Score	| 11.6798
  Crash		| -1.0491
  Polar		| 7.9734
  FragIndex	| 1
  FragRMSD	| 0.524

