@<TRIPOS>MOLECULE
BindingDB_50078447
 63 66 0 0 0
SMALL
NO_CHARGES


@<TRIPOS>ATOM
1    S        95.7642   40.8818   80.8499  S     
2    C        93.6186   35.3399   78.3696  C     
3    C        94.9177   35.5788   77.9410  C     
4    S        93.5387   35.7007   80.0469  S     
5    C        95.1939   36.1793   80.2174  C     
6    S        92.6707   34.8382   77.0301  S     
7    N        97.0172   40.0979   81.6602  N     
8    C        95.7953   36.0153   78.9526  C     
9    C        96.8248   39.1836   82.7441  C     
10   C        95.2972   40.0813   79.3784  C     
11   C        95.7513   36.6817   81.3702  C     
12   C        95.1104   35.3755   76.5691  C     
13   C        93.9598   34.9451   75.8819  C     
14   C        97.2533   39.7631   84.0321  C     
15   N        97.0084   37.1103   81.4053  N     
16   O        94.5318   41.1340   81.8194  O     
17   O        96.3054   42.3450   80.5105  O     
18   C        97.5975   37.8642   82.4718  C     
19   N        94.1468   31.7778   70.1090  N     
20   O        95.0449   36.7859   82.3629  O     
21   O        98.1452   40.7736   84.1181  O     
22   N        94.1035   38.3430   78.2183  N     
23   O        96.6206   39.3951   85.1689  O     
24   C        94.4246   38.9609   79.3771  C     
25   C        93.8469   34.7724   74.4230  C     
26   C        95.7956   40.5172   78.1299  C     
27   C        94.2447   33.3694   73.8951  C     
28   C        92.8355   32.2464   70.6050  C     
29   C        95.1465   31.4253   71.1396  C     
30   C        94.5780   38.7438   77.0097  C     
31   C        93.1784   31.0841   72.8619  C     
32   C        93.1053   32.3154   73.8527  C     
33   C        92.2410   31.2472   71.6331  C     
34   C        94.5681   30.5975   72.3302  C     
35   C        95.4419   39.8598   76.9383  C     
36   H        97.9227   40.3398   81.4166  H     
37   H        96.7871   36.2063   78.7627  H     
38   H        95.7598   38.9551   82.8276  H     
39   H        95.9992   35.5444   76.1028  H     
40   H        97.5706   36.9445   80.6333  H     
41   H        98.6326   38.0923   82.1939  H     
42   H        97.6324   37.2606   83.3831  H     
43   H        94.0106   30.9764   69.4864  H     
44   H        94.5396   32.5404   69.5555  H     
45   H        94.0103   38.6209   80.2464  H     
46   H        92.8334   35.0208   74.0975  H     
47   H        94.5148   35.4940   73.9443  H     
48   H        96.4148   41.3369   78.0779  H     
49   H        94.6082   33.5368   72.8739  H     
50   H        95.0744   32.9627   74.4976  H     
51   H        92.9459   33.2376   71.0515  H     
52   H        92.1484   32.3356   69.7638  H     
53   H        95.9388   30.8518   70.6502  H     
54   H        95.6069   32.3511   71.4927  H     
55   H        94.3073   38.2450   76.1613  H     
56   H        92.7796   30.2433   73.4372  H     
57   H        93.0143   31.9331   74.8815  H     
58   H        92.1769   32.8562   73.6656  H     
59   H        91.2516   31.5865   71.9554  H     
60   H        92.0976   30.2712   71.1553  H     
61   H        94.4554   29.5610   71.9665  H     
62   H        95.3089   30.5689   73.1318  H     
63   H        95.7909   40.1920   76.0301  H     
@<TRIPOS>BOND
     1    1    7 1
     2    1   10 1
     3    1   16 2
     4    1   17 2
     5    2    3 2
     6    2    4 1
     7    2    6 1
     8    3    8 1
     9    3   12 1
    10    4    5 1
    11    5    8 2
    12    5   11 1
    13    6   13 1
    14    9    7 1
    15    9   14 1
    16    9   18 1
    17   10   24 2
    18   10   26 1
    19   11   15 am
    20   11   20 2
    21   12   13 2
    22   13   25 1
    23   14   21 2
    24   14   23 1
    25   15   18 1
    26   19   28 1
    27   19   29 1
    28   22   24 1
    29   22   30 2
    30   25   27 1
    31   26   35 2
    32   27   32 1
    33   28   33 1
    34   29   34 1
    35   30   35 1
    36   31   32 1
    37   31   33 1
    38   31   34 1
    39    7   36 1
    40    8   37 1
    41    9   38 1
    42   12   39 1
    43   15   40 1
    44   18   41 1
    45   18   42 1
    46   19   43 1
    47   19   44 1
    48   24   45 1
    49   25   46 1
    50   25   47 1
    51   26   48 1
    52   27   49 1
    53   27   50 1
    54   28   51 1
    55   28   52 1
    56   29   53 1
    57   29   54 1
    58   30   55 1
    59   31   56 1
    60   32   57 1
    61   32   58 1
    62   33   59 1
    63   33   60 1
    64   34   61 1
    65   34   62 1
    66   35   63 1
@<TRIPOS>PROPERTY_DATA
  Total_Score	| 12.2353
  Crash		| -1.4500
  Polar		| 8.1787
  FragIndex	| 1
  FragRMSD	| 1.143

