@<TRIPOS>MOLECULE
BindingDB_50078442
 65 68 0 0 0
SMALL
NO_CHARGES


@<TRIPOS>ATOM
1    S        95.6211   40.9494   80.8570  S     
2    C        94.5959   33.3104   77.2174  C     
3    N        94.5741   33.4096   75.8927  N     
4    C        94.8504   34.5334   77.7751  C     
5    N        96.8547   39.9793   81.4663  N     
6    C        96.6750   39.0471   82.5361  C     
7    C        94.7838   40.2115   79.5293  C     
8    C        94.9747   35.4423   76.7434  C     
9    C        95.0964   34.9114   79.1207  C     
10   C        95.8447   36.6363   80.7002  C     
11   C        94.7511   34.7678   75.4545  C     
12   C        97.0837   39.6531   83.8245  C     
13   C        95.5492   36.2275   79.4078  C     
14   N        97.0449   37.1392   80.9945  N     
15   O        94.6131   41.3029   82.0387  O     
16   O        96.2899   42.3317   80.4564  O     
17   O        94.5956   32.2776   77.8621  O     
18   C        97.4619   37.7452   82.2210  C     
19   C        94.5121   32.2574   75.0163  C     
20   N        92.9151   30.8348   70.3729  N     
21   C        95.3724   36.7614   76.9994  C     
22   O        94.9827   36.5455   81.5640  O     
23   O        96.5962   39.1578   84.9850  O     
24   N        93.4006   38.4394   78.6890  N     
25   C        95.6836   37.1422   78.3229  C     
26   O        97.9665   40.6746   83.9030  O     
27   C        94.0624   39.0148   79.7268  C     
28   C        94.4438   32.5244   73.4873  C     
29   C        94.7985   40.7744   78.2338  C     
30   C        94.8141   31.2734   72.6054  C     
31   C        92.5026   30.4680   71.7466  C     
32   C        93.8692   31.9637   70.3052  C     
33   C        93.3907   38.9707   77.4439  C     
34   C        95.1435   31.6552   71.1303  C     
35   C        93.7433   30.1304   72.6136  C     
36   C        94.0987   40.1591   77.1807  C     
37   H        97.7635   40.1743   81.1835  H     
38   H        95.6182   38.7779   82.6200  H     
39   H        95.0082   34.2170   79.8652  H     
40   H        95.6291   34.8635   74.8088  H     
41   H        93.8622   35.1578   74.9513  H     
42   H        97.7008   37.1227   80.2839  H     
43   H        98.5213   37.9915   82.1163  H     
44   H        97.3661   37.0278   83.0385  H     
45   H        95.4003   31.6537   75.2177  H     
46   H        93.6435   31.6592   75.3107  H     
47   H        93.3588   30.0191   69.9403  H     
48   H        92.0817   31.0782   69.8330  H     
49   H        95.4596   37.4418   76.2437  H     
50   H        96.0164   38.0971   78.4971  H     
51   H        94.0042   38.5789   80.6468  H     
52   H        93.4362   32.8718   73.2340  H     
53   H        95.1467   33.3343   73.2703  H     
54   H        95.3137   41.6402   78.0502  H     
55   H        95.7349   30.8551   73.0286  H     
56   H        91.9252   31.2818   72.1919  H     
57   H        91.8516   29.5947   71.6940  H     
58   H        94.1489   32.1154   69.2645  H     
59   H        93.3946   32.8802   70.6642  H     
60   H        92.8571   38.5134   76.7035  H     
61   H        95.8193   32.5129   71.0942  H     
62   H        95.6639   30.8153   70.6562  H     
63   H        94.2047   29.2286   72.1949  H     
64   H        93.4293   29.8913   73.6321  H     
65   H        94.1037   40.5599   76.2470  H     
@<TRIPOS>BOND
     1    1    5 1
     2    1    7 1
     3    1   15 2
     4    1   16 2
     5    2    3 1
     6    2    4 1
     7    2   17 2
     8    3   11 1
     9    3   19 1
    10    4    8 2
    11    4    9 1
    12    6    5 1
    13    6   12 1
    14    6   18 1
    15    7   27 2
    16    7   29 1
    17    8   11 1
    18    8   21 1
    19    9   13 2
    20   10   13 1
    21   10   14 am
    22   10   22 2
    23   12   23 2
    24   12   26 1
    25   13   25 1
    26   14   18 1
    27   19   28 1
    28   20   31 1
    29   20   32 1
    30   21   25 2
    31   24   27 1
    32   24   33 2
    33   28   30 1
    34   29   36 2
    35   30   34 1
    36   30   35 1
    37   31   35 1
    38   32   34 1
    39   33   36 1
    40    5   37 1
    41    6   38 1
    42    9   39 1
    43   11   40 1
    44   11   41 1
    45   14   42 1
    46   18   43 1
    47   18   44 1
    48   19   45 1
    49   19   46 1
    50   20   47 1
    51   20   48 1
    52   21   49 1
    53   25   50 1
    54   27   51 1
    55   28   52 1
    56   28   53 1
    57   29   54 1
    58   30   55 1
    59   31   56 1
    60   31   57 1
    61   32   58 1
    62   32   59 1
    63   33   60 1
    64   34   61 1
    65   34   62 1
    66   35   63 1
    67   35   64 1
    68   36   65 1
@<TRIPOS>PROPERTY_DATA
  Total_Score	| 12.6098
  Crash		| -2.0509
  Polar		| 9.1333
  FragIndex	| 1
  FragRMSD	| 1.332

