@<TRIPOS>MOLECULE
BindingDB_50078446
 46 48 0 0 0
SMALL
NO_CHARGES


@<TRIPOS>ATOM
1    C        93.4406   35.8094   78.1143  C     
2    C        94.7708   35.9256   77.7397  C     
3    S        93.3104   36.3131   79.7447  S     
4    C        94.9935   36.6512   79.9693  C     
5    S        92.5261   35.2173   76.7839  S     
6    C        95.6345   36.3795   78.7466  C     
7    C        95.0195   35.5457   76.4071  C     
8    C        93.8773   35.1101   75.7102  C     
9    C        95.5403   37.1256   81.1383  C     
10   C        97.4559   39.7396   84.0664  C     
11   N        93.5447   30.5741   70.7083  N     
12   C        97.1042   39.2759   82.7149  C     
13   O        94.7842   37.4086   82.0660  O     
14   O        98.3508   40.7401   84.2652  O     
15   N        96.8578   37.2708   81.2795  N     
16   C        93.8611   34.5841   74.3374  C     
17   C        97.5127   37.8011   82.4374  C     
18   O        96.6736   39.3936   85.1118  O     
19   C        94.0718   33.0447   74.3151  C     
20   C        94.1840   32.4480   72.8808  C     
21   C        94.7777   30.3857   71.5052  C     
22   C        93.0506   31.9669   70.6357  C     
23   C        94.6172   30.9537   72.9381  C     
24   C        92.8785   32.5931   72.0416  C     
25   H        96.6342   36.4934   78.5877  H     
26   H        95.9493   35.5733   75.9800  H     
27   H        93.7478   30.2636   69.7564  H     
28   H        92.8052   29.9744   71.0935  H     
29   H        96.0195   39.4097   82.5969  H     
30   H        97.5804   39.9235   81.9696  H     
31   H        97.4314   36.9942   80.5565  H     
32   H        92.9053   34.8490   73.8851  H     
33   H        94.6552   35.0758   73.7600  H     
34   H        98.5975   37.7829   82.2624  H     
35   H        97.3191   37.1685   83.3144  H     
36   H        94.9993   32.8280   74.8573  H     
37   H        93.2506   32.5629   74.8521  H     
38   H        94.9780   32.9989   72.3644  H     
39   H        94.9892   29.3170   71.5461  H     
40   H        95.6129   30.8795   70.9933  H     
41   H        93.7585   32.5625   70.0493  H     
42   H        92.0900   31.9766   70.1105  H     
43   H        95.5722   30.8454   73.4531  H     
44   H        93.8727   30.3582   73.4745  H     
45   H        92.0462   32.1000   72.5569  H     
46   H        92.6225   33.6428   71.9126  H     
@<TRIPOS>BOND
     1    1    2 2
     2    1    3 1
     3    1    5 1
     4    2    6 1
     5    2    7 1
     6    3    4 1
     7    4    6 2
     8    4    9 1
     9    5    8 1
    10    7    8 2
    11    8   16 1
    12    9   13 2
    13    9   15 am
    14   10   12 1
    15   10   14 2
    16   10   18 1
    17   11   21 1
    18   11   22 1
    19   12   17 1
    20   15   17 1
    21   16   19 1
    22   19   20 1
    23   20   23 1
    24   20   24 1
    25   21   23 1
    26   22   24 1
    27    6   25 1
    28    7   26 1
    29   11   27 1
    30   11   28 1
    31   12   29 1
    32   12   30 1
    33   15   31 1
    34   16   32 1
    35   16   33 1
    36   17   34 1
    37   17   35 1
    38   19   36 1
    39   19   37 1
    40   20   38 1
    41   21   39 1
    42   21   40 1
    43   22   41 1
    44   22   42 1
    45   23   43 1
    46   23   44 1
    47   24   45 1
    48   24   46 1
@<TRIPOS>PROPERTY_DATA
  Total_Score	| 8.7541
  Crash		| -1.0495
  Polar		| 5.4950
  FragIndex	| 1
  FragRMSD	| 0.732

