@<TRIPOS>MOLECULE
BindingDB_50078438
 58 61 0 0 0
SMALL
NO_CHARGES


@<TRIPOS>ATOM
1    S        95.6104   40.9395   80.7036  S     
2    C        95.0492   35.3402   77.5384  C     
3    C        93.7851   34.8929   77.8943  C     
4    C        95.1814   35.9378   79.8079  C     
5    S        93.6163   35.2324   79.5721  S     
6    C        95.8377   35.8828   78.5664  C     
7    C        94.9671   40.2755   79.2341  C     
8    N        96.8370   40.0313   81.4164  N     
9    S        95.2183   35.0673   75.8515  S     
10   C        93.0216   34.3235   76.8562  C     
11   C        96.6286   39.1202   82.5040  C     
12   C        95.6398   36.4942   80.9896  C     
13   C        93.6793   34.3216   75.6147  C     
14   C        97.0621   39.7275   83.7869  C     
15   S        95.8377   39.2809   78.1349  S     
16   N        96.8333   37.0746   81.0753  N     
17   O        94.4610   41.2870   81.7496  O     
18   O        96.2551   42.3503   80.3518  O     
19   C        97.3604   37.7731   82.2160  C     
20   C        93.6713   40.4265   78.7294  C     
21   N        93.3010   30.2073   70.8116  N     
22   C        94.5450   39.0491   77.0313  C     
23   O        94.9023   36.4690   81.9628  O     
24   O        96.6518   39.1770   84.9487  O     
25   C        93.4391   39.7499   77.5207  C     
26   C        93.1917   33.8414   74.3049  C     
27   O        97.9081   40.7833   83.8549  O     
28   C        93.9905   32.6176   73.7500  C     
29   C        94.2521   32.6512   72.2076  C     
30   C        94.5146   30.1365   71.6484  C     
31   C        92.3161   31.2215   71.2476  C     
32   C        95.2139   31.5143   71.7309  C     
33   C        92.9538   32.6316   71.3365  C     
34   H        96.7808   36.2360   78.3985  H     
35   H        97.7559   40.2499   81.1903  H     
36   H        92.0807   33.9484   77.0065  H     
37   H        95.5618   38.9159   82.6034  H     
38   H        97.4113   37.0156   80.3018  H     
39   H        98.4193   37.9757   82.0310  H     
40   H        97.3114   37.1156   83.0899  H     
41   H        92.9612   41.0023   79.1817  H     
42   H        93.5805   30.4072   69.8486  H     
43   H        92.8541   29.2922   70.8394  H     
44   H        94.5814   38.4789   76.1827  H     
45   H        92.5448   39.7769   77.0293  H     
46   H        92.1391   33.5723   74.3839  H     
47   H        93.2477   34.6937   73.6271  H     
48   H        94.9651   32.5626   74.2385  H     
49   H        93.4566   31.7029   74.0114  H     
50   H        94.7703   33.5947   71.9994  H     
51   H        94.2510   29.7859   72.6464  H     
52   H        95.1981   29.4098   71.2080  H     
53   H        91.4937   31.2450   70.5283  H     
54   H        91.9018   30.9394   72.2183  H     
55   H        95.6033   31.7638   70.7344  H     
56   H        96.0695   31.4321   72.4071  H     
57   H        92.2184   33.3375   71.7277  H     
58   H        93.2025   32.9563   70.3211  H     
@<TRIPOS>BOND
     1    1    7 1
     2    1    8 1
     3    1   17 2
     4    1   18 2
     5    2    3 2
     6    2    6 1
     7    2    9 1
     8    3    5 1
     9    3   10 1
    10    4    5 1
    11    4    6 2
    12    4   12 1
    13    7   15 1
    14    7   20 2
    15   11    8 1
    16    9   13 1
    17   10   13 2
    18   11   14 1
    19   11   19 1
    20   12   16 am
    21   12   23 2
    22   13   26 1
    23   14   24 2
    24   14   27 1
    25   15   22 1
    26   16   19 1
    27   20   25 1
    28   21   30 1
    29   21   31 1
    30   22   25 2
    31   26   28 1
    32   28   29 1
    33   29   32 1
    34   29   33 1
    35   30   32 1
    36   31   33 1
    37    6   34 1
    38    8   35 1
    39   10   36 1
    40   11   37 1
    41   16   38 1
    42   19   39 1
    43   19   40 1
    44   20   41 1
    45   21   42 1
    46   21   43 1
    47   22   44 1
    48   25   45 1
    49   26   46 1
    50   26   47 1
    51   28   48 1
    52   28   49 1
    53   29   50 1
    54   30   51 1
    55   30   52 1
    56   31   53 1
    57   31   54 1
    58   32   55 1
    59   32   56 1
    60   33   57 1
    61   33   58 1
@<TRIPOS>PROPERTY_DATA
  Total_Score	| 10.6151
  Crash		| -1.2839
  Polar		| 8.1688
  FragIndex	| 1
  FragRMSD	| 0.849

