@<TRIPOS>MOLECULE
BindingDB_50078431
 58 61 0 0 0
SMALL
NO_CHARGES


@<TRIPOS>ATOM
1    S        95.6707   40.9204   80.8698  S     
2    C        93.4001   35.7906   78.1033  C     
3    C        94.7474   35.8500   77.7752  C     
4    S        93.2070   36.2736   79.7332  S     
5    C        94.8977   36.5332   80.0221  C     
6    C        95.0740   40.1924   79.4309  C     
7    S        92.5108   35.2447   76.7462  S     
8    N        96.9015   40.1126   81.6965  N     
9    C        95.5840   36.2682   78.8202  C     
10   C        96.6856   39.2562   82.8239  C     
11   C        95.3991   36.9784   81.2323  C     
12   C        95.0195   35.4721   76.4519  C     
13   C        93.8868   35.0867   75.7150  C     
14   C        97.2198   39.8332   84.0692  C     
15   S        93.4224   39.8209   79.1068  S     
16   N        96.6965   37.2029   81.3936  N     
17   O        94.4747   41.2694   81.8569  O     
18   O        96.2621   42.3529   80.5114  O     
19   C        97.2939   37.8483   82.5376  C     
20   C        95.8027   39.8776   78.2734  C     
21   N        93.6280   30.4334   70.7415  N     
22   C        93.6622   39.2512   77.4994  C     
23   O        94.6082   37.1758   82.1525  O     
24   O        96.7036   39.4542   85.2628  O     
25   C        95.0295   39.3665   77.2206  C     
26   C        93.8759   34.5517   74.3559  C     
27   O        98.1571   40.8093   84.0543  O     
28   C        94.0505   32.9982   74.3368  C     
29   C        94.1409   32.3852   72.9003  C     
30   C        94.9292   30.4375   71.4516  C     
31   C        92.8821   31.7091   70.7613  C     
32   C        94.7847   30.9616   72.8977  C     
33   C        92.7516   32.2996   72.1904  C     
34   H        97.8144   40.3224   81.4641  H     
35   H        96.6009   36.3553   78.7272  H     
36   H        95.6164   39.1533   82.9915  H     
37   H        95.9634   35.4544   76.0663  H     
38   H        97.2809   36.9504   80.6641  H     
39   H        98.3593   37.9498   82.3409  H     
40   H        97.1681   37.2074   83.4141  H     
41   H        96.8061   40.0219   78.1988  H     
42   H        93.8359   30.2033   69.7659  H     
43   H        93.0523   29.6678   71.1213  H     
44   H        92.9401   38.9097   76.8835  H     
45   H        95.4198   39.1092   76.3211  H     
46   H        92.9515   34.8427   73.8396  H     
47   H        94.7178   34.9926   73.7928  H     
48   H        94.9727   32.7678   74.8761  H     
49   H        93.2396   32.5238   74.8988  H     
50   H        94.7872   33.0304   72.2951  H     
51   H        95.3142   29.4154   71.4650  H     
52   H        95.6418   31.0584   70.9013  H     
53   H        93.3849   32.4299   70.1167  H     
54   H        91.8905   31.5183   70.3540  H     
55   H        95.7763   30.9922   73.3584  H     
56   H        94.1700   30.2610   73.4831  H     
57   H        92.0853   31.6508   72.7736  H     
58   H        92.2966   33.2889   72.1329  H     
@<TRIPOS>BOND
     1    1    6 1
     2    1    8 1
     3    1   17 2
     4    1   18 2
     5    2    3 2
     6    2    4 1
     7    2    7 1
     8    3    9 1
     9    3   12 1
    10    4    5 1
    11    5    9 2
    12    5   11 1
    13    6   15 1
    14    6   20 2
    15    7   13 1
    16   10    8 1
    17   10   14 1
    18   10   19 1
    19   11   16 am
    20   11   23 2
    21   12   13 2
    22   13   26 1
    23   14   24 2
    24   14   27 1
    25   15   22 1
    26   16   19 1
    27   20   25 1
    28   21   30 1
    29   21   31 1
    30   22   25 2
    31   26   28 1
    32   28   29 1
    33   29   32 1
    34   29   33 1
    35   30   32 1
    36   31   33 1
    37    8   34 1
    38    9   35 1
    39   10   36 1
    40   12   37 1
    41   16   38 1
    42   19   39 1
    43   19   40 1
    44   20   41 1
    45   21   42 1
    46   21   43 1
    47   22   44 1
    48   25   45 1
    49   26   46 1
    50   26   47 1
    51   28   48 1
    52   28   49 1
    53   29   50 1
    54   30   51 1
    55   30   52 1
    56   31   53 1
    57   31   54 1
    58   32   55 1
    59   32   56 1
    60   33   57 1
    61   33   58 1
@<TRIPOS>PROPERTY_DATA
  Total_Score	| 10.9451
  Crash		| -1.3492
  Polar		| 7.7716
  FragIndex	| 1
  FragRMSD	| 0.536

