@<TRIPOS>MOLECULE
BindingDB_50078441
 60 63 0 0 0
SMALL
NO_CHARGES


@<TRIPOS>ATOM
1    S        95.6410   40.9261   80.6951  S     
2    C        95.0968   35.3598   77.6050  C     
3    C        93.8008   34.9733   77.9296  C     
4    C        95.1273   36.1032   79.8360  C     
5    S        93.5568   35.4158   79.5708  S     
6    C        95.8368   35.9814   78.6236  C     
7    N        96.8727   40.1876   81.5785  N     
8    S        95.3259   34.9603   75.9418  S     
9    C        93.0580   34.3811   76.9004  C     
10   C        96.6400   39.2449   82.6280  C     
11   C        95.1552   40.0462   79.2680  C     
12   C        95.5506   36.6961   81.0171  C     
13   C        93.7584   34.2903   75.6816  C     
14   C        97.1368   39.7771   83.9208  C     
15   N        96.7566   37.2457   81.1164  N     
16   O        94.4028   41.2793   81.6310  O     
17   O        96.2054   42.3393   80.2399  O     
18   C        97.3167   37.8859   82.2744  C     
19   N        93.3356   30.1711   70.7734  N     
20   O        94.7861   36.6979   81.9777  O     
21   O        96.6619   39.2680   85.0825  O     
22   N        95.7508   38.6694   77.3933  N     
23   C        93.2431   33.8376   74.3719  C     
24   O        98.0462   40.7724   83.9921  O     
25   C        96.1211   39.3532   78.5061  C     
26   C        93.9025   32.5232   73.8426  C     
27   C        93.8119   40.0321   78.8307  C     
28   C        94.2361   32.5485   72.3110  C     
29   C        94.4858   30.0464   71.6920  C     
30   C        92.3332   31.1783   71.1940  C     
31   C        94.4654   38.6462   76.9482  C     
32   C        92.9771   32.5773   71.3849  C     
33   C        95.2038   31.4051   71.8685  C     
34   C        93.4592   39.3267   77.6630  C     
35   H        96.7937   36.3105   78.4849  H     
36   H        97.7891   40.4533   81.3924  H     
37   H        92.0936   34.0700   77.0154  H     
38   H        95.5668   39.0759   82.7445  H     
39   H        97.3304   37.1965   80.3315  H     
40   H        98.3790   38.0549   82.0733  H     
41   H        97.2494   37.2059   83.1312  H     
42   H        93.6841   30.4109   69.8388  H     
43   H        92.8769   29.2589   70.7193  H     
44   H        92.1610   33.7049   74.4267  H     
45   H        93.4214   34.6577   73.6699  H     
46   H        97.1006   39.3401   78.7935  H     
47   H        94.8304   32.3544   74.3976  H     
48   H        93.2370   31.6832   74.0668  H     
49   H        93.0827   40.5298   79.3499  H     
50   H        94.7852   33.4785   72.1358  H     
51   H        94.1471   29.6676   72.6601  H     
52   H        95.1805   29.3204   71.2653  H     
53   H        91.5626   31.2389   70.4207  H     
54   H        91.8533   30.8508   72.1239  H     
55   H        94.2346   38.1185   76.1071  H     
56   H        92.2279   33.2663   71.7786  H     
57   H        93.2745   32.9488   70.4007  H     
58   H        95.6607   31.6761   70.9107  H     
59   H        96.0140   31.2838   72.5894  H     
60   H        92.4874   39.3076   77.3360  H     
@<TRIPOS>BOND
     1    1    7 1
     2    1   11 1
     3    1   16 2
     4    1   17 2
     5    2    3 2
     6    2    6 1
     7    2    8 1
     8    3    5 1
     9    3    9 1
    10    4    5 1
    11    4    6 2
    12    4   12 1
    13   10    7 1
    14    8   13 1
    15    9   13 2
    16   10   14 1
    17   10   18 1
    18   11   25 2
    19   11   27 1
    20   12   15 am
    21   12   20 2
    22   13   23 1
    23   14   21 2
    24   14   24 1
    25   15   18 1
    26   19   29 1
    27   19   30 1
    28   22   25 1
    29   22   31 2
    30   23   26 1
    31   26   28 1
    32   27   34 2
    33   28   32 1
    34   28   33 1
    35   29   33 1
    36   30   32 1
    37   31   34 1
    38    6   35 1
    39    7   36 1
    40    9   37 1
    41   10   38 1
    42   15   39 1
    43   18   40 1
    44   18   41 1
    45   19   42 1
    46   19   43 1
    47   23   44 1
    48   23   45 1
    49   25   46 1
    50   26   47 1
    51   26   48 1
    52   27   49 1
    53   28   50 1
    54   29   51 1
    55   29   52 1
    56   30   53 1
    57   30   54 1
    58   31   55 1
    59   32   56 1
    60   32   57 1
    61   33   58 1
    62   33   59 1
    63   34   60 1
@<TRIPOS>PROPERTY_DATA
  Total_Score	| 10.9685
  Crash		| -1.5773
  Polar		| 8.6978
  FragIndex	| 1
  FragRMSD	| 0.767

