@<TRIPOS>MOLECULE
BindingDB_50167358
 54 55 0 0 0
SMALL
NO_CHARGES


@<TRIPOS>ATOM
1    N        -4.7997    8.4120   11.4793  N     
2    C        -5.7924    7.6125   11.9556  C     
3    C        -3.4957    8.2711   11.8298  C     
4    S        -6.1874    0.9161   16.9340  S     
5    N        -5.4383    6.6295   12.8358  N     
6    N        -3.2021    7.2516   12.6891  N     
7    C        -4.1462    6.4355   13.2109  C     
8    C        -5.5009    2.2662   16.0772  C     
9    N        -3.6921    5.4593   14.0316  N     
10   N        -7.0740    7.7455   11.4877  N     
11   N        -2.5271    9.0941   11.3192  N     
12   O        -5.8641   -0.3811   16.0773  O     
13   O        -5.4615    0.6431   18.3200  O     
14   N        -7.8588    0.9243   17.0716  N     
15   C        -4.1133    2.3108   15.8428  C     
16   C        -6.3130    3.3244   15.6233  C     
17   C        -4.3518    4.4547   14.6769  C     
18   C        -5.7445    4.4085   14.9311  C     
19   C        -3.5459    3.4001   15.1559  C     
20   C        -1.1144    8.8060   11.5200  C     
21   C        -7.3277    8.5001   10.2716  C     
22   C        -8.1647    7.1576   12.2262  C     
23   C        -2.9236   10.2528   10.5426  C     
24   C        -6.6071    7.9147    9.0045  C     
25   C        -0.6188    9.0674   12.9725  C     
26   C        -7.5294    7.0947    8.0550  C     
27   C         0.9159    8.8900   13.1151  C     
28   H        -2.7256    5.4479   14.1351  H     
29   H        -8.3795    0.3451   16.4808  H     
30   H        -8.2863    1.7028   17.4700  H     
31   H        -3.5000    1.5658   16.1837  H     
32   H        -7.3201    3.3230   15.7946  H     
33   H        -6.3591    5.1693   14.6422  H     
34   H        -2.5310    3.4133   15.0075  H     
35   H        -0.9172    7.7608   11.2610  H     
36   H        -0.4912    9.4036   10.8481  H     
37   H        -8.3951    8.5812   10.0510  H     
38   H        -6.9808    9.5295   10.4455  H     
39   H        -8.0262    6.0826   12.3096  H     
40   H        -9.1306    7.3327   11.7558  H     
41   H        -8.2051    7.5818   13.2320  H     
42   H        -3.4575    9.9472    9.6372  H     
43   H        -2.0872   10.8749   10.2300  H     
44   H        -3.5838   10.8856   11.1419  H     
45   H        -6.1982    8.7533    8.4296  H     
46   H        -5.7711    7.2744    9.2996  H     
47   H        -0.8822   10.0890   13.2665  H     
48   H        -1.0975    8.3749   13.6699  H     
49   H        -7.9246    6.2105    8.5683  H     
50   H        -6.9498    6.7654    7.1863  H     
51   H        -8.3653    7.7070    7.7081  H     
52   H         1.2289    7.9103   12.7418  H     
53   H         1.2044    8.9667   14.1692  H     
54   H         1.4391    9.6717   12.5548  H     
@<TRIPOS>BOND
     1    1    2 2
     2    1    3 1
     3    2    5 1
     4    2   10 1
     5    3    6 2
     6    3   11 1
     7    4    8 1
     8    4   12 2
     9    4   13 2
    10    4   14 am
    11    5    7 2
    12    6    7 1
    13    7    9 1
    14    8   15 1
    15    8   16 2
    16    9   17 1
    17   10   21 1
    18   10   22 1
    19   11   20 1
    20   11   23 1
    21   15   19 2
    22   16   18 1
    23   17   18 2
    24   17   19 1
    25   20   25 1
    26   21   24 1
    27   24   26 1
    28   25   27 1
    29    9   28 1
    30   14   29 1
    31   14   30 1
    32   15   31 1
    33   16   32 1
    34   18   33 1
    35   19   34 1
    36   20   35 1
    37   20   36 1
    38   21   37 1
    39   21   38 1
    40   22   39 1
    41   22   40 1
    42   22   41 1
    43   23   42 1
    44   23   43 1
    45   23   44 1
    46   24   45 1
    47   24   46 1
    48   25   47 1
    49   25   48 1
    50   26   49 1
    51   26   50 1
    52   26   51 1
    53   27   52 1
    54   27   53 1
    55   27   54 1
@<TRIPOS>PROPERTY_DATA
  Total_Score	| 5.3506
  Crash		| -2.8713
  Polar		| 2.8461
  FragIndex	| 1
  FragRMSD	| 1.221

