@<TRIPOS>MOLECULE
BindingDB_50349850
 35 36 0 0 0
SMALL
NO_CHARGES


@<TRIPOS>ATOM
1    C        -5.5748    2.1735   16.2183  C     
2    N        -7.7089    1.0733   17.8156  N     
3    O        -6.1340   -0.5095   16.3602  O     
4    S        -6.1737    0.8517   17.1818  S     
5    C        -6.4377    3.1943   15.7758  C     
6    O        -5.2115    0.6602   18.4358  O     
7    C        -5.9470    4.2612   14.9992  C     
8    C        -4.5776    4.3351   14.6382  C     
9    C        -3.7218    3.3124   15.1001  C     
10   C        -4.2096    2.2364   15.8699  C     
11   N        -3.9845    5.3323   13.9148  N     
12   C        -4.5313    6.2985   13.1401  C     
13   N        -3.6714    7.1754   12.5510  N     
14   C        -4.1254    8.1818   11.7531  C     
15   N        -3.3234    9.0487   11.1000  N     
16   N        -5.4585    8.3060   11.5396  N     
17   C        -6.3193    7.4349   12.1189  C     
18   Cl       -7.9844    7.5942   11.8803  Cl    
19   N        -5.8618    6.4242   12.8940  N     
20   C        -1.8906    9.1313   11.1479  C     
21   C        -1.1750    7.8106   10.7669  C     
22   O         0.2004    8.0419   10.4543  O     
23   H        -7.8353    0.9719   18.7768  H     
24   H        -8.3905    1.5189   17.2755  H     
25   H        -7.4360    3.1766   16.0224  H     
26   H        -6.6147    4.9825   14.7357  H     
27   H        -2.7182    3.3399   14.8784  H     
28   H        -3.5538    1.5082   16.1863  H     
29   H        -3.0155    5.3308   13.9490  H     
30   H        -3.7692    9.7123   10.5443  H     
31   H        -1.6109    9.9077   10.4246  H     
32   H        -1.5611    9.4626   12.1410  H     
33   H        -1.2280    7.1059   11.6062  H     
34   H        -1.6489    7.3502    9.8956  H     
35   H         0.5946    8.3821   11.2857  H     
@<TRIPOS>BOND
     1    1    4 1
     2    1    5 1
     3    1   10 2
     4    2    4 am
     5    3    4 2
     6    4    6 2
     7    5    7 2
     8    7    8 1
     9    8    9 2
    10    8   11 1
    11    9   10 1
    12   11   12 1
    13   12   13 2
    14   12   19 1
    15   13   14 1
    16   14   15 1
    17   14   16 2
    18   15   20 1
    19   16   17 1
    20   17   18 1
    21   17   19 2
    22   20   21 1
    23   21   22 1
    24    2   23 1
    25    2   24 1
    26    5   25 1
    27    7   26 1
    28    9   27 1
    29   10   28 1
    30   11   29 1
    31   15   30 1
    32   20   31 1
    33   20   32 1
    34   21   33 1
    35   21   34 1
    36   22   35 1
@<TRIPOS>PROPERTY_DATA
  Total_Score	| 5.3281
  Crash		| -1.3782
  Polar		| 3.4415
  FragIndex	| 1
  FragRMSD	| 0.851

