@<TRIPOS>MOLECULE
BindingDB_50167325
 54 55 0 0 0
SMALL
NO_CHARGES


@<TRIPOS>ATOM
1    N        -4.0643    8.4049   11.4642  N     
2    C        -5.1576    7.6848   11.7956  C     
3    C        -2.8022    8.1478   11.8909  C     
4    S        -6.2079    1.0299   17.0044  S     
5    N        -4.9568    6.6259   12.6256  N     
6    N        -2.6708    7.0859   12.7220  N     
7    C        -3.7220    6.2881   13.0923  C     
8    C        -5.4024    2.2015   15.9902  C     
9    N        -3.3802    5.2670   13.9197  N     
10   N        -6.3874    8.0326   11.2819  N     
11   N        -1.7290    8.8993   11.4669  N     
12   O        -6.3863   -0.2964   16.1444  O     
13   O        -5.3555    0.6958   18.3114  O     
14   N        -7.7312    1.5459   17.4454  N     
15   C        -4.0000    2.3115   16.0167  C     
16   C        -6.1469    3.0854   15.1782  C     
17   C        -4.1077    4.2708   14.5152  C     
18   C        -5.5040    4.0813   14.4203  C     
19   C        -3.3656    3.3597   15.3036  C     
20   C        -0.3775    8.5842   11.8991  C     
21   C        -7.5335    7.1959   11.5471  C     
22   C        -6.5164    9.1729   10.3553  C     
23   C        -1.9025    9.9591   10.4853  C     
24   C        -6.3771   10.5465   11.0450  C     
25   C        -7.9587    7.1108   13.0398  C     
26   C        -0.0152    9.3351   13.1949  C     
27   C        -1.7786    9.4059    9.0433  C     
28   H        -2.4241    5.2340   14.1449  H     
29   H        -8.3031    0.9495   17.9565  H     
30   H        -8.0323    2.4365   17.2177  H     
31   H        -3.4289    1.6768   16.5859  H     
32   H        -7.1730    3.0061   15.1355  H     
33   H        -6.0728    4.6857   13.8135  H     
34   H        -2.3427    3.4614   15.4076  H     
35   H        -0.2238    7.5154   12.0801  H     
36   H         0.3275    8.8494   11.1066  H     
37   H        -8.4322    7.5195   10.9870  H     
38   H        -7.2959    6.1884   11.1720  H     
39   H        -5.7681    9.0760    9.5582  H     
40   H        -7.4848    9.1794    9.8465  H     
41   H        -2.8736   10.4649   10.5956  H     
42   H        -1.1456   10.7416   10.6131  H     
43   H        -7.0355   10.5956   11.9156  H     
44   H        -6.6499   11.3362   10.3453  H     
45   H        -5.3456   10.7246   11.3769  H     
46   H        -7.1618    6.5863   13.6177  H     
47   H        -8.9027    6.5419   13.1152  H     
48   H        -8.1279    8.1314   13.4105  H     
49   H        -0.0204   10.4139   13.0285  H     
50   H         0.9948    9.0348   13.5056  H     
51   H        -0.7190    9.0883   13.9973  H     
52   H        -0.7640    9.0249    8.8782  H     
53   H        -1.9764   10.2031    8.3225  H     
54   H        -2.4956    8.5917    8.8789  H     
@<TRIPOS>BOND
     1    1    2 2
     2    1    3 1
     3    2    5 1
     4    2   10 1
     5    3    6 2
     6    3   11 1
     7    4    8 1
     8    4   12 2
     9    4   13 2
    10    4   14 am
    11    5    7 2
    12    6    7 1
    13    7    9 1
    14    8   15 1
    15    8   16 2
    16    9   17 1
    17   10   21 1
    18   10   22 1
    19   11   20 1
    20   11   23 1
    21   15   19 2
    22   16   18 1
    23   17   18 2
    24   17   19 1
    25   20   26 1
    26   21   25 1
    27   22   24 1
    28   23   27 1
    29    9   28 1
    30   14   29 1
    31   14   30 1
    32   15   31 1
    33   16   32 1
    34   18   33 1
    35   19   34 1
    36   20   35 1
    37   20   36 1
    38   21   37 1
    39   21   38 1
    40   22   39 1
    41   22   40 1
    42   23   41 1
    43   23   42 1
    44   24   43 1
    45   24   44 1
    46   24   45 1
    47   25   46 1
    48   25   47 1
    49   25   48 1
    50   26   49 1
    51   26   50 1
    52   26   51 1
    53   27   52 1
    54   27   53 1
    55   27   54 1
@<TRIPOS>PROPERTY_DATA
  Total_Score	| 4.3129
  Crash		| -3.7727
  Polar		| 3.1528
  FragIndex	| 1
  FragRMSD	| 1.398

