@<TRIPOS>MOLECULE
BindingDB_50167335
 48 49 0 0 0
SMALL
NO_CHARGES


@<TRIPOS>ATOM
1    S        -6.0978    0.6979   17.3056  S     
2    C        -4.0604    5.8496   13.0896  C     
3    N        -5.4002    6.0914   12.9394  N     
4    N        -3.2001    6.6710   12.4661  N     
5    N        -4.9628    7.9299   11.5681  N     
6    C        -3.6039    7.7192   11.7097  C     
7    C        -5.8550    7.1307   12.1832  C     
8    C        -5.3674    1.8718   16.2537  C     
9    N        -3.5813    4.8152   13.8259  N     
10   O        -6.1274   -0.7230   16.5982  O     
11   O        -5.2173    0.5715   18.6235  O     
12   N        -7.6384    1.1276   17.8057  N     
13   N        -7.1825    7.2223   12.0422  N     
14   N        -2.7837    8.5592   11.0639  N     
15   C        -3.9746    2.0644   16.2303  C     
16   C        -6.1795    2.6261   15.3942  C     
17   C        -4.2143    3.8489   14.5528  C     
18   C        -5.6091    3.5865   14.5435  C     
19   C        -3.4053    3.0445   15.3957  C     
20   C        -7.8774    8.1108   11.1853  C     
21   C        -1.3521    8.5039   11.0536  C     
22   C        -7.7758    7.8731    9.6422  C     
23   C        -0.6872    8.8378   12.4258  C     
24   C        -6.7948    6.7684    9.2017  C     
25   C         0.2058    7.7060   12.9856  C     
26   H        -2.5967    4.7802   13.8589  H     
27   H        -7.8672    1.0317   18.7424  H     
28   H        -8.1644    1.7266   17.2534  H     
29   H        -7.7383    6.6072   12.5687  H     
30   H        -3.1931    9.2662   10.5325  H     
31   H        -3.3652    1.5036   16.8299  H     
32   H        -7.1914    2.4829   15.3655  H     
33   H        -6.2451    4.0708   13.9146  H     
34   H        -2.3915    3.1812   15.4188  H     
35   H        -8.9292    8.0140   11.4693  H     
36   H        -7.5568    9.1317   11.4169  H     
37   H        -1.0402    7.5228   10.6858  H     
38   H        -1.0150    9.2309   10.3154  H     
39   H        -8.7765    7.6191    9.2619  H     
40   H        -7.4733    8.8043    9.1556  H     
41   H        -0.0617    9.7317   12.3129  H     
42   H        -1.4447    9.0853   13.1709  H     
43   H        -5.7577    7.0972    9.3538  H     
44   H        -6.9278    6.5613    8.1298  H     
45   H        -6.9599    5.8525    9.7632  H     
46   H        -0.3607    6.7781   13.0727  H     
47   H         0.5711    7.9845   13.9785  H     
48   H         1.0644    7.5361   12.3330  H     
@<TRIPOS>BOND
     1    1    8 1
     2    1   10 2
     3    1   11 2
     4    1   12 am
     5    2    3 2
     6    2    4 1
     7    2    9 1
     8    3    7 1
     9    4    6 2
    10    5    6 1
    11    5    7 2
    12    6   14 1
    13    7   13 1
    14    8   15 1
    15    8   16 2
    16    9   17 1
    17   13   20 1
    18   14   21 1
    19   15   19 2
    20   16   18 1
    21   17   18 2
    22   17   19 1
    23   20   22 1
    24   21   23 1
    25   22   24 1
    26   23   25 1
    27    9   26 1
    28   12   27 1
    29   12   28 1
    30   13   29 1
    31   14   30 1
    32   15   31 1
    33   16   32 1
    34   18   33 1
    35   19   34 1
    36   20   35 1
    37   20   36 1
    38   21   37 1
    39   21   38 1
    40   22   39 1
    41   22   40 1
    42   23   41 1
    43   23   42 1
    44   24   43 1
    45   24   44 1
    46   24   45 1
    47   25   46 1
    48   25   47 1
    49   25   48 1
@<TRIPOS>PROPERTY_DATA
  Total_Score	| 4.7672
  Crash		| -3.0027
  Polar		| 2.7609
  FragIndex	| 1
  FragRMSD	| 1.136

