@<TRIPOS>MOLECULE
BindingDB_50349851
 41 42 0 0 0
SMALL
NO_CHARGES


@<TRIPOS>ATOM
1    O        -5.1413    0.4933   18.4495  O     
2    S        -6.0316    0.6963   17.1482  S     
3    O        -5.8687   -0.6641   16.3446  O     
4    C        -4.5765    4.1446   14.5225  C     
5    C        -5.9566    3.9216   14.7305  C     
6    C        -6.4001    2.8706   15.5482  C     
7    C        -5.4756    2.0115   16.1695  C     
8    C        -4.0992    2.2128   15.9606  C     
9    C        -3.6559    3.2773   15.1536  C     
10   N        -7.6426    0.7605   17.6198  N     
11   N        -4.0248    5.1463   13.7716  N     
12   N        -5.4647    8.2498   11.5667  N     
13   C        -6.3568    7.3879   12.1233  C     
14   N        -5.9202    6.3337   12.8523  N     
15   C        -4.5896    6.1312   13.0404  C     
16   N        -3.7124    6.9959   12.4719  N     
17   C        -4.1338    8.0521   11.7357  C     
18   N        -3.2754    8.9354   11.1909  N     
19   C        -1.8432    8.9198   11.2920  C     
20   C        -1.2643    9.1666   12.7227  C     
21   C        -0.8690    7.9058   13.5615  C     
22   C        -1.5314    7.8215   14.9634  C     
23   O        -1.1028    8.8929   15.7986  O     
24   Cl       -8.0141    7.6430   11.9477  Cl    
25   H        -6.6629    4.5154   14.3024  H     
26   H        -7.4037    2.7375   15.6833  H     
27   H        -3.4098    1.5951   16.3900  H     
28   H        -2.6489    3.4150   15.0293  H     
29   H        -8.3355    0.4808   16.9998  H     
30   H        -7.8774    1.1278   18.4853  H     
31   H        -3.0517    5.1648   13.7785  H     
32   H        -3.6705    9.6465   10.6563  H     
33   H        -1.4505    7.9906   10.8698  H     
34   H        -1.4925    9.7281   10.6414  H     
35   H        -0.3619    9.7745   12.6048  H     
36   H        -1.9778    9.7760   13.2806  H     
37   H        -1.1111    6.9983   13.0096  H     
38   H         0.2163    7.8960   13.7120  H     
39   H        -2.6177    7.8594   14.8698  H     
40   H        -1.2652    6.8803   15.4481  H     
41   H        -1.5968    8.7800   16.6396  H     
@<TRIPOS>BOND
     1    1    2 2
     2    2    3 2
     3    2    7 1
     4    2   10 am
     5    4    5 2
     6    4    9 1
     7    4   11 1
     8    5    6 1
     9    6    7 2
    10    7    8 1
    11    8    9 2
    12   11   15 1
    13   12   13 2
    14   12   17 1
    15   13   14 1
    16   13   24 1
    17   14   15 2
    18   15   16 1
    19   16   17 2
    20   17   18 1
    21   18   19 1
    22   19   20 1
    23   20   21 1
    24   21   22 1
    25   22   23 1
    26    5   25 1
    27    6   26 1
    28    8   27 1
    29    9   28 1
    30   10   29 1
    31   10   30 1
    32   11   31 1
    33   18   32 1
    34   19   33 1
    35   19   34 1
    36   20   35 1
    37   20   36 1
    38   21   37 1
    39   21   38 1
    40   22   39 1
    41   22   40 1
    42   23   41 1
@<TRIPOS>PROPERTY_DATA
  Total_Score	| 5.9176
  Crash		| -1.7203
  Polar		| 3.1357
  FragIndex	| 1
  FragRMSD	| 1.026

