@<TRIPOS>MOLECULE
BindingDB_50349846
 37 38 0 0 0
SMALL
NO_CHARGES


@<TRIPOS>ATOM
1    C        -5.4796    2.1246   16.1470  C     
2    N        -7.7439    0.9632   17.4167  N     
3    O        -5.8883   -0.5004   16.2667  O     
4    S        -6.0960    0.8228   17.1168  S     
5    C        -6.3591    3.0868   15.6262  C     
6    O        -5.2887    0.7052   18.4756  O     
7    C        -5.8795    4.1435   14.8378  C     
8    C        -4.5017    4.2598   14.5384  C     
9    C        -3.6191    3.2975   15.0846  C     
10   C        -4.0971    2.2395   15.8767  C     
11   N        -3.9447    5.2481   13.7753  N     
12   C        -4.5156    6.2316   13.0395  C     
13   N        -3.6683    7.1244   12.4664  N     
14   C        -4.1192    8.1900   11.7513  C     
15   N        -3.2890    9.1083   11.1994  N     
16   N        -5.4598    8.3502   11.5938  N     
17   C        -6.3286    7.4583   12.1352  C     
18   Cl       -7.9944    7.6496   11.9514  Cl    
19   N        -5.8490    6.4095   12.8418  N     
20   C        -1.8539    9.1682   11.2211  C     
21   C        -1.1614    8.3958   12.2750  C     
22   C        -1.2354    7.6525   14.6490  C     
23   O        -1.6606    8.4415   13.5356  O     
24   O        -0.1503    7.5545   11.9404  O     
25   H        -8.2413    0.2134   17.7714  H     
26   H        -8.1887    1.8221   17.3162  H     
27   H        -7.3619    3.0375   15.8058  H     
28   H        -6.5608    4.8235   14.5062  H     
29   H        -2.6114    3.3613   14.9040  H     
30   H        -3.4387    1.5538   16.2539  H     
31   H        -2.9767    5.2666   13.7716  H     
32   H        -3.7230    9.8057   10.6825  H     
33   H        -1.5003    8.8465   10.2367  H     
34   H        -1.5749   10.2205   11.3410  H     
35   H        -1.3550    6.5928   14.4209  H     
36   H        -1.8610    7.8896   15.5088  H     
37   H        -0.1912    7.8582   14.8911  H     
@<TRIPOS>BOND
     1    1    4 1
     2    1    5 2
     3    1   10 1
     4    2    4 am
     5    3    4 2
     6    4    6 2
     7    5    7 1
     8    7    8 2
     9    8    9 1
    10    8   11 1
    11    9   10 2
    12   11   12 1
    13   12   13 2
    14   12   19 1
    15   13   14 1
    16   14   15 1
    17   14   16 2
    18   15   20 1
    19   16   17 1
    20   17   18 1
    21   17   19 2
    22   20   21 1
    23   21   23 1
    24   21   24 2
    25   22   23 1
    26    2   25 1
    27    2   26 1
    28    5   27 1
    29    7   28 1
    30    9   29 1
    31   10   30 1
    32   11   31 1
    33   15   32 1
    34   20   33 1
    35   20   34 1
    36   22   35 1
    37   22   36 1
    38   22   37 1
@<TRIPOS>PROPERTY_DATA
  Total_Score	| 5.6418
  Crash		| -1.6497
  Polar		| 3.2683
  FragIndex	| 1
  FragRMSD	| 0.985

