@<TRIPOS>MOLECULE
BindingDB_50167362
 48 49 0 0 0
SMALL
NO_CHARGES


@<TRIPOS>ATOM
1    S        -6.1948    0.9051   17.0161  S     
2    C        -3.5945    6.2375   13.3752  C     
3    C        -2.6819    7.9559   12.0278  C     
4    C        -5.0098    7.5296   11.9928  C     
5    N        -3.9247    8.2221   11.5618  N     
6    N        -2.5363    6.9581   12.9289  N     
7    N        -4.8380    6.5320   12.9040  N     
8    C        -5.3945    2.1572   16.1205  C     
9    N        -3.2745    5.2337   14.2192  N     
10   N        -1.5711    8.5985   11.6075  N     
11   N        -6.2405    7.7899   11.4958  N     
12   O        -6.0319   -0.4021   16.1333  O     
13   O        -5.4402    0.5855   18.3785  O     
14   N        -7.8502    1.1039   17.2001  N     
15   C        -3.9874    2.1473   16.0378  C     
16   C        -6.1264    3.2008   15.5123  C     
17   C        -4.0349    4.2580   14.7887  C     
18   C        -5.4495    4.2460   14.8566  C     
19   C        -3.3172    3.1919   15.3790  C     
20   C        -1.5066    9.6202   10.6053  C     
21   C        -6.5159    8.6780   10.4078  C     
22   C        -0.5554   10.7475   11.0872  C     
23   C        -7.8613    8.2499    9.7706  C     
24   C        -1.0348    8.9947    9.2666  C     
25   C        -6.4997   10.1564   10.8780  C     
26   H        -2.3219    5.1565   14.3951  H     
27   H        -0.7262    8.2949   11.9755  H     
28   H        -6.9907    7.2989   11.8682  H     
29   H        -8.4467    0.4636   16.7754  H     
30   H        -8.1879    1.9846   17.4255  H     
31   H        -3.4417    1.3939   16.4681  H     
32   H        -7.1494    3.2335   15.5697  H     
33   H        -5.9957    5.0173   14.4702  H     
34   H        -2.2915    3.1659   15.3364  H     
35   H        -2.4927   10.0697   10.4386  H     
36   H        -5.7556    8.5599    9.6294  H     
37   H        -0.9119   11.1601   12.0374  H     
38   H        -0.5230   11.5544   10.3522  H     
39   H         0.4603   10.3633   11.2286  H     
40   H        -7.7782    7.2462    9.3468  H     
41   H        -8.1382    8.9315    8.9660  H     
42   H        -8.6554    8.2372   10.5180  H     
43   H        -0.0387    8.5518    9.3677  H     
44   H        -1.0022    9.7614    8.4865  H     
45   H        -1.7299    8.2104    8.9525  H     
46   H        -7.1779   10.3074   11.7195  H     
47   H        -6.7862   10.8167   10.0589  H     
48   H        -5.4996   10.4471   11.2047  H     
@<TRIPOS>BOND
     1    1    8 1
     2    1   12 2
     3    1   13 2
     4    1   14 am
     5    2    6 2
     6    2    7 1
     7    2    9 1
     8    3    5 2
     9    3    6 1
    10    3   10 1
    11    4    5 1
    12    4    7 2
    13    4   11 1
    14    8   15 1
    15    8   16 2
    16    9   17 1
    17   10   20 1
    18   11   21 1
    19   15   19 2
    20   16   18 1
    21   17   18 2
    22   17   19 1
    23   20   22 1
    24   20   24 1
    25   21   23 1
    26   21   25 1
    27    9   26 1
    28   10   27 1
    29   11   28 1
    30   14   29 1
    31   14   30 1
    32   15   31 1
    33   16   32 1
    34   18   33 1
    35   19   34 1
    36   20   35 1
    37   21   36 1
    38   22   37 1
    39   22   38 1
    40   22   39 1
    41   23   40 1
    42   23   41 1
    43   23   42 1
    44   24   43 1
    45   24   44 1
    46   24   45 1
    47   25   46 1
    48   25   47 1
    49   25   48 1
@<TRIPOS>PROPERTY_DATA
  Total_Score	| 4.1915
  Crash		| -1.8849
  Polar		| 2.8571
  FragIndex	| 1
  FragRMSD	| 1.382

