@<TRIPOS>MOLECULE
BindingDB_50167345
 54 55 0 0 0
SMALL
NO_CHARGES


@<TRIPOS>ATOM
1    S        -6.2065    0.8978   17.1428  S     
2    C        -4.2106    6.0455   12.9433  C     
3    N        -5.4989    6.1904   12.5179  N     
4    N        -3.2396    6.7564   12.3343  N     
5    N        -4.7694    7.6488   10.8214  N     
6    C        -3.4963    7.5535   11.2765  C     
7    C        -5.7815    7.0002   11.4617  C     
8    C        -5.5536    2.2547   16.2660  C     
9    N        -3.7547    5.2265   13.9132  N     
10   O        -5.9920   -0.4183   16.2791  O     
11   O        -5.3017    0.6923   18.4299  O     
12   N        -7.8146    1.0013   17.6246  N     
13   N        -7.0560    7.2865   11.1310  N     
14   N        -2.5421    8.3232   10.7053  N     
15   C        -4.1592    2.3472   16.0997  C     
16   C        -6.3766    3.2187   15.6487  C     
17   C        -4.4205    4.3331   14.6925  C     
18   C        -5.8207    4.2654   14.8884  C     
19   C        -3.6015    3.3758   15.3248  C     
20   C        -7.4696    8.1778   10.0834  C     
21   C        -1.2179    8.5261   11.2029  C     
22   C        -6.6081    9.4570    9.8359  C     
23   C        -1.1789    9.0643   12.6700  C     
24   C        -6.2044   10.2741   11.0842  C     
25   C        -0.6591    8.0286   13.7053  C     
26   C        -5.7770   11.7245   10.7354  C     
27   C        -1.2442    8.2389   15.1361  C     
28   H        -2.7842    5.2288   14.0260  H     
29   H        -8.0376    0.6844   18.5218  H     
30   H        -8.3888    1.6433   17.1782  H     
31   H        -7.7607    6.8940   11.6768  H     
32   H        -2.8084    8.8497    9.9413  H     
33   H        -3.5371    1.6598   16.5266  H     
34   H        -7.3909    3.1770   15.7632  H     
35   H        -6.4335    4.9634   14.4685  H     
36   H        -2.5803    3.4102   15.2112  H     
37   H        -7.5638    7.6109    9.1483  H     
38   H        -8.4799    8.5061   10.3398  H     
39   H        -0.6401    7.6041   11.0776  H     
40   H        -0.7293    9.2593   10.5476  H     
41   H        -5.6829    9.1644    9.3295  H     
42   H        -7.1688   10.1023    9.1633  H     
43   H        -0.5406    9.9492   12.7224  H     
44   H        -2.1834    9.3749   12.9531  H     
45   H        -7.0346   10.3128   11.7851  H     
46   H        -5.3781    9.7733   11.5824  H     
47   H        -0.9053    6.9974   13.4052  H     
48   H         0.4367    8.0974   13.7551  H     
49   H        -4.9141   11.6937   10.0681  H     
50   H        -5.5015   12.2684   11.6450  H     
51   H        -6.5969   12.2595   10.2505  H     
52   H        -1.0146    9.2393   15.5150  H     
53   H        -0.8233    7.5055   15.8204  H     
54   H        -2.3271    8.1149   15.0979  H     
@<TRIPOS>BOND
     1    1    8 1
     2    1   10 2
     3    1   11 2
     4    1   12 am
     5    2    3 2
     6    2    4 1
     7    2    9 1
     8    3    7 1
     9    4    6 2
    10    5    6 1
    11    5    7 2
    12    6   14 1
    13    7   13 1
    14    8   15 1
    15    8   16 2
    16    9   17 1
    17   13   20 1
    18   14   21 1
    19   15   19 2
    20   16   18 1
    21   17   18 2
    22   17   19 1
    23   20   22 1
    24   21   23 1
    25   22   24 1
    26   23   25 1
    27   24   26 1
    28   25   27 1
    29    9   28 1
    30   12   29 1
    31   12   30 1
    32   13   31 1
    33   14   32 1
    34   15   33 1
    35   16   34 1
    36   18   35 1
    37   19   36 1
    38   20   37 1
    39   20   38 1
    40   21   39 1
    41   21   40 1
    42   22   41 1
    43   22   42 1
    44   23   43 1
    45   23   44 1
    46   24   45 1
    47   24   46 1
    48   25   47 1
    49   25   48 1
    50   26   49 1
    51   26   50 1
    52   26   51 1
    53   27   52 1
    54   27   53 1
    55   27   54 1
@<TRIPOS>PROPERTY_DATA
  Total_Score	| 5.5371
  Crash		| -2.7830
  Polar		| 3.4816
  FragIndex	| 1
  FragRMSD	| 1.206

