@<TRIPOS>MOLECULE
BindingDB_50349848
 36 37 0 0 0
SMALL
NO_CHARGES


@<TRIPOS>ATOM
1    O        -4.7863    0.0800   18.0965  O     
2    S        -5.9374    0.8282   17.2945  S     
3    O        -6.6429   -0.3437   16.4988  O     
4    C        -4.5344    4.2095   14.5503  C     
5    C        -5.9109    3.9650   14.7656  C     
6    C        -6.3364    2.9075   15.5871  C     
7    C        -5.3934    2.0693   16.2083  C     
8    C        -4.0223    2.2728   15.9723  C     
9    C        -3.6007    3.3382   15.1559  C     
10   N        -7.0666    1.3172   18.4347  N     
11   N        -3.9943    5.2358   13.8239  N     
12   N        -5.5111    8.3041   11.6137  N     
13   C        -6.3722    7.4038   12.1492  C     
14   N        -5.8965    6.3634   12.8722  N     
15   C        -4.5603    6.2113   13.0861  C     
16   N        -3.7167    7.1202   12.5329  N     
17   C        -4.1753    8.1639   11.7896  C     
18   N        -3.3607    9.0767   11.2154  N     
19   C        -1.9323    9.0827   11.2633  C     
20   C        -1.4024    8.0343   10.3713  C     
21   C        -1.3869   10.4750   10.8718  C     
22   O        -2.0844    7.6634    9.2661  O     
23   O        -0.1911    7.4715   10.6051  O     
24   Cl       -8.0339    7.5770   11.9423  Cl    
25   H        -6.6331    4.5490   14.3580  H     
26   H        -7.3346    2.7621   15.7582  H     
27   H        -3.3199    1.6746   16.4169  H     
28   H        -2.5960    3.4800   15.0284  H     
29   H        -8.0079    1.1544   18.2755  H     
30   H        -6.7700    1.7708   19.2457  H     
31   H        -3.0259    5.2780   13.8558  H     
32   H        -3.7934    9.7999   10.7265  H     
33   H        -1.5935    8.8935   12.2905  H     
34   H        -1.7178   10.7636    9.8702  H     
35   H        -0.2951   10.4783   10.8938  H     
36   H        -1.7426   11.2272   11.5810  H     
@<TRIPOS>BOND
     1    1    2 2
     2    2    3 2
     3    2    7 1
     4    2   10 am
     5    4    5 2
     6    4    9 1
     7    4   11 1
     8    5    6 1
     9    6    7 2
    10    7    8 1
    11    8    9 2
    12   11   15 1
    13   12   13 2
    14   12   17 1
    15   13   14 1
    16   13   24 1
    17   14   15 2
    18   15   16 1
    19   16   17 2
    20   17   18 1
    21   18   19 1
    22   19   20 1
    23   19   21 1
    24   20   22 1
    25   20   23 2
    26    5   25 1
    27    6   26 1
    28    8   27 1
    29    9   28 1
    30   10   29 1
    31   10   30 1
    32   11   31 1
    33   18   32 1
    34   19   33 1
    35   21   34 1
    36   21   35 1
    37   21   36 1
@<TRIPOS>PROPERTY_DATA
  Total_Score	| 5.0179
  Crash		| -1.9940
  Polar		| 3.7751
  FragIndex	| 1
  FragRMSD	| 0.850

