@<TRIPOS>MOLECULE
BindingDB_50349849
 37 38 0 0 0
SMALL
NO_CHARGES


@<TRIPOS>ATOM
1    O        -5.1080    0.5107   18.3633  O     
2    S        -5.9853    0.7414   17.0582  S     
3    O        -5.7756   -0.5849   16.2120  O     
4    C        -4.5393    4.3367   14.5873  C     
5    C        -3.6427    3.3219   15.0079  C     
6    C        -4.0829    2.2192   15.7703  C     
7    C        -5.4392    2.1117   16.1395  C     
8    C        -6.3435    3.1159   15.7424  C     
9    C        -5.8987    4.2191   14.9878  C     
10   N        -7.5983    0.7101   17.5219  N     
11   N        -3.9838    5.3610   13.8709  N     
12   N        -5.5528    8.3770   11.6017  N     
13   C        -6.3852    7.4366   12.1160  C     
14   N        -5.8857    6.4213   12.8533  N     
15   C        -4.5552    6.3267   13.1113  C     
16   N        -3.7295    7.2585   12.5697  N     
17   C        -4.2167    8.2858   11.8172  C     
18   N        -3.4501    9.2537   11.2727  N     
19   C        -2.0222    9.3615   11.3433  C     
20   C        -1.3895    8.3706   10.4432  C     
21   C        -1.5735   10.8039   10.9632  C     
22   O        -2.0481   11.7523   11.9205  O     
23   O        -0.2488    7.7336   10.8226  O     
24   O        -1.7436    8.3092    9.1355  O     
25   Cl       -8.0490    7.5549   11.8692  Cl    
26   H        -2.6511    3.3829   14.7522  H     
27   H        -3.4000    1.5072   16.0511  H     
28   H        -7.3322    3.0585   16.0145  H     
29   H        -6.5852    4.9345   14.7807  H     
30   H        -8.2787    0.4664   16.8651  H     
31   H        -7.8599    1.0989   18.3801  H     
32   H        -3.0202    5.3950   13.8955  H     
33   H        -3.9160    9.9613   10.7966  H     
34   H        -1.6889    9.1725   12.3732  H     
35   H        -0.4814   10.8644   10.9512  H     
36   H        -1.9502   11.0757    9.9752  H     
37   H        -3.0248   11.7190   11.8551  H     
@<TRIPOS>BOND
     1    1    2 2
     2    2    3 2
     3    2    7 1
     4    2   10 am
     5    4    5 2
     6    4    9 1
     7    4   11 1
     8    5    6 1
     9    6    7 2
    10    7    8 1
    11    8    9 2
    12   11   15 1
    13   12   13 2
    14   12   17 1
    15   13   14 1
    16   13   25 1
    17   14   15 2
    18   15   16 1
    19   16   17 2
    20   17   18 1
    21   18   19 1
    22   19   20 1
    23   19   21 1
    24   20   23 1
    25   20   24 2
    26   21   22 1
    27    5   26 1
    28    6   27 1
    29    8   28 1
    30    9   29 1
    31   10   30 1
    32   10   31 1
    33   11   32 1
    34   18   33 1
    35   19   34 1
    36   21   35 1
    37   21   36 1
    38   22   37 1
@<TRIPOS>PROPERTY_DATA
  Total_Score	| 4.7233
  Crash		| -1.2516
  Polar		| 3.1116
  FragIndex	| 1
  FragRMSD	| 0.882

