@<TRIPOS>MOLECULE
BindingDB_26443
 46 47 0 0 0
SMALL
NO_CHARGES


@<TRIPOS>ATOM
1    C       -24.2939    4.0854   19.3385  C     
2    C       -24.9312    5.3759   19.6751  C     
3    O       -25.7653    5.9917   18.8044  O     
4    O       -24.6351    5.9945   20.8406  O     
5    C       -25.3317    2.9531   19.0787  C     
6    C       -26.1204    2.5377   20.3560  C     
7    C       -27.0331    1.3836   20.1639  C     
8    O       -27.7865    0.9723   21.2081  O     
9    O       -27.1137    0.6938   19.0003  O     
10   N       -23.4690    4.2562   18.1836  N     
11   S       -21.8725    4.7883   18.2784  S     
12   O       -21.8118    6.1526   19.0903  O     
13   O       -21.4336    5.1826   16.8022  O     
14   C       -20.7876    3.5926   18.9483  C     
15   C       -19.1394    1.7951   18.6713  C     
16   C       -18.3297    0.9841   17.8668  C     
17   C       -17.5818    0.0095   18.4193  C     
18   C       -17.5311   -0.1769   19.7788  C     
19   C       -18.3269    0.5476   20.5951  C     
20   C       -19.1461    1.5620   20.0776  C     
21   C       -19.9732    2.3575   20.9033  C     
22   C       -20.7811    3.3662   20.3416  C     
23   C       -19.9581    2.8067   18.1185  C     
24   C       -15.3466   -0.6245   20.4463  C     
25   O       -16.7081   -1.1025   20.2914  O     
26   C       -14.4013   -1.8002   20.8022  C     
27   C       -14.4794   -2.2524   22.2849  C     
28   H       -23.6668    3.7631   20.1787  H     
29   H       -26.0393    3.2640   18.3013  H     
30   H       -24.7930    2.0699   18.7137  H     
31   H       -25.4115    2.2753   21.1484  H     
32   H       -26.7262    3.3926   20.7009  H     
33   H       -23.8977    4.2799   17.3095  H     
34   H       -18.3091    1.1146   16.8785  H     
35   H       -17.0293   -0.5660   17.8295  H     
36   H       -18.3049    0.3878   21.5764  H     
37   H       -20.0003    2.2129   21.9163  H     
38   H       -21.3725    3.9293   20.9634  H     
39   H       -19.9589    2.9637   17.1052  H     
40   H       -14.9710   -0.1918   19.5007  H     
41   H       -15.2819    0.1439   21.2278  H     
42   H       -14.6232   -2.6606   20.1548  H     
43   H       -13.3634   -1.4916   20.5979  H     
44   H       -14.1587   -1.4372   22.9485  H     
45   H       -13.8130   -3.1080   22.4286  H     
46   H       -15.5051   -2.5480   22.5433  H     
@<TRIPOS>BOND
     1    1    2 1
     2    1    5 1
     3    1   10 1
     4    2    3 2
     5    2    4 1
     6    5    6 1
     7    6    7 1
     8    7    8 2
     9    7    9 1
    10   10   11 1
    11   11   12 2
    12   11   13 2
    13   11   14 1
    14   14   22 2
    15   14   23 1
    16   15   16 1
    17   15   20 1
    18   15   23 2
    19   16   17 2
    20   17   18 1
    21   18   19 2
    22   18   25 1
    23   19   20 1
    24   20   21 2
    25   21   22 1
    26   24   25 1
    27   24   26 1
    28   26   27 1
    29    1   28 1
    30    5   29 1
    31    5   30 1
    32    6   31 1
    33    6   32 1
    34   10   33 1
    35   16   34 1
    36   17   35 1
    37   19   36 1
    38   21   37 1
    39   22   38 1
    40   23   39 1
    41   24   40 1
    42   24   41 1
    43   26   42 1
    44   26   43 1
    45   27   44 1
    46   27   45 1
    47   27   46 1
@<TRIPOS>PROPERTY_DATA
  Total_Score	| 8.6588
  Crash		| -0.6709
  Polar		| 5.7483
  FragIndex	| 1
  FragRMSD	| 0.894

