@<TRIPOS>MOLECULE
BindingDB_26442
 40 41 0 0 0
SMALL
NO_CHARGES


@<TRIPOS>ATOM
1    C       -24.3410    4.0911   19.3893  C     
2    C       -24.9787    5.3891   19.6862  C     
3    O       -25.7882    5.9902   18.7869  O     
4    O       -24.6659    6.0612   20.8167  O     
5    C       -25.3617    2.9493   19.1241  C     
6    C       -26.1780    2.5294   20.3788  C     
7    C       -27.1255    1.4201   20.1613  C     
8    O       -27.1663    0.6974   19.0191  O     
9    O       -27.9340    1.0476   21.1756  O     
10   N       -23.4744    4.2282   18.2620  N     
11   S       -21.8369    4.6113   18.3999  S     
12   O       -21.7281    5.9109   19.3136  O     
13   O       -21.3473    5.1012   16.9693  O     
14   C       -20.8588    3.3139   19.0459  C     
15   C       -19.1992    1.5214   18.7778  C     
16   C       -18.2519    0.8155   18.0289  C     
17   C       -17.5511   -0.1860   18.5958  C     
18   C       -17.7400   -0.5803   19.8974  C     
19   C       -18.6798    0.0581   20.6375  C     
20   C       -19.4123    1.1305   20.1274  C     
21   C       -20.3226    1.8435   20.9279  C     
22   C       -21.0150    2.9385   20.3960  C     
23   C       -19.9435    2.6015   18.2399  C     
24   O       -16.9486   -1.6146   20.2955  O     
25   C       -16.7276   -1.9047   21.6844  C     
26   H       -23.7629    3.7976   20.2638  H     
27   H       -26.0498    3.2508   18.3290  H     
28   H       -24.8088    2.0721   18.7733  H     
29   H       -25.4892    2.2205   21.1685  H     
30   H       -26.7475    3.3886   20.7409  H     
31   H       -23.8776    4.2945   17.3820  H     
32   H       -18.0714    1.0613   17.0801  H     
33   H       -16.8718   -0.6466   18.0384  H     
34   H       -18.8665   -0.2160   21.5663  H     
35   H       -20.4867    1.5854   21.9041  H     
36   H       -21.6368    3.4603   21.0140  H     
37   H       -19.8067    2.8712   17.2590  H     
38   H       -16.4571   -1.0072   22.2376  H     
39   H       -15.9060   -2.6215   21.7833  H     
40   H       -17.6153   -2.3647   22.1114  H     
@<TRIPOS>BOND
     1    1    2 1
     2    1    5 1
     3    1   10 1
     4    2    3 2
     5    2    4 1
     6    5    6 1
     7    6    7 1
     8    7    8 2
     9    7    9 1
    10   10   11 1
    11   11   12 2
    12   11   13 2
    13   11   14 1
    14   14   22 2
    15   14   23 1
    16   15   16 1
    17   15   20 1
    18   15   23 2
    19   16   17 2
    20   17   18 1
    21   18   19 2
    22   18   24 1
    23   19   20 1
    24   20   21 2
    25   21   22 1
    26   24   25 1
    27    1   26 1
    28    5   27 1
    29    5   28 1
    30    6   29 1
    31    6   30 1
    32   10   31 1
    33   16   32 1
    34   17   33 1
    35   19   34 1
    36   21   35 1
    37   22   36 1
    38   23   37 1
    39   25   38 1
    40   25   39 1
    41   25   40 1
@<TRIPOS>PROPERTY_DATA
  Total_Score	| 7.3385
  Crash		| -0.6016
  Polar		| 5.6994
  FragIndex	| 1
  FragRMSD	| 0.203

