@<TRIPOS>MOLECULE
BindingDB_26444
 49 50 0 0 0
SMALL
NO_CHARGES


@<TRIPOS>ATOM
1    C       -24.3471    4.1285   19.3522  C     
2    C       -24.9705    5.4185   19.7134  C     
3    O       -25.8926    5.9926   18.9055  O     
4    O       -24.5470    6.0959   20.8034  O     
5    C       -25.4045    3.0216   19.0824  C     
6    C       -26.1263    2.5251   20.3685  C     
7    C       -27.0752    1.4114   20.1627  C     
8    O       -27.0730    0.6532   19.0412  O     
9    O       -27.9629    1.1090   21.1378  O     
10   N       -23.5133    4.3195   18.2043  N     
11   S       -21.8920    4.7512   18.3524  S     
12   O       -21.7687    6.1032   19.1908  O     
13   O       -21.3651    5.1498   16.9053  O     
14   C       -20.9466    3.4647   19.0220  C     
15   C       -19.2715    1.7013   18.7750  C     
16   C       -18.3595    0.9442   18.0218  C     
17   C       -17.6505   -0.0560   18.5926  C     
18   C       -17.7708   -0.3434   19.9339  C     
19   C       -18.6842    0.3123   20.6890  C     
20   C       -19.4549    1.3506   20.1488  C     
21   C       -20.3878    2.0530   20.9321  C     
22   C       -21.1285    3.0990   20.3707  C     
23   C       -20.0203    2.7634   18.2246  C     
24   C       -15.6458   -1.3741   20.1033  C     
25   O       -17.0286   -1.2955   20.5227  O     
26   C       -14.7581   -1.7222   21.3261  C     
27   C       -13.3897   -2.3596   20.9590  C     
28   C       -12.3908   -1.3819   20.3008  C     
29   H       -23.7288    3.7879   20.1849  H     
30   H       -26.1577    3.3924   18.3769  H     
31   H       -24.8979    2.1702   18.6206  H     
32   H       -25.3864    2.1943   21.1049  H     
33   H       -26.6868    3.3579   20.8052  H     
34   H       -23.9419    4.3861   17.3326  H     
35   H       -18.2333    1.1300   17.0475  H     
36   H       -17.0150   -0.5823   18.0352  H     
37   H       -18.7779    0.0800   21.6572  H     
38   H       -20.5322    1.8020   21.9117  H     
39   H       -21.7941    3.6002   20.9608  H     
40   H       -19.8879    3.0190   17.2476  H     
41   H       -15.5573   -2.1763   19.3523  H     
42   H       -15.2919   -0.4253   19.6560  H     
43   H       -14.6005   -0.8217   21.9222  H     
44   H       -15.3048   -2.4474   21.9481  H     
45   H       -12.9297   -2.7379   21.8742  H     
46   H       -13.5388   -3.2107   20.2908  H     
47   H       -12.7788   -0.9918   19.3585  H     
48   H       -11.4473   -1.8966   20.0876  H     
49   H       -12.1765   -0.5371   20.9643  H     
@<TRIPOS>BOND
     1    1    2 1
     2    1    5 1
     3    1   10 1
     4    2    3 2
     5    2    4 1
     6    5    6 1
     7    6    7 1
     8    7    8 2
     9    7    9 1
    10   10   11 1
    11   11   12 2
    12   11   13 2
    13   11   14 1
    14   14   22 2
    15   14   23 1
    16   15   16 1
    17   15   20 1
    18   15   23 2
    19   16   17 2
    20   17   18 1
    21   18   19 2
    22   18   25 1
    23   19   20 1
    24   20   21 2
    25   21   22 1
    26   24   25 1
    27   24   26 1
    28   26   27 1
    29   27   28 1
    30    1   29 1
    31    5   30 1
    32    5   31 1
    33    6   32 1
    34    6   33 1
    35   10   34 1
    36   16   35 1
    37   17   36 1
    38   19   37 1
    39   21   38 1
    40   22   39 1
    41   23   40 1
    42   24   41 1
    43   24   42 1
    44   26   43 1
    45   26   44 1
    46   27   45 1
    47   27   46 1
    48   28   47 1
    49   28   48 1
    50   28   49 1
@<TRIPOS>PROPERTY_DATA
  Total_Score	| 9.0543
  Crash		| -0.8459
  Polar		| 5.7557
  FragIndex	| 1
  FragRMSD	| 0.498

