@<TRIPOS>MOLECULE
BindingDB_26464
 49 50 0 0 0
SMALL
NO_CHARGES


@<TRIPOS>ATOM
1    C       -24.3093    4.0500   19.3256  C     
2    C       -24.9163    5.3611   19.6278  C     
3    O       -25.7758    5.9455   18.7628  O     
4    O       -24.6397    5.9921   20.7922  O     
5    C       -25.3674    2.9436   19.0636  C     
6    C       -26.1495    2.5279   20.3403  C     
7    C       -27.0265    1.3578   20.1650  C     
8    O       -27.0300    0.6063   19.0375  O     
9    O       -27.8651    1.0114   21.1622  O     
10   N       -23.4519    4.1826   18.1892  N     
11   C       -20.8502    3.2796   19.0000  C     
12   C       -19.2189    1.4617   18.7743  C     
13   C       -18.2930    0.7133   18.0348  C     
14   C       -17.5986   -0.2999   18.6046  C     
15   C       -17.8360   -0.6413   19.9170  C     
16   C       -18.6979    0.0574   20.6900  C     
17   C       -19.3850    1.1477   20.1559  C     
18   C       -20.2433    1.9355   20.9523  C     
19   C       -20.9669    2.9901   20.3775  C     
20   C       -19.9618    2.5232   18.2081  C     
21   S       -21.8133    4.5629   18.3144  S     
22   O       -21.6670    5.9040   19.1569  O     
23   O       -21.3058    4.9535   16.8583  O     
24   O       -16.5519   -0.7904   17.9059  O     
25   C       -16.2711   -2.2029   17.8794  C     
26   C       -14.7570   -2.4576   18.0477  C     
27   C       -14.1996   -2.1509   19.4637  C     
28   C       -13.2549   -0.9292   19.5102  C     
29   H       -23.7206    3.7321   20.1881  H     
30   H       -26.0730    3.2811   18.2973  H     
31   H       -24.8518    2.0591   18.6766  H     
32   H       -25.4363    2.2935   21.1351  H     
33   H       -26.7698    3.3642   20.6748  H     
34   H       -23.8620    4.2183   17.3082  H     
35   H       -18.0952    0.9684   17.0950  H     
36   H       -17.3985   -1.4426   20.3091  H     
37   H       -18.8478   -0.2303   21.6292  H     
38   H       -20.3468    1.7488   21.9518  H     
39   H       -21.5898    3.5417   20.9735  H     
40   H       -19.8569    2.7357   17.2154  H     
41   H       -16.8150   -2.7585   18.6415  H     
42   H       -16.5867   -2.5890   16.9099  H     
43   H       -14.5739   -3.5112   17.8309  H     
44   H       -14.2166   -1.8636   17.3102  H     
45   H       -15.0254   -1.9832   20.1593  H     
46   H       -13.6449   -3.0215   19.8203  H     
47   H       -12.4559   -1.0339   18.7712  H     
48   H       -12.7990   -0.8590   20.4973  H     
49   H       -13.8003   -0.0043   19.3140  H     
@<TRIPOS>BOND
     1    1    2 1
     2    1    5 1
     3    1   10 1
     4    2    3 2
     5    2    4 1
     6    5    6 1
     7    6    7 1
     8    7    8 2
     9    7    9 1
    10   10   21 1
    11   11   19 2
    12   11   20 1
    13   11   21 1
    14   12   13 1
    15   12   17 1
    16   12   20 2
    17   13   14 2
    18   14   15 1
    19   14   24 1
    20   15   16 2
    21   16   17 1
    22   17   18 2
    23   18   19 1
    24   21   22 2
    25   21   23 2
    26   24   25 1
    27   25   26 1
    28   26   27 1
    29   27   28 1
    30    1   29 1
    31    5   30 1
    32    5   31 1
    33    6   32 1
    34    6   33 1
    35   10   34 1
    36   13   35 1
    37   15   36 1
    38   16   37 1
    39   18   38 1
    40   19   39 1
    41   20   40 1
    42   25   41 1
    43   25   42 1
    44   26   43 1
    45   26   44 1
    46   27   45 1
    47   27   46 1
    48   28   47 1
    49   28   48 1
    50   28   49 1
@<TRIPOS>PROPERTY_DATA
  Total_Score	| 9.5657
  Crash		| -1.3501
  Polar		| 6.3555
  FragIndex	| 1
  FragRMSD	| 0.193

