@<TRIPOS>MOLECULE
BindingDB_26449
 48 49 0 0 0
SMALL
NO_CHARGES


@<TRIPOS>ATOM
1    C       -24.4078    4.1603   19.4129  C     
2    C       -25.0040    5.4440   19.8404  C     
3    O       -24.3945    6.1975   20.7819  O     
4    O       -26.0820    5.9599   19.2054  O     
5    C       -25.4659    3.0618   19.1050  C     
6    C       -26.1815    2.5317   20.3767  C     
7    C       -27.1245    1.4238   20.1518  C     
8    O       -28.0029    1.1054   21.1221  O     
9    O       -27.0947    0.6471   19.0443  O     
10   N       -23.5971    4.3879   18.2593  N     
11   S       -21.9551    4.7585   18.3471  S     
12   O       -21.7698    6.0965   19.1850  O     
13   O       -21.4965    5.1371   16.8715  O     
14   C       -20.9830    3.4604   18.9835  C     
15   C       -19.3118    1.6821   18.7185  C     
16   C       -18.3825    0.9600   17.9547  C     
17   C       -17.6877   -0.0574   18.5062  C     
18   C       -17.8418   -0.3909   19.8354  C     
19   C       -18.7382    0.2617   20.6054  C     
20   C       -19.4876    1.3196   20.0857  C     
21   C       -20.4105    2.0284   20.8817  C     
22   C       -21.1394    3.0972   20.3374  C     
23   C       -20.0736    2.7417   18.1759  C     
24   C       -15.7500   -1.4668   20.1899  C     
25   O       -17.1766   -1.4172   20.3891  O     
26   C       -15.0619   -1.8212   21.5290  C     
27   C       -13.6200   -2.3801   21.3883  C     
28   C       -12.5451   -1.3887   21.1852  C     
29   O       -12.7831   -0.1268   20.7566  O     
30   O       -11.2684   -1.7509   21.4556  O     
31   H       -23.7848    3.7814   20.2270  H     
32   H       -26.2085    3.4487   18.3994  H     
33   H       -24.9574    2.2196   18.6233  H     
34   H       -25.4279    2.1815   21.0844  H     
35   H       -26.7330    3.3485   20.8462  H     
36   H       -24.0482    4.5450   17.4135  H     
37   H       -18.2312    1.1873   17.0014  H     
38   H       -17.0393   -0.5625   17.9484  H     
39   H       -18.8585   -0.0139   21.5546  H     
40   H       -20.5566    1.7794   21.8686  H     
41   H       -21.7838    3.6084   20.9431  H     
42   H       -19.9557    2.9939   17.1927  H     
43   H       -15.5423   -2.2335   19.4400  H     
44   H       -15.3399   -0.5150   19.8290  H     
45   H       -15.0552   -0.9380   22.1747  H     
46   H       -15.6670   -2.5844   22.0339  H     
47   H       -13.3894   -2.9387   22.2998  H     
48   H       -13.6009   -3.0854   20.5510  H     
@<TRIPOS>BOND
     1    1    2 1
     2    1    5 1
     3    1   10 1
     4    2    3 2
     5    2    4 1
     6    5    6 1
     7    6    7 1
     8    7    8 2
     9    7    9 1
    10   10   11 1
    11   11   12 2
    12   11   13 2
    13   11   14 1
    14   14   22 2
    15   14   23 1
    16   15   16 1
    17   15   20 1
    18   15   23 2
    19   16   17 2
    20   17   18 1
    21   18   19 2
    22   18   25 1
    23   19   20 1
    24   20   21 2
    25   21   22 1
    26   24   25 1
    27   24   26 1
    28   26   27 1
    29   27   28 1
    30   28   29 2
    31   28   30 1
    32    1   31 1
    33    5   32 1
    34    5   33 1
    35    6   34 1
    36    6   35 1
    37   10   36 1
    38   16   37 1
    39   17   38 1
    40   19   39 1
    41   21   40 1
    42   22   41 1
    43   23   42 1
    44   24   43 1
    45   24   44 1
    46   26   45 1
    47   26   46 1
    48   27   47 1
    49   27   48 1
@<TRIPOS>PROPERTY_DATA
  Total_Score	| 9.9963
  Crash		| -0.7036
  Polar		| 7.2335
  FragIndex	| 1
  FragRMSD	| 0.991

