@<TRIPOS>MOLECULE
BindingDB_26459
 57 58 0 0 0
SMALL
NO_CHARGES


@<TRIPOS>ATOM
1    C       -24.3978    4.2734   19.1225  C     
2    C       -25.0661    5.4634   19.6816  C     
3    O       -24.8797    5.7867   20.9831  O     
4    C       -25.4098    3.2776   18.4878  C     
5    C       -26.1805    2.3958   19.5278  C     
6    C       -26.0837    0.9572   19.2128  C     
7    O       -27.2022    0.2255   18.9945  O     
8    N       -23.4236    4.6754   18.1564  N     
9    S       -21.8239    5.0145   18.5644  S     
10   O       -21.8362    6.1942   19.6305  O     
11   O       -21.1446    5.6222   17.2584  O     
12   C       -20.9156    3.6349   19.1344  C     
13   C       -19.2997    1.8169   18.7735  C     
14   C       -18.3752    1.1212   17.9803  C     
15   C       -17.7327    0.0370   18.4654  C     
16   C       -17.9541   -0.4150   19.7417  C     
17   C       -18.8722    0.1864   20.5285  C     
18   C       -19.5541    1.3328   20.0899  C     
19   C       -20.4675    2.0200   20.9167  C     
20   C       -21.1299    3.1657   20.4445  C     
21   C       -19.9925    2.9594   18.3025  C     
22   C       -16.1497   -1.3375   20.9872  C     
23   O       -17.3299   -1.5286   20.1724  O     
24   C       -14.8411   -1.4305   20.1585  C     
25   C       -13.5749   -1.0379   20.9717  C     
26   C       -12.2481   -1.5169   20.3317  C     
27   O       -25.8309    6.2419   18.8733  O     
28   C       -26.5355    7.4218   19.2639  C     
29   O       -24.8456    0.4168   19.0666  O     
30   C       -24.5418   -0.9277   18.6798  C     
31   H       -23.8867    3.7465   19.9294  H     
32   H       -26.1342    3.8156   17.8688  H     
33   H       -24.8432    2.6382   17.8037  H     
34   H       -25.7811    2.5266   20.5370  H     
35   H       -27.2334    2.6924   19.5573  H     
36   H       -23.7305    4.9252   17.2688  H     
37   H       -18.1887    1.4186   17.0499  H     
38   H       -17.0962   -0.4513   17.8793  H     
39   H       -19.0684   -0.1914   21.4304  H     
40   H       -20.6591    1.6948   21.8651  H     
41   H       -21.7732    3.6544   21.0660  H     
42   H       -19.8173    3.2956   17.3504  H     
43   H       -16.1756   -0.4015   21.5570  H     
44   H       -16.1414   -2.1584   21.7065  H     
45   H       -14.7361   -2.4587   19.7978  H     
46   H       -14.9102   -0.7731   19.2877  H     
47   H       -13.5412    0.0530   21.0624  H     
48   H       -13.6348   -1.4578   21.9815  H     
49   H       -12.1692   -2.6054   20.3869  H     
50   H       -11.4012   -1.0811   20.8701  H     
51   H       -12.1912   -1.2077   19.2843  H     
52   H       -27.2761    7.1793   20.0298  H     
53   H       -27.0459    7.8353   18.3915  H     
54   H       -25.8391    8.1674   19.6539  H     
55   H       -24.8967   -1.6293   19.4379  H     
56   H       -23.4593   -1.0314   18.5792  H     
57   H       -25.0095   -1.1573   17.7180  H     
@<TRIPOS>BOND
     1    1    2 1
     2    1    4 1
     3    1    8 1
     4    2    3 2
     5    2   27 1
     6    4    5 1
     7    5    6 1
     8    6    7 2
     9    6   29 1
    10    8    9 1
    11    9   10 2
    12    9   11 2
    13    9   12 1
    14   12   20 2
    15   12   21 1
    16   13   14 1
    17   13   18 1
    18   13   21 2
    19   14   15 2
    20   15   16 1
    21   16   17 2
    22   16   23 1
    23   17   18 1
    24   18   19 2
    25   19   20 1
    26   22   23 1
    27   22   24 1
    28   24   25 1
    29   25   26 1
    30   27   28 1
    31   29   30 1
    32    1   31 1
    33    4   32 1
    34    4   33 1
    35    5   34 1
    36    5   35 1
    37    8   36 1
    38   14   37 1
    39   15   38 1
    40   17   39 1
    41   19   40 1
    42   20   41 1
    43   21   42 1
    44   22   43 1
    45   22   44 1
    46   24   45 1
    47   24   46 1
    48   25   47 1
    49   25   48 1
    50   26   49 1
    51   26   50 1
    52   26   51 1
    53   28   52 1
    54   28   53 1
    55   28   54 1
    56   30   55 1
    57   30   56 1
    58   30   57 1
@<TRIPOS>PROPERTY_DATA
  Total_Score	| 6.3073
  Crash		| -1.1620
  Polar		| 2.2917
  FragIndex	| 1
  FragRMSD	| 1.104

