@<TRIPOS>MOLECULE
BindingDB_26450
 50 52 0 0 0
SMALL
NO_CHARGES


@<TRIPOS>ATOM
1    C       -24.3280    4.0858   19.3011  C     
2    C       -24.9330    5.3736   19.7116  C     
3    O       -24.5622    5.9658   20.8667  O     
4    O       -25.8476    5.9873   18.9287  O     
5    C       -25.3954    2.9896   19.0190  C     
6    C       -26.1355    2.5217   20.3096  C     
7    C       -27.0499    1.3794   20.1480  C     
8    O       -27.0703    0.6041   19.0322  O     
9    O       -27.8638    1.0627   21.1801  O     
10   N       -23.5275    4.2720   18.1329  N     
11   S       -21.8982    4.6854   18.2125  S     
12   O       -21.7401    6.1237   18.8739  O     
13   O       -21.4289    4.9067   16.7069  O     
14   C       -20.8920    3.4723   18.9570  C     
15   C       -19.1857    1.7114   18.7945  C     
16   C       -18.3116    0.9102   18.0491  C     
17   C       -17.5083    0.0210   18.6717  C     
18   C       -17.4929   -0.1016   20.0473  C     
19   C       -18.3425    0.6334   20.8000  C     
20   C       -19.2138    1.5530   20.2108  C     
21   C       -20.1037    2.3407   20.9764  C     
22   C       -20.9308    3.2949   20.3563  C     
23   C       -20.0259    2.6703   18.1823  C     
24   O       -16.6926   -0.9460   20.7388  O     
25   C       -15.5810   -1.6490   20.1539  C     
26   C       -14.5205   -0.7517   19.4830  C     
27   C       -13.6325   -0.2250   20.6306  C     
28   C       -13.7724   -1.2485   21.7769  C     
29   C       -14.7756   -2.3140   21.2965  C     
30   H       -23.6901    3.7145   20.1122  H     
31   H       -26.1392    3.3595   18.3028  H     
32   H       -24.8994    2.1177   18.5775  H     
33   H       -25.3919    2.2501   21.0741  H     
34   H       -26.7323    3.3636   20.6997  H     
35   H       -23.9889    4.3784   17.2789  H     
36   H       -18.2845    0.9678   17.0589  H     
37   H       -16.9193   -0.5697   18.1318  H     
38   H       -18.3405    0.5336   21.7896  H     
39   H       -20.1420    2.2367   21.9939  H     
40   H       -21.5549    3.8655   20.9348  H     
41   H       -20.0016    2.7923   17.1635  H     
42   H       -15.9501   -2.4065   19.4633  H     
43   H       -13.9138   -1.3540   18.7945  H     
44   H       -14.9771    0.0665   18.9172  H     
45   H       -12.5925   -0.1303   20.3004  H     
46   H       -13.9874    0.7572   20.9503  H     
47   H       -12.8066   -1.7049   22.0121  H     
48   H       -14.1531   -0.7521   22.6709  H     
49   H       -15.4243   -2.6487   22.1131  H     
50   H       -14.2379   -3.1789   20.9014  H     
@<TRIPOS>BOND
     1    1    2 1
     2    1    5 1
     3    1   10 1
     4    2    3 2
     5    2    4 1
     6    5    6 1
     7    6    7 1
     8    7    8 2
     9    7    9 1
    10   10   11 1
    11   11   12 2
    12   11   13 2
    13   11   14 1
    14   14   22 2
    15   14   23 1
    16   15   16 1
    17   15   20 1
    18   15   23 2
    19   16   17 2
    20   17   18 1
    21   18   19 2
    22   18   24 1
    23   19   20 1
    24   20   21 2
    25   21   22 1
    26   24   25 1
    27   25   26 1
    28   25   29 1
    29   26   27 1
    30   27   28 1
    31   28   29 1
    32    1   30 1
    33    5   31 1
    34    5   32 1
    35    6   33 1
    36    6   34 1
    37   10   35 1
    38   16   36 1
    39   17   37 1
    40   19   38 1
    41   21   39 1
    42   22   40 1
    43   23   41 1
    44   25   42 1
    45   26   43 1
    46   26   44 1
    47   27   45 1
    48   27   46 1
    49   28   47 1
    50   28   48 1
    51   29   49 1
    52   29   50 1
@<TRIPOS>PROPERTY_DATA
  Total_Score	| 9.1684
  Crash		| -0.9546
  Polar		| 5.7952
  FragIndex	| 1
  FragRMSD	| 0.875

