@<TRIPOS>MOLECULE
BindingDB_26452
 56 58 0 0 0
SMALL
NO_CHARGES


@<TRIPOS>ATOM
1    C       -24.3802    4.1134   19.3125  C     
2    C       -25.0066    5.4016   19.6738  C     
3    O       -24.5894    6.0805   20.7659  O     
4    O       -25.8937    6.0043   18.8511  O     
5    C       -25.4071    2.9725   19.0636  C     
6    C       -26.1586    2.5236   20.3473  C     
7    C       -27.1103    1.4169   20.1529  C     
8    O       -27.0921    0.6195   19.0623  O     
9    O       -27.9457    1.0929   21.1623  O     
10   N       -23.5592    4.2969   18.1561  N     
11   S       -21.9071    4.6382   18.2253  S     
12   O       -21.7052    6.0500   18.9289  O     
13   O       -21.4591    4.8812   16.7195  O     
14   C       -20.9320    3.3897   18.9621  C     
15   C       -19.2704    1.5762   18.8574  C     
16   C       -18.2655    0.8539   18.1952  C     
17   C       -17.5740   -0.1066   18.8452  C     
18   C       -17.8253   -0.4223   20.1616  C     
19   C       -18.8574    0.1851   20.7991  C     
20   C       -19.5510    1.2429   20.2101  C     
21   C       -20.4594    2.0315   20.9453  C     
22   C       -21.1092    3.1146   20.3350  C     
23   C       -19.9856    2.6291   18.2336  C     
24   O       -16.9485   -1.2864   20.7428  O     
25   C       -17.0035   -1.6349   22.1474  C     
26   C       -15.6248   -2.0705   22.6815  C     
27   C       -14.5773   -0.9244   22.7461  C     
28   C       -13.7724   -0.7998   21.5014  C     
29   C       -12.6966   -1.6872   21.2604  C     
30   C       -11.9176   -1.5705   20.0950  C     
31   C       -12.2177   -0.5728   19.1523  C     
32   C       -13.2932    0.3071   19.3710  C     
33   C       -14.0678    0.1915   20.5393  C     
34   H       -23.7681    3.7951   20.1472  H     
35   H       -26.1330    3.2839   18.3056  H     
36   H       -24.8675    2.1065   18.6701  H     
37   H       -25.4300    2.2021   21.0954  H     
38   H       -26.7108    3.3738   20.7559  H     
39   H       -24.0021    4.3728   17.2944  H     
40   H       -18.0313    1.0684   17.2501  H     
41   H       -16.8566   -0.5938   18.3554  H     
42   H       -19.1145   -0.0881   21.7173  H     
43   H       -20.6292    1.8469   21.9355  H     
44   H       -21.7139    3.6991   20.9153  H     
45   H       -19.8047    2.8470   17.2497  H     
46   H       -17.3304   -0.7945   22.7699  H     
47   H       -17.7194   -2.4517   22.2711  H     
48   H       -15.7717   -2.4504   23.6949  H     
49   H       -15.2508   -2.8969   22.0782  H     
50   H       -15.0588    0.0291   22.9923  H     
51   H       -13.8972   -1.1157   23.5813  H     
52   H       -12.4733   -2.4205   21.9348  H     
53   H       -11.1335   -2.2065   19.9367  H     
54   H       -11.6492   -0.4897   18.3069  H     
55   H       -13.5119    1.0326   18.6847  H     
56   H       -14.8530    0.8278   20.6805  H     
@<TRIPOS>BOND
     1    1    2 1
     2    1    5 1
     3    1   10 1
     4    2    3 2
     5    2    4 1
     6    5    6 1
     7    6    7 1
     8    7    8 2
     9    7    9 1
    10   10   11 1
    11   11   12 2
    12   11   13 2
    13   11   14 1
    14   14   22 2
    15   14   23 1
    16   15   16 1
    17   15   20 1
    18   15   23 2
    19   16   17 2
    20   17   18 1
    21   18   19 2
    22   18   24 1
    23   19   20 1
    24   20   21 2
    25   21   22 1
    26   24   25 1
    27   25   26 1
    28   26   27 1
    29   27   28 1
    30   28   29 1
    31   28   33 2
    32   29   30 2
    33   30   31 1
    34   31   32 2
    35   32   33 1
    36    1   34 1
    37    5   35 1
    38    5   36 1
    39    6   37 1
    40    6   38 1
    41   10   39 1
    42   16   40 1
    43   17   41 1
    44   19   42 1
    45   21   43 1
    46   22   44 1
    47   23   45 1
    48   25   46 1
    49   25   47 1
    50   26   48 1
    51   26   49 1
    52   27   50 1
    53   27   51 1
    54   29   52 1
    55   30   53 1
    56   31   54 1
    57   32   55 1
    58   33   56 1
@<TRIPOS>PROPERTY_DATA
  Total_Score	| 10.4700
  Crash		| -2.0794
  Polar		| 5.7463
  FragIndex	| 1
  FragRMSD	| 0.902

