@<TRIPOS>MOLECULE
BindingDB_26463
 52 53 0 0 0
SMALL
NO_CHARGES


@<TRIPOS>ATOM
1    C       -24.3603    4.1425   19.3121  C     
2    C       -24.9743    5.4107   19.7683  C     
3    O       -24.4958    6.0529   20.8551  O     
4    O       -25.9611    6.0058   19.0615  O     
5    C       -25.4201    3.0353   19.0316  C     
6    C       -26.1432    2.5439   20.3222  C     
7    C       -27.0949    1.4299   20.1283  C     
8    O       -27.9636    1.1253   21.1186  O     
9    O       -27.0678    0.6229   19.0412  O     
10   N       -23.4429    4.3945   18.2149  N     
11   C       -20.9158    3.4451   19.2725  C     
12   C       -19.3028    1.6054   19.0542  C     
13   C       -18.3794    0.8444   18.3256  C     
14   C       -17.7199   -0.1772   18.9054  C     
15   C       -17.9354   -0.5158   20.2164  C     
16   C       -18.8386    0.1647   20.9577  C     
17   C       -19.5155    1.2629   20.4229  C     
18   C       -20.4127    2.0226   21.1990  C     
19   C       -21.0977    3.1094   20.6308  C     
20   C       -20.0243    2.6833   18.4871  C     
21   C       -16.0855   -1.5797   21.2892  C     
22   O       -17.4136   -1.6456   20.7085  O     
23   C       -14.9598   -1.5039   20.2218  C     
24   C       -13.6222   -2.2095   20.6049  C     
25   C       -12.3485   -1.4361   20.1952  C     
26   S       -21.8292    4.7712   18.5921  S     
27   O       -21.8321    5.9970   19.6066  O     
28   O       -21.0606    5.3863   17.3382  O     
29   C       -23.8965    4.7354   16.8904  C     
30   H       -23.7768    3.7510   20.1512  H     
31   H       -26.1824    3.3965   18.3382  H     
32   H       -24.9176    2.1768   18.5734  H     
33   H       -25.3997    2.2000   21.0524  H     
34   H       -26.6978    3.3760   20.7679  H     
35   H       -18.2028    1.0620   17.3691  H     
36   H       -17.0733   -0.7049   18.3619  H     
37   H       -19.0402   -0.1441   21.8793  H     
38   H       -20.5710    1.8006   22.1857  H     
39   H       -21.7296    3.6526   21.2222  H     
40   H       -19.8951    2.9153   17.5007  H     
41   H       -15.9855   -0.7479   22.0030  H     
42   H       -15.9708   -2.4980   21.8659  H     
43   H       -15.3381   -1.9653   19.3073  H     
44   H       -14.8023   -0.4468   19.9846  H     
45   H       -13.5724   -2.3792   21.6813  H     
46   H       -13.5899   -3.1887   20.1234  H     
47   H       -12.3397   -1.2447   19.1178  H     
48   H       -11.4601   -2.0272   20.4457  H     
49   H       -12.2947   -0.4857   20.7317  H     
50   H       -24.9139    4.3962   16.6945  H     
51   H       -23.2499    4.2787   16.1370  H     
52   H       -23.8768    5.8252   16.7622  H     
@<TRIPOS>BOND
     1    1    2 1
     2    1    5 1
     3    1   10 1
     4    2    3 2
     5    2    4 1
     6    5    6 1
     7    6    7 1
     8    7    8 2
     9    7    9 1
    10   10   26 1
    11   10   29 1
    12   11   19 2
    13   11   20 1
    14   11   26 1
    15   12   13 1
    16   12   17 1
    17   12   20 2
    18   13   14 2
    19   14   15 1
    20   15   16 2
    21   15   22 1
    22   16   17 1
    23   17   18 2
    24   18   19 1
    25   21   22 1
    26   21   23 1
    27   23   24 1
    28   24   25 1
    29   26   27 2
    30   26   28 2
    31    1   30 1
    32    5   31 1
    33    5   32 1
    34    6   33 1
    35    6   34 1
    36   13   35 1
    37   14   36 1
    38   16   37 1
    39   18   38 1
    40   19   39 1
    41   20   40 1
    42   21   41 1
    43   21   42 1
    44   23   43 1
    45   23   44 1
    46   24   45 1
    47   24   46 1
    48   25   47 1
    49   25   48 1
    50   25   49 1
    51   29   50 1
    52   29   51 1
    53   29   52 1
@<TRIPOS>PROPERTY_DATA
  Total_Score	| 9.2642
  Crash		| -0.6215
  Polar		| 5.7969
  FragIndex	| 1
  FragRMSD	| 1.031

