@<TRIPOS>MOLECULE
BindingDB_26445
 52 53 0 0 0
SMALL
NO_CHARGES


@<TRIPOS>ATOM
1    C       -24.3947    4.2378   19.4380  C     
2    C       -24.9261    5.5650   19.8335  C     
3    O       -24.3615    6.2405   20.8649  O     
4    O       -25.9109    6.1604   19.1174  O     
5    C       -25.5282    3.1976   19.1326  C     
6    C       -25.5429    1.9996   20.1234  C     
7    C       -26.8193    1.2759   20.1457  C     
8    O       -27.2105    0.5474   19.0806  O     
9    O       -27.5991    1.2846   21.2479  O     
10   N       -23.5016    4.4137   18.3349  N     
11   S       -21.8650    4.7648   18.5540  S     
12   O       -21.7409    5.9885   19.5632  O     
13   O       -21.3156    5.3146   17.1654  O     
14   C       -20.9407    3.3878   19.1053  C     
15   C       -19.3005    1.6034   18.7095  C     
16   C       -18.3419    0.9641   17.9088  C     
17   C       -17.5920   -0.0373   18.4185  C     
18   C       -17.7428   -0.4744   19.7168  C     
19   C       -18.7080    0.0654   20.5015  C     
20   C       -19.4841    1.1401   20.0477  C     
21   C       -20.3880    1.8102   20.8946  C     
22   C       -21.0864    2.9380   20.4351  C     
23   C       -20.0442    2.7152   18.2488  C     
24   C       -16.3134   -1.5255   21.4240  C     
25   O       -16.8925   -1.4641   20.0998  O     
26   C       -14.7955   -1.8576   21.3411  C     
27   C       -13.9006   -0.6440   20.9145  C     
28   C       -12.7880   -0.9601   19.8726  C     
29   C       -11.6473   -1.8590   20.4040  C     
30   H       -23.8102    3.8672   20.2837  H     
31   H       -26.5112    3.6907   19.1651  H     
32   H       -25.4038    2.8022   18.1159  H     
33   H       -24.7510    1.3042   19.8480  H     
34   H       -25.3376    2.3624   21.1326  H     
35   H       -23.8790    4.6084   17.4654  H     
36   H       -18.2064    1.2446   16.9686  H     
37   H       -16.9171   -0.4725   17.8291  H     
38   H       -18.8628   -0.3197   21.4078  H     
39   H       -20.5160    1.5062   21.8586  H     
40   H       -21.7016    3.4270   21.0856  H     
41   H       -19.9205    3.0354   17.2803  H     
42   H       -16.4412   -0.5906   21.9846  H     
43   H       -16.8265   -2.3269   21.9631  H     
44   H       -14.4736   -2.1947   22.3302  H     
45   H       -14.6605   -2.7005   20.6500  H     
46   H       -14.5280    0.1459   20.4825  H     
47   H       -13.4308   -0.2177   21.8036  H     
48   H       -13.2358   -1.4292   18.9906  H     
49   H       -12.3408   -0.0091   19.5513  H     
50   H       -11.1344   -1.3741   21.2340  H     
51   H       -10.9231   -2.0372   19.6123  H     
52   H       -12.0368   -2.8165   20.7382  H     
@<TRIPOS>BOND
     1    1    2 1
     2    1    5 1
     3    1   10 1
     4    2    3 2
     5    2    4 1
     6    5    6 1
     7    6    7 1
     8    7    8 2
     9    7    9 1
    10   10   11 1
    11   11   12 2
    12   11   13 2
    13   11   14 1
    14   14   22 2
    15   14   23 1
    16   15   16 1
    17   15   20 1
    18   15   23 2
    19   16   17 2
    20   17   18 1
    21   18   19 2
    22   18   25 1
    23   19   20 1
    24   20   21 2
    25   21   22 1
    26   24   25 1
    27   24   26 1
    28   26   27 1
    29   27   28 1
    30   28   29 1
    31    1   30 1
    32    5   31 1
    33    5   32 1
    34    6   33 1
    35    6   34 1
    36   10   35 1
    37   16   36 1
    38   17   37 1
    39   19   38 1
    40   21   39 1
    41   22   40 1
    42   23   41 1
    43   24   42 1
    44   24   43 1
    45   26   44 1
    46   26   45 1
    47   27   46 1
    48   27   47 1
    49   28   48 1
    50   28   49 1
    51   29   50 1
    52   29   51 1
    53   29   52 1
@<TRIPOS>PROPERTY_DATA
  Total_Score	| 9.8460
  Crash		| -0.8920
  Polar		| 5.8616
  FragIndex	| 1
  FragRMSD	| 0.771

