@<TRIPOS>MOLECULE
BindingDB_26466
 49 50 0 0 0
SMALL
NO_CHARGES


@<TRIPOS>ATOM
1    C       -20.6248    2.7679   16.7193  C     
2    C       -20.1807    2.1795   19.0413  C     
3    C       -20.2821    2.3491   20.4436  C     
4    C       -19.7448    1.4541   21.3074  C     
5    C       -19.0848    0.3474   20.8559  C     
6    C       -18.9414    0.1190   19.5301  C     
7    C       -19.4902    1.0045   18.5798  C     
8    C       -19.3644    0.7384   17.1944  C     
9    C       -19.9590    1.6184   16.2774  C     
10   C       -20.7473    3.0768   18.0864  C     
11   O       -21.3750    5.1950   19.8928  O     
12   O       -21.3553    5.6653   17.4647  O     
13   S       -21.6811    4.4984   18.4969  S     
14   N       -23.3370    4.2484   18.3433  N     
15   C       -24.2177    4.1227   19.4623  C     
16   C       -24.8422    5.4355   19.7104  C     
17   O       -25.7741    5.9363   18.8672  O     
18   O       -24.4572    6.1870   20.7662  O     
19   C       -25.2608    3.0089   19.1689  C     
20   C       -26.0841    2.5675   20.4135  C     
21   C       -27.0276    1.4567   20.1753  C     
22   O       -27.0790    0.7630   19.0175  O     
23   O       -27.8939    1.1205   21.1540  O     
24   O       -18.7793   -0.4188   16.7466  O     
25   C       -17.3290   -0.3764   16.7920  C     
26   C       -16.7691   -1.7980   17.1140  C     
27   C       -16.1402   -1.9396   18.5433  C     
28   C       -14.6615   -2.4156   18.5211  C     
29   H       -21.0454    3.3720   16.0197  H     
30   H       -20.7664    3.1235   20.8335  H     
31   H       -19.8326    1.5994   22.2906  H     
32   H       -18.7170   -0.3042   21.5161  H     
33   H       -18.4496   -0.7025   19.2444  H     
34   H       -19.8924    1.4323   15.2758  H     
35   H       -23.7289    4.4186   17.4781  H     
36   H       -23.6551    3.8161   20.3498  H     
37   H       -25.9480    3.3445   18.3832  H     
38   H       -24.7231    2.1304   18.7886  H     
39   H       -25.3929    2.2539   21.2004  H     
40   H       -26.6595    3.4178   20.7863  H     
41   H       -16.9597   -0.0651   15.8009  H     
42   H       -16.9259    0.3171   17.5503  H     
43   H       -17.5681   -2.5435   16.9993  H     
44   H       -16.0257   -2.0493   16.3396  H     
45   H       -16.1675   -0.9799   19.0763  H     
46   H       -16.7208   -2.6729   19.1198  H     
47   H       -14.5617   -3.3344   17.9226  H     
48   H       -14.3233   -2.6253   19.5490  H     
49   H       -14.0168   -1.6312   18.0985  H     
@<TRIPOS>BOND
     1    1    9 2
     2    1   10 1
     3    2    3 1
     4    2    7 1
     5    2   10 2
     6    3    4 2
     7    4    5 1
     8    5    6 2
     9    6    7 1
    10    7    8 2
    11    8    9 1
    12    8   24 1
    13   10   13 1
    14   11   13 2
    15   12   13 2
    16   13   14 1
    17   14   15 1
    18   15   16 1
    19   15   19 1
    20   16   17 2
    21   16   18 1
    22   19   20 1
    23   20   21 1
    24   21   22 2
    25   21   23 1
    26   24   25 1
    27   25   26 1
    28   26   27 1
    29   27   28 1
    30    1   29 1
    31    3   30 1
    32    4   31 1
    33    5   32 1
    34    6   33 1
    35    9   34 1
    36   14   35 1
    37   15   36 1
    38   19   37 1
    39   19   38 1
    40   20   39 1
    41   20   40 1
    42   25   41 1
    43   25   42 1
    44   26   43 1
    45   26   44 1
    46   27   45 1
    47   27   46 1
    48   28   47 1
    49   28   48 1
    50   28   49 1
@<TRIPOS>PROPERTY_DATA
  Total_Score	| 7.6109
  Crash		| -1.4311
  Polar		| 5.7444
  FragIndex	| 1
  FragRMSD	| 1.150

