@<TRIPOS>MOLECULE
BindingDB_26446
 55 56 0 0 0
SMALL
NO_CHARGES


@<TRIPOS>ATOM
1    C       -24.3628    4.1418   19.3572  C     
2    C       -25.0011    5.4371   19.6961  C     
3    O       -25.9710    5.9645   18.9062  O     
4    O       -24.5784    6.1323   20.7769  O     
5    C       -25.4014    3.0201   19.0778  C     
6    C       -26.1407    2.5354   20.3579  C     
7    C       -27.0770    1.4187   20.1450  C     
8    O       -27.1019    0.7011   18.9993  O     
9    O       -27.9384    1.0777   21.1268  O     
10   N       -23.5224    4.3286   18.2110  N     
11   S       -21.9062    4.7928   18.3497  S     
12   O       -21.8133    6.0992   19.2565  O     
13   O       -21.4045    5.2299   16.9025  O     
14   C       -20.9208    3.5061   18.9885  C     
15   C       -19.2429    1.7310   18.7066  C     
16   C       -18.3291    0.9992   17.9391  C     
17   C       -17.6513   -0.0295   18.4869  C     
18   C       -17.7937   -0.3720   19.8212  C     
19   C       -18.7031    0.2761   20.5795  C     
20   C       -19.4525    1.3369   20.0639  C     
21   C       -20.3997    2.0185   20.8600  C     
22   C       -21.1173    3.1018   20.3272  C     
23   C       -19.9813    2.8181   18.1860  C     
24   C       -15.7732   -1.6835   19.9676  C     
25   O       -17.1009   -1.3517   20.4368  O     
26   C       -14.8968   -2.1710   21.1477  C     
27   C       -14.0757   -1.0620   21.8641  C     
28   C       -13.2040   -0.1234   20.9739  C     
29   C       -12.3316   -0.7822   19.8633  C     
30   C       -11.2908   -1.8027   20.3819  C     
31   H       -23.7434    3.8148   20.2027  H     
32   H       -26.1410    3.3688   18.3488  H     
33   H       -24.8725    2.1643   18.6458  H     
34   H       -25.4021    2.2089   21.0948  H     
35   H       -26.7092    3.3605   20.7919  H     
36   H       -23.9468    4.4098   17.3358  H     
37   H       -18.1946    1.2237   16.9792  H     
38   H       -17.0338   -0.5466   17.9051  H     
39   H       -18.8221    0.0048   21.5291  H     
40   H       -20.5657    1.7364   21.8322  H     
41   H       -21.7966    3.5816   20.9250  H     
42   H       -19.8380    3.1133   17.2178  H     
43   H       -15.8575   -2.5013   19.2374  H     
44   H       -15.2750   -0.8302   19.4841  H     
45   H       -15.5394   -2.6433   21.8969  H     
46   H       -14.2055   -2.9444   20.7923  H     
47   H       -14.7645   -0.4380   22.4358  H     
48   H       -13.4118   -1.5520   22.5918  H     
49   H       -13.8794    0.5903   20.4817  H     
50   H       -12.5431    0.4473   21.6336  H     
51   H       -12.9740   -1.2727   19.1262  H     
52   H       -11.7911    0.0135   19.3455  H     
53   H       -10.5983   -1.3250   21.0786  H     
54   H       -10.7220   -2.2020   19.5379  H     
55   H       -11.7939   -2.6323   20.8816  H     
@<TRIPOS>BOND
     1    1    2 1
     2    1    5 1
     3    1   10 1
     4    2    3 2
     5    2    4 1
     6    5    6 1
     7    6    7 1
     8    7    8 2
     9    7    9 1
    10   10   11 1
    11   11   12 2
    12   11   13 2
    13   11   14 1
    14   14   22 2
    15   14   23 1
    16   15   16 1
    17   15   20 1
    18   15   23 2
    19   16   17 2
    20   17   18 1
    21   18   19 2
    22   18   25 1
    23   19   20 1
    24   20   21 2
    25   21   22 1
    26   24   25 1
    27   24   26 1
    28   26   27 1
    29   27   28 1
    30   28   29 1
    31   29   30 1
    32    1   31 1
    33    5   32 1
    34    5   33 1
    35    6   34 1
    36    6   35 1
    37   10   36 1
    38   16   37 1
    39   17   38 1
    40   19   39 1
    41   21   40 1
    42   22   41 1
    43   23   42 1
    44   24   43 1
    45   24   44 1
    46   26   45 1
    47   26   46 1
    48   27   47 1
    49   27   48 1
    50   28   49 1
    51   28   50 1
    52   29   51 1
    53   29   52 1
    54   30   53 1
    55   30   54 1
    56   30   55 1
@<TRIPOS>PROPERTY_DATA
  Total_Score	| 10.6401
  Crash		| -1.1542
  Polar		| 5.7489
  FragIndex	| 1
  FragRMSD	| 0.601

