@<TRIPOS>MOLECULE
BindingDB_26460
 49 50 0 0 0
SMALL
NO_CHARGES


@<TRIPOS>ATOM
1    C       -24.8037    4.4331   18.6785  C     
2    C       -25.4291    5.6259   19.2887  C     
3    O       -26.2402    6.4072   18.5443  O     
4    C       -25.7317    3.1852   18.7240  C     
5    C       -26.0714    2.6419   20.1470  C     
6    C       -27.1124    1.6058   20.1292  C     
7    O       -27.7514    1.3131   21.2851  O     
8    N       -23.5461    4.1506   19.3076  N     
9    S       -22.0455    4.1719   18.5461  S     
10   O       -21.4099    5.6270   18.6718  O     
11   O       -22.2447    3.8746   16.9910  O     
12   C       -20.9520    2.9904   19.1832  C     
13   C       -19.1531    1.3554   18.8483  C     
14   C       -18.2235    0.6899   18.0341  C     
15   C       -17.4658   -0.3007   18.5393  C     
16   C       -17.5452   -0.6704   19.8613  C     
17   C       -18.4602   -0.0900   20.6720  C     
18   C       -19.2675    0.9572   20.2099  C     
19   C       -20.1978    1.6100   21.0482  C     
20   C       -21.0265    2.6262   20.5416  C     
21   C       -19.9898    2.3773   18.3471  C     
22   C       -15.8233   -1.4285   21.3206  C     
23   O       -16.8085   -1.7112   20.2954  O     
24   C       -14.4611   -0.9019   20.7671  C     
25   C       -13.3430   -1.9800   20.7081  C     
26   C       -12.0458   -1.4741   20.0340  C     
27   O       -25.1057    6.0566   20.5223  O     
28   O       -27.0614    0.6129   19.2117  O     
29   H       -24.6360    4.6648   17.6290  H     
30   H       -26.6562    3.4288   18.2077  H     
31   H       -25.2407    2.3789   18.1678  H     
32   H       -25.1737    2.2204   20.6096  H     
33   H       -26.4145    3.4700   20.7834  H     
34   H       -23.5619    4.0089   20.2717  H     
35   H       -18.1394    0.9321   17.0715  H     
36   H       -16.8335   -0.7785   17.9363  H     
37   H       -18.5605   -0.4146   21.6028  H     
38   H       -20.2820    1.3435   22.0381  H     
39   H       -21.6900    3.0784   21.1706  H     
40   H       -19.9137    2.6603   17.3683  H     
41   H       -16.2107   -0.7171   22.0622  H     
42   H       -15.6663   -2.3674   21.8593  H     
43   H       -14.6071   -0.4813   19.7681  H     
44   H       -14.1156   -0.0864   21.4110  H     
45   H       -13.0934   -2.2943   21.7250  H     
46   H       -13.7071   -2.8544   20.1605  H     
47   H       -12.2363   -1.1948   18.9925  H     
48   H       -11.2887   -2.2629   20.0473  H     
49   H       -11.6491   -0.6051   20.5676  H     
@<TRIPOS>BOND
     1    1    2 1
     2    1    4 1
     3    1    8 1
     4    2    3 2
     5    2   27 1
     6    4    5 1
     7    5    6 1
     8    6    7 2
     9    6   28 1
    10    8    9 1
    11    9   10 2
    12    9   11 2
    13    9   12 1
    14   12   20 2
    15   12   21 1
    16   13   14 1
    17   13   18 1
    18   13   21 2
    19   14   15 2
    20   15   16 1
    21   16   17 2
    22   16   23 1
    23   17   18 1
    24   18   19 2
    25   19   20 1
    26   22   23 1
    27   22   24 1
    28   24   25 1
    29   25   26 1
    30    1   29 1
    31    4   30 1
    32    4   31 1
    33    5   32 1
    34    5   33 1
    35    8   34 1
    36   14   35 1
    37   15   36 1
    38   17   37 1
    39   19   38 1
    40   20   39 1
    41   21   40 1
    42   22   41 1
    43   22   42 1
    44   24   43 1
    45   24   44 1
    46   25   45 1
    47   25   46 1
    48   26   47 1
    49   26   48 1
    50   26   49 1
@<TRIPOS>PROPERTY_DATA
  Total_Score	| 8.9232
  Crash		| -0.4609
  Polar		| 5.7723
  FragIndex	| 1
  FragRMSD	| 0.926

