@<TRIPOS>MOLECULE
BindingDB_26465
 49 50 0 0 0
SMALL
NO_CHARGES


@<TRIPOS>ATOM
1    C       -19.8438    2.8477   17.2741  C     
2    C       -19.8298    2.3338   19.6712  C     
3    C       -20.3210    2.4337   20.9833  C     
4    C       -19.8616    1.6280   21.9596  C     
5    C       -18.8650    0.7175   21.7235  C     
6    C       -18.2897    0.5963   20.5067  C     
7    C       -18.8095    1.3504   19.4321  C     
8    C       -18.3979    1.0835   18.1065  C     
9    C       -18.9113    1.8281   17.0440  C     
10   C       -20.3142    3.1182   18.5812  C     
11   O       -21.3819    5.2441   20.0484  O     
12   O       -21.3198    5.5154   17.6003  O     
13   S       -21.5209    4.3912   18.7098  S     
14   N       -23.1106    3.8813   18.4968  N     
15   C       -24.0853    3.8620   19.5377  C     
16   C       -24.7019    5.2015   19.6526  C     
17   O       -25.4102    5.7271   18.6269  O     
18   O       -24.5973    5.9231   20.7902  O     
19   C       -25.1289    2.7458   19.2324  C     
20   C       -26.0928    2.4482   20.4177  C     
21   C       -27.0754    1.3781   20.1650  C     
22   O       -27.0804    0.6332   19.0330  O     
23   O       -28.0136    1.1145   21.1009  O     
24   O       -17.4620   -0.4602   20.2823  O     
25   C       -16.2062   -0.4559   21.0284  C     
26   C       -15.5257   -1.8435   20.7857  C     
27   C       -13.9644   -1.8447   20.6984  C     
28   C       -13.4486   -1.0679   19.4634  C     
29   H       -20.1869    3.3767   16.4671  H     
30   H       -21.0654    3.0532   21.1969  H     
31   H       -20.2811    1.6700   22.8582  H     
32   H       -18.6088    0.0972   22.4636  H     
33   H       -17.7263    0.3434   17.9095  H     
34   H       -18.6166    1.6113   16.0933  H     
35   H       -23.4392    3.8038   17.5801  H     
36   H       -23.5990    3.6084   20.4841  H     
37   H       -25.7175    3.0241   18.3556  H     
38   H       -24.5899    1.8224   18.9957  H     
39   H       -25.5009    2.1595   21.2893  H     
40   H       -26.6479    3.3552   20.6676  H     
41   H       -15.5029    0.3167   20.6682  H     
42   H       -16.3483   -0.3249   22.1249  H     
43   H       -15.8032   -2.5298   21.6266  H     
44   H       -15.9132   -2.3004   19.8449  H     
45   H       -13.5289   -1.4230   21.6296  H     
46   H       -13.6231   -2.8945   20.6119  H     
47   H       -13.9318   -1.4343   18.5504  H     
48   H       -12.3615   -1.1986   19.3816  H     
49   H       -13.6457    0.0112   19.5709  H     
@<TRIPOS>BOND
     1    1    9 2
     2    1   10 1
     3    2    3 1
     4    2    7 1
     5    2   10 2
     6    3    4 2
     7    4    5 1
     8    5    6 2
     9    6    7 1
    10    6   24 1
    11    7    8 2
    12    8    9 1
    13   10   13 1
    14   11   13 2
    15   12   13 2
    16   13   14 1
    17   14   15 1
    18   15   16 1
    19   15   19 1
    20   16   17 2
    21   16   18 1
    22   19   20 1
    23   20   21 1
    24   21   22 2
    25   21   23 1
    26   24   25 1
    27   25   26 1
    28   26   27 1
    29   27   28 1
    30    1   29 1
    31    3   30 1
    32    4   31 1
    33    5   32 1
    34    8   33 1
    35    9   34 1
    36   14   35 1
    37   15   36 1
    38   19   37 1
    39   19   38 1
    40   20   39 1
    41   20   40 1
    42   25   41 1
    43   25   42 1
    44   26   43 1
    45   26   44 1
    46   27   45 1
    47   27   46 1
    48   28   47 1
    49   28   48 1
    50   28   49 1
@<TRIPOS>PROPERTY_DATA
  Total_Score	| 8.6651
  Crash		| -0.8960
  Polar		| 5.6559
  FragIndex	| 1
  FragRMSD	| 1.006

