@<TRIPOS>MOLECULE
BindingDB_50300101
 52 55 0 0 0
SMALL
NO_CHARGES


@<TRIPOS>ATOM
1    N        74.4047   52.4853   43.8946  N     
2    C        74.7864   52.9411   42.6591  C     
3    N        75.9459   52.4571   42.1281  N     
4    C        75.1288   51.6080   44.5989  C     
5    C        76.2906   51.0860   44.0455  C     
6    C        76.6924   51.5364   42.8000  C     
7    N        77.8109   50.8788   42.4466  N     
8    N        78.1194   50.0289   43.3953  N     
9    C        77.2250   50.1231   44.3972  C     
10   O        74.7308   51.2494   45.7006  O     
11   C        73.9007   53.8627   41.8985  C     
12   C        74.5286   54.6811   40.7364  C     
13   C        73.3776   54.7967   39.7158  C     
14   N        72.6678   53.5044   39.8086  N     
15   C        72.7197   53.1039   41.2451  C     
16   C        75.1120   56.0626   41.1508  C     
17   C        71.3191   53.4801   39.1683  C     
18   C        70.7619   52.1016   39.0731  C     
19   C        71.4493   51.1143   38.3271  C     
20   C        70.9395   49.7992   38.2563  C     
21   C        69.7400   49.4627   38.9255  C     
22   C        69.0616   50.4438   39.6663  C     
23   C        69.5568   51.7586   39.7416  C     
24   C        78.5026   51.0431   41.1998  C     
25   C        80.0340   51.2289   41.3730  C     
26   C        78.1492   49.8734   40.2515  C     
27   H        73.5714   52.8051   44.2674  H     
28   H        77.2134   49.5614   45.2562  H     
29   H        73.4810   54.5783   42.6141  H     
30   H        75.3397   54.1155   40.2639  H     
31   H        72.7131   55.6349   39.9649  H     
32   H        73.7550   54.9335   38.6980  H     
33   H        73.2573   52.8305   39.2946  H     
34   H        72.8581   52.0061   41.2674  H     
35   H        71.7866   53.3396   41.7802  H     
36   H        74.3288   56.7452   41.4944  H     
37   H        75.6181   56.5446   40.3112  H     
38   H        75.8330   55.9399   41.9588  H     
39   H        70.6435   54.1461   39.7159  H     
40   H        71.4025   53.8791   38.1532  H     
41   H        72.3240   51.3554   37.8314  H     
42   H        71.4411   49.0810   37.7250  H     
43   H        69.3770   48.5018   38.8798  H     
44   H        68.1786   50.2064   40.1345  H     
45   H        69.0505   52.4515   40.2980  H     
46   H        78.1493   51.9612   40.7134  H     
47   H        80.2261   52.0760   42.0397  H     
48   H        80.5142   51.4392   40.4196  H     
49   H        80.4856   50.3296   41.7978  H     
50   H        78.4706   48.9121   40.6693  H     
51   H        78.6328   50.0103   39.2828  H     
52   H        77.0645   49.8327   40.0988  H     
@<TRIPOS>BOND
     1    1    2 1
     2    1    4 1
     3    2    3 2
     4   11    2 1
     5    3    6 1
     6    4    5 1
     7    4   10 2
     8    5    6 2
     9    5    9 1
    10    6    7 1
    11    7    8 1
    12    7   24 1
    13    8    9 2
    14   11   12 1
    15   11   15 1
    16   12   13 1
    17   12   16 1
    18   13   14 1
    19   14   15 1
    20   14   17 1
    21   17   18 1
    22   18   19 2
    23   18   23 1
    24   19   20 1
    25   20   21 2
    26   21   22 1
    27   22   23 2
    28   24   25 1
    29   24   26 1
    30    1   27 1
    31    9   28 1
    32   11   29 1
    33   12   30 1
    34   13   31 1
    35   13   32 1
    36   14   33 1
    37   15   34 1
    38   15   35 1
    39   16   36 1
    40   16   37 1
    41   16   38 1
    42   17   39 1
    43   17   40 1
    44   19   41 1
    45   20   42 1
    46   21   43 1
    47   22   44 1
    48   23   45 1
    49   24   46 1
    50   25   47 1
    51   25   48 1
    52   25   49 1
    53   26   50 1
    54   26   51 1
    55   26   52 1
@<TRIPOS>PROPERTY_DATA
  Total_Score	| 9.0580
  Crash		| -0.7790
  Polar		| 2.0653
  FragIndex	| 1
  FragRMSD	| 0.149

