@<TRIPOS>MOLECULE
BindingDB_50300112
 60 65 0 0 0
SMALL
NO_CHARGES


@<TRIPOS>ATOM
1    N        74.6274   52.4820   43.4234  N     
2    C        75.1410   52.7000   42.1694  C     
3    N        76.2795   52.0457   41.8078  N     
4    C        75.1902   51.6349   44.2931  C     
5    C        76.3277   50.9347   43.9162  C     
6    C        76.8819   51.1816   42.6683  C     
7    N        78.0007   50.4403   42.5369  N     
8    N        78.1465   49.7192   43.6156  N     
9    C        77.1552   49.9821   44.4919  C     
10   O        74.7044   51.4818   45.4067  O     
11   C        74.5360   53.5909   41.1462  C     
12   C        73.3431   54.4918   41.5388  C     
13   C        72.6605   54.7899   40.1787  C     
14   N        73.1585   53.7826   39.2081  N     
15   C        73.9566   52.7895   39.9635  C     
16   C        73.7869   55.7490   42.3252  C     
17   C        72.1984   53.2446   38.1939  C     
18   C        78.9058   50.4603   41.4121  C     
19   C        80.3683   50.7950   41.8143  C     
20   C        81.2577   49.8131   41.0331  C     
21   C        80.3849   48.5588   40.8708  C     
22   C        78.9649   49.1109   40.6496  C     
23   C        71.3275   52.0839   38.5622  C     
24   C        70.4024   52.1652   39.6343  C     
25   C        69.4765   51.1370   39.8814  C     
26   C        71.3627   50.8898   37.7990  C     
27   C        70.4616   49.8432   38.0604  C     
28   C        69.4939   49.9782   39.0915  C     
29   N        68.6161   48.9543   39.2786  N     
30   C        68.6493   47.8431   38.5474  C     
31   C        69.5982   47.7006   37.5734  C     
32   N        70.4624   48.6791   37.3455  N     
33   H        73.8274   52.9576   43.7012  H     
34   H        77.0335   49.5530   45.4121  H     
35   H        75.3371   54.2300   40.7628  H     
36   H        72.6413   53.9161   42.1540  H     
37   H        71.5710   54.7816   40.2758  H     
38   H        72.9415   55.7758   39.8060  H     
39   H        73.8504   54.3048   38.6533  H     
40   H        74.7490   52.3841   39.3307  H     
41   H        73.3346   51.9659   40.3373  H     
42   H        74.3391   55.4518   43.2180  H     
43   H        72.9165   56.3248   42.6377  H     
44   H        74.4261   56.3811   41.7094  H     
45   H        71.5468   54.0593   37.8535  H     
46   H        72.8103   52.9811   37.3224  H     
47   H        78.5769   51.2279   40.7012  H     
48   H        80.6220   51.8302   41.5744  H     
49   H        80.5257   50.6422   42.8849  H     
50   H        81.5059   50.2255   40.0503  H     
51   H        82.1806   49.5848   41.5682  H     
52   H        80.7122   47.9447   40.0300  H     
53   H        80.4216   47.9610   41.7862  H     
54   H        78.2057   48.4017   40.9895  H     
55   H        78.8080   49.2828   39.5788  H     
56   H        70.3772   52.9748   40.2503  H     
57   H        68.7907   51.2315   40.6315  H     
58   H        72.0241   50.7857   37.0212  H     
59   H        67.9886   47.1231   38.7275  H     
60   H        69.6431   46.8678   37.0347  H     
@<TRIPOS>BOND
     1    1    2 1
     2    1    4 1
     3    2    3 2
     4   11    2 1
     5    3    6 1
     6    4    5 1
     7    4   10 2
     8    5    6 2
     9    5    9 1
    10    6    7 1
    11    7    8 1
    12    7   18 1
    13    8    9 2
    14   11   12 1
    15   11   15 1
    16   12   13 1
    17   12   16 1
    18   13   14 1
    19   14   15 1
    20   14   17 1
    21   17   23 1
    22   18   19 1
    23   18   22 1
    24   19   20 1
    25   20   21 1
    26   21   22 1
    27   23   24 2
    28   23   26 1
    29   24   25 1
    30   25   28 2
    31   26   27 2
    32   27   28 1
    33   27   32 1
    34   28   29 1
    35   29   30 2
    36   30   31 1
    37   31   32 2
    38    1   33 1
    39    9   34 1
    40   11   35 1
    41   12   36 1
    42   13   37 1
    43   13   38 1
    44   14   39 1
    45   15   40 1
    46   15   41 1
    47   16   42 1
    48   16   43 1
    49   16   44 1
    50   17   45 1
    51   17   46 1
    52   18   47 1
    53   19   48 1
    54   19   49 1
    55   20   50 1
    56   20   51 1
    57   21   52 1
    58   21   53 1
    59   22   54 1
    60   22   55 1
    61   24   56 1
    62   25   57 1
    63   26   58 1
    64   30   59 1
    65   31   60 1
@<TRIPOS>PROPERTY_DATA
  Total_Score	| 8.6823
  Crash		| -1.5043
  Polar		| 2.2511
  FragIndex	| 1
  FragRMSD	| 0.889

