@<TRIPOS>MOLECULE
BindingDB_50300110
 55 59 0 0 0
SMALL
NO_CHARGES


@<TRIPOS>ATOM
1    N        74.3709   52.5290   43.8563  N     
2    C        74.7370   52.9951   42.6194  C     
3    N        75.8759   52.5011   42.0549  N     
4    C        75.0822   51.6370   44.5441  C     
5    C        76.2284   51.1099   43.9628  C     
6    C        76.6289   51.5671   42.7156  C     
7    N        77.7363   50.8889   42.3579  N     
8    N        78.0335   50.0368   43.3034  N     
9    C        77.1437   50.1326   44.3121  C     
10   O        74.7008   51.2843   45.6528  O     
11   C        73.8432   53.9624   41.9153  C     
12   C        74.4303   54.7393   40.6978  C     
13   C        73.2293   54.8681   39.7440  C     
14   N        72.5002   53.5946   39.9091  N     
15   C        72.5657   53.2748   41.3596  C     
16   C        75.0557   56.1171   41.0501  C     
17   C        71.1493   53.5866   39.2793  C     
18   C        78.4530   51.0187   41.1169  C     
19   C        79.9783   51.2142   41.2412  C     
20   C        80.5657   50.7054   39.9066  C     
21   C        79.4479   49.9026   39.2045  C     
22   C        78.3261   49.7559   40.2450  C     
23   C        70.5251   52.2480   39.2586  C     
24   N        71.0826   51.1379   38.7343  N     
25   O        70.2411   50.1421   38.8130  O     
26   C        69.0863   50.5613   39.3869  C     
27   C        69.2474   51.9057   39.6934  C     
28   C        67.8941   49.7265   39.5524  C     
29   H        73.5534   52.8641   44.2538  H     
30   H        77.1401   49.5702   45.1654  H     
31   H        73.5280   54.7012   42.6601  H     
32   H        75.1928   54.1356   40.1948  H     
33   H        72.6024   55.7198   40.0181  H     
34   H        73.5680   54.9892   38.7121  H     
35   H        73.0583   52.8846   39.4242  H     
36   H        72.5991   52.1874   41.4705  H     
37   H        71.6847   53.6449   41.8930  H     
38   H        74.3139   56.7824   41.5013  H     
39   H        75.4381   56.5954   40.1441  H     
40   H        75.8838   55.9942   41.7539  H     
41   H        70.4887   54.2975   39.7871  H     
42   H        71.2402   53.9042   38.2360  H     
43   H        78.0506   51.8666   40.5471  H     
44   H        80.2306   52.2618   41.4162  H     
45   H        80.3788   50.6190   42.0647  H     
46   H        80.8726   51.5456   39.2783  H     
47   H        81.4406   50.0739   40.0867  H     
48   H        79.0741   50.4579   38.3408  H     
49   H        79.7997   48.9234   38.8630  H     
50   H        78.4928   48.8496   40.8407  H     
51   H        77.3423   49.6894   39.7749  H     
52   H        68.5501   52.5367   40.1030  H     
53   H        67.6248   49.2836   38.5919  H     
54   H        67.0499   50.3218   39.9084  H     
55   H        68.1040   48.9302   40.2676  H     
@<TRIPOS>BOND
     1    1    2 1
     2    1    4 1
     3    2    3 2
     4   11    2 1
     5    3    6 1
     6    4    5 1
     7    4   10 2
     8    5    6 2
     9    5    9 1
    10    6    7 1
    11    7    8 1
    12    7   18 1
    13    8    9 2
    14   11   12 1
    15   11   15 1
    16   12   13 1
    17   12   16 1
    18   13   14 1
    19   14   15 1
    20   14   17 1
    21   17   23 1
    22   18   19 1
    23   18   22 1
    24   19   20 1
    25   20   21 1
    26   21   22 1
    27   23   24 2
    28   23   27 1
    29   24   25 1
    30   25   26 1
    31   26   27 2
    32   26   28 1
    33    1   29 1
    34    9   30 1
    35   11   31 1
    36   12   32 1
    37   13   33 1
    38   13   34 1
    39   14   35 1
    40   15   36 1
    41   15   37 1
    42   16   38 1
    43   16   39 1
    44   16   40 1
    45   17   41 1
    46   17   42 1
    47   18   43 1
    48   19   44 1
    49   19   45 1
    50   20   46 1
    51   20   47 1
    52   21   48 1
    53   21   49 1
    54   22   50 1
    55   22   51 1
    56   27   52 1
    57   28   53 1
    58   28   54 1
    59   28   55 1
@<TRIPOS>PROPERTY_DATA
  Total_Score	| 9.7996
  Crash		| -0.8294
  Polar		| 2.0266
  FragIndex	| 1
  FragRMSD	| 0.474

