@<TRIPOS>MOLECULE
BindingDB_50300108
 57 61 0 0 0
SMALL
NO_CHARGES


@<TRIPOS>ATOM
1    N        74.3459   52.4786   43.7658  N     
2    C        74.7211   52.8976   42.5169  C     
3    N        75.8783   52.4071   41.9923  N     
4    C        75.0755   51.6377   44.5039  C     
5    C        76.2414   51.1180   43.9681  C     
6    C        76.6431   51.5237   42.7043  C     
7    N        77.7840   50.8759   42.4041  N     
8    N        78.0971   50.0850   43.3950  N     
9    C        77.1881   50.1930   44.3791  C     
10   O        74.7014   51.3182   45.6228  O     
11   C        73.8323   53.8095   41.7389  C     
12   C        74.4960   54.7039   40.6560  C     
13   C        73.3427   54.9582   39.6587  C     
14   N        72.5761   53.6877   39.6181  N     
15   C        72.7268   53.0485   40.9583  C     
16   C        75.1204   56.0237   41.1863  C     
17   C        71.1877   53.8292   39.0808  C     
18   C        70.4277   52.5525   39.0798  C     
19   C        69.1867   52.4334   39.7380  C     
20   N        68.5613   51.2322   39.7545  N     
21   C        69.0693   50.1208   39.1620  C     
22   C        70.2906   50.2466   38.4633  C     
23   N        70.9288   51.4483   38.4548  N     
24   C        78.5246   50.9890   41.1821  C     
25   C        80.0365   51.2183   41.3736  C     
26   C        80.6477   50.8017   40.0232  C     
27   C        79.6637   49.7923   39.3884  C     
28   C        78.4602   49.6978   40.3430  C     
29   C        68.3052   48.8648   39.2734  C     
30   H        73.5162   52.8058   44.1413  H     
31   H        77.1976   49.6652   45.2556  H     
32   H        73.3252   54.4738   42.4508  H     
33   H        75.2710   54.1326   40.1337  H     
34   H        72.7191   55.7899   40.0050  H     
35   H        73.7295   55.2019   38.6627  H     
36   H        73.0727   53.0808   38.9576  H     
37   H        73.0052   52.0023   40.7907  H     
38   H        71.7979   53.0740   41.5389  H     
39   H        74.3692   56.6615   41.6623  H     
40   H        75.5659   56.5825   40.3581  H     
41   H        75.9037   55.8043   41.9152  H     
42   H        70.6460   54.5806   39.6650  H     
43   H        71.2462   54.1910   38.0472  H     
44   H        68.7489   53.2262   40.2055  H     
45   H        70.7166   49.4508   37.9880  H     
46   H        78.1325   51.8150   40.5715  H     
47   H        80.2582   52.2606   41.6228  H     
48   H        80.4278   50.5769   42.1695  H     
49   H        80.7479   51.6818   39.3782  H     
50   H        81.6352   50.3571   40.1669  H     
51   H        79.3356   50.1528   38.4096  H     
52   H        80.1278   48.8117   39.2645  H     
53   H        78.5636   48.8158   40.9864  H     
54   H        77.5112   49.6273   39.8009  H     
55   H        68.1248   48.6553   40.3289  H     
56   H        68.8423   48.0230   38.8338  H     
57   H        67.3456   48.9718   38.7643  H     
@<TRIPOS>BOND
     1    1    2 1
     2    1    4 1
     3    2    3 2
     4   11    2 1
     5    3    6 1
     6    4    5 1
     7    4   10 2
     8    5    6 2
     9    5    9 1
    10    6    7 1
    11    7    8 1
    12    7   24 1
    13    8    9 2
    14   11   12 1
    15   11   15 1
    16   12   13 1
    17   12   16 1
    18   13   14 1
    19   14   15 1
    20   14   17 1
    21   17   18 1
    22   18   19 2
    23   18   23 1
    24   19   20 1
    25   20   21 2
    26   21   22 1
    27   21   29 1
    28   22   23 2
    29   24   25 1
    30   24   28 1
    31   25   26 1
    32   26   27 1
    33   27   28 1
    34    1   30 1
    35    9   31 1
    36   11   32 1
    37   12   33 1
    38   13   34 1
    39   13   35 1
    40   14   36 1
    41   15   37 1
    42   15   38 1
    43   16   39 1
    44   16   40 1
    45   16   41 1
    46   17   42 1
    47   17   43 1
    48   19   44 1
    49   22   45 1
    50   24   46 1
    51   25   47 1
    52   25   48 1
    53   26   49 1
    54   26   50 1
    55   27   51 1
    56   27   52 1
    57   28   53 1
    58   28   54 1
    59   29   55 1
    60   29   56 1
    61   29   57 1
@<TRIPOS>PROPERTY_DATA
  Total_Score	| 9.2555
  Crash		| -1.0563
  Polar		| 2.0975
  FragIndex	| 1
  FragRMSD	| 0.677

