@<TRIPOS>MOLECULE
BindingDB_50300109
 59 63 0 0 0
SMALL
NO_CHARGES


@<TRIPOS>ATOM
1    N        74.4262   52.5059   43.9157  N     
2    C        74.8379   52.9704   42.6908  C     
3    N        75.9716   52.4462   42.1357  N     
4    C        75.1003   51.5890   44.6077  C     
5    C        76.2450   51.0457   44.0544  C     
6    C        76.6843   51.4972   42.8181  C     
7    N        77.7962   50.8035   42.4942  N     
8    N        78.0491   49.9435   43.4452  N     
9    C        77.1348   50.0473   44.4201  C     
10   O        74.6778   51.2184   45.6930  O     
11   C        73.9363   53.9015   41.9480  C     
12   C        74.5431   54.7021   40.7563  C     
13   C        73.3521   54.8046   39.7785  C     
14   N        72.6918   53.4872   39.8947  N     
15   C        72.7247   53.1470   41.3287  C     
16   C        75.1461   56.0844   41.1304  C     
17   C        71.3784   53.3611   39.2009  C     
18   C        78.5655   50.9264   41.2792  C     
19   C        80.0633   51.2525   41.5410  C     
20   C        80.8754   50.2423   40.7075  C     
21   C        79.9599   49.0097   40.6081  C     
22   C        78.5544   49.6119   40.4537  C     
23   C        70.7614   52.0079   39.2784  C     
24   N        71.2751   50.8115   38.8931  N     
25   N        70.3540   49.8960   38.9876  N     
26   C        69.2058   50.4248   39.4442  C     
27   C        69.4383   51.7749   39.6617  C     
28   C        72.6078   50.5359   38.4865  C     
29   C        67.9512   49.6868   39.5780  C     
30   H        73.6015   52.8451   44.2912  H     
31   H        77.0923   49.4797   45.2618  H     
32   H        73.5541   54.6236   42.6697  H     
33   H        75.3198   54.1101   40.2580  H     
34   H        72.6688   55.6162   40.0674  H     
35   H        73.6929   54.9729   38.7545  H     
36   H        73.3295   52.8294   39.4349  H     
37   H        72.8205   52.0620   41.4003  H     
38   H        71.8072   53.4547   41.8446  H     
39   H        74.4032   56.7225   41.6264  H     
40   H        75.4975   56.5981   40.2253  H     
41   H        75.9985   55.9478   41.8059  H     
42   H        70.6773   54.1116   39.5994  H     
43   H        71.5315   53.5784   38.1334  H     
44   H        78.1422   51.7227   40.6544  H     
45   H        80.3066   52.2765   41.2510  H     
46   H        80.3240   51.1298   42.5961  H     
47   H        81.0708   50.6459   39.7081  H     
48   H        81.8280   49.9932   41.1855  H     
49   H        80.2274   48.3739   39.7587  H     
50   H        80.0199   48.4212   41.5312  H     
51   H        77.7884   48.9060   40.7870  H     
52   H        78.3784   49.8361   39.3980  H     
53   H        68.7496   52.4656   39.9807  H     
54   H        72.8882   51.2100   37.6698  H     
55   H        72.6905   49.5003   38.1489  H     
56   H        73.2539   50.6872   39.3591  H     
57   H        67.6555   49.3265   38.5872  H     
58   H        67.1628   50.3358   39.9748  H     
59   H        68.1002   48.8383   40.2513  H     
@<TRIPOS>BOND
     1    1    2 1
     2    1    4 1
     3    2    3 2
     4   11    2 1
     5    3    6 1
     6    4    5 1
     7    4   10 2
     8    5    6 2
     9    5    9 1
    10    6    7 1
    11    7    8 1
    12    7   18 1
    13    8    9 2
    14   11   12 1
    15   11   15 1
    16   12   13 1
    17   12   16 1
    18   13   14 1
    19   14   15 1
    20   14   17 1
    21   17   23 1
    22   18   19 1
    23   18   22 1
    24   19   20 1
    25   20   21 1
    26   21   22 1
    27   23   24 1
    28   23   27 2
    29   24   25 1
    30   24   28 1
    31   25   26 2
    32   26   27 1
    33   26   29 1
    34    1   30 1
    35    9   31 1
    36   11   32 1
    37   12   33 1
    38   13   34 1
    39   13   35 1
    40   14   36 1
    41   15   37 1
    42   15   38 1
    43   16   39 1
    44   16   40 1
    45   16   41 1
    46   17   42 1
    47   17   43 1
    48   18   44 1
    49   19   45 1
    50   19   46 1
    51   20   47 1
    52   20   48 1
    53   21   49 1
    54   21   50 1
    55   22   51 1
    56   22   52 1
    57   27   53 1
    58   28   54 1
    59   28   55 1
    60   28   56 1
    61   29   57 1
    62   29   58 1
    63   29   59 1
@<TRIPOS>PROPERTY_DATA
  Total_Score	| 9.8228
  Crash		| -1.1906
  Polar		| 2.0490
  FragIndex	| 1
  FragRMSD	| 0.426

