@<TRIPOS>MOLECULE
BindingDB_50300111
 59 64 0 0 0
SMALL
NO_CHARGES


@<TRIPOS>ATOM
1    N        74.4337   52.4398   43.8146  N     
2    C        74.7716   52.8462   42.5509  C     
3    N        75.9451   52.3984   42.0116  N     
4    C        75.1945   51.6384   44.5558  C     
5    C        76.3786   51.1601   44.0212  C     
6    C        76.7496   51.5508   42.7382  C     
7    N        77.9483   50.9795   42.4731  N     
8    N        78.3216   50.2622   43.5001  N     
9    C        77.3952   50.3318   44.4733  C     
10   O        74.8512   51.3487   45.6933  O     
11   C        73.8235   53.7545   41.8463  C     
12   C        74.3216   54.5537   40.6058  C     
13   C        73.0524   54.6804   39.7355  C     
14   N        72.3493   53.3970   39.9221  N     
15   C        72.5558   53.0138   41.3411  C     
16   C        74.9260   55.9515   40.9215  C     
17   C        70.9446   53.3739   39.4199  C     
18   C        78.7099   51.1299   41.2610  C     
19   C        80.2492   51.2493   41.4279  C     
20   C        80.8316   50.6881   40.1216  C     
21   C        79.9109   49.4983   39.8095  C     
22   C        78.5102   49.9549   40.2693  C     
23   C        70.4480   51.9924   39.2773  C     
24   C        69.2643   51.4414   39.7731  C     
25   N        71.0716   51.0568   38.5377  N     
26   C        70.2952   49.9637   38.5593  C     
27   N        69.1797   50.1893   39.2951  N     
28   C        68.2072   49.2598   39.4100  C     
29   C        68.3552   48.0740   38.7731  C     
30   C        69.4923   47.8199   38.0424  C     
31   C        70.4713   48.7417   37.9218  C     
32   H        73.6054   52.7581   44.1961  H     
33   H        77.4385   49.8731   45.3908  H     
34   H        73.5003   54.4890   42.5895  H     
35   H        75.0608   53.9651   40.0460  H     
36   H        72.4321   55.5259   40.0592  H     
37   H        73.3192   54.8225   38.6820  H     
38   H        72.8751   52.7194   39.3651  H     
39   H        72.6660   51.9270   41.3799  H     
40   H        71.7008   53.2934   41.9636  H     
41   H        74.2477   56.5462   41.5469  H     
42   H        75.1060   56.5042   39.9931  H     
43   H        75.8762   55.8355   41.4468  H     
44   H        70.2875   53.9671   40.0656  H     
45   H        70.9095   53.8214   38.4208  H     
46   H        78.3859   52.0525   40.7714  H     
47   H        80.5660   52.2858   41.5865  H     
48   H        80.6068   50.6341   42.2591  H     
49   H        80.7694   51.4352   39.3210  H     
50   H        81.8722   50.3679   40.2428  H     
51   H        79.9313   49.2401   38.7457  H     
52   H        80.2269   48.6266   40.3931  H     
53   H        77.9850   49.1158   40.7374  H     
54   H        77.9232   50.2857   39.4072  H     
55   H        68.5679   51.9191   40.3475  H     
56   H        67.3883   49.4431   39.9397  H     
57   H        67.6434   47.3841   38.8323  H     
58   H        69.5934   46.9379   37.5920  H     
59   H        71.2848   48.5617   37.3806  H     
@<TRIPOS>BOND
     1    1    2 1
     2    1    4 1
     3    2    3 2
     4   11    2 1
     5    3    6 1
     6    4    5 1
     7    4   10 2
     8    5    6 2
     9    5    9 1
    10    6    7 1
    11    7    8 1
    12    7   18 1
    13    8    9 2
    14   11   12 1
    15   11   15 1
    16   12   13 1
    17   12   16 1
    18   13   14 1
    19   14   15 1
    20   14   17 1
    21   17   23 1
    22   18   19 1
    23   18   22 1
    24   19   20 1
    25   20   21 1
    26   21   22 1
    27   23   24 2
    28   23   25 1
    29   24   27 1
    30   25   26 2
    31   26   27 1
    32   26   31 1
    33   27   28 1
    34   28   29 2
    35   29   30 1
    36   30   31 2
    37    1   32 1
    38    9   33 1
    39   11   34 1
    40   12   35 1
    41   13   36 1
    42   13   37 1
    43   14   38 1
    44   15   39 1
    45   15   40 1
    46   16   41 1
    47   16   42 1
    48   16   43 1
    49   17   44 1
    50   17   45 1
    51   18   46 1
    52   19   47 1
    53   19   48 1
    54   20   49 1
    55   20   50 1
    56   21   51 1
    57   21   52 1
    58   22   53 1
    59   22   54 1
    60   24   55 1
    61   28   56 1
    62   29   57 1
    63   30   58 1
    64   31   59 1
@<TRIPOS>PROPERTY_DATA
  Total_Score	| 9.5203
  Crash		| -1.0943
  Polar		| 2.1744
  FragIndex	| 1
  FragRMSD	| 0.224

