@<TRIPOS>MOLECULE
BindingDB_50300113
 60 65 0 0 0
SMALL
NO_CHARGES


@<TRIPOS>ATOM
1    N        74.4533   52.4883   43.8549  N     
2    C        74.8196   52.9094   42.6091  C     
3    N        75.9393   52.3641   42.0555  N     
4    C        75.1618   51.6070   44.5678  C     
5    C        76.3068   51.0580   44.0267  C     
6    C        76.6830   51.4511   42.7496  C     
7    N        77.8225   50.8008   42.4497  N     
8    N        78.1568   50.0274   43.4511  N     
9    C        77.2603   50.1420   44.4496  C     
10   O        74.7783   51.2994   45.6820  O     
11   C        73.9031   53.8132   41.8579  C     
12   C        74.4873   54.6589   40.6828  C     
13   C        73.2904   54.8037   39.7209  C     
14   N        72.5923   53.4997   39.8041  N     
15   C        72.7324   53.0196   41.2041  C     
16   C        75.0905   56.0377   41.0884  C     
17   C        71.2057   53.4957   39.2489  C     
18   C        78.5635   50.9212   41.2325  C     
19   C        80.0019   51.4472   41.4525  C     
20   C        80.8743   50.2043   41.6970  C     
21   C        80.1600   49.0423   40.9600  C     
22   C        78.7673   49.5630   40.5144  C     
23   C        70.6685   52.1083   39.1711  C     
24   C        69.4837   51.7311   39.8525  C     
25   C        68.9307   50.4389   39.6934  C     
26   C        71.3326   51.1369   38.3851  C     
27   C        70.7695   49.8648   38.1904  C     
28   C        69.5544   49.5118   38.8382  C     
29   N        69.0350   48.2777   38.5879  N     
30   C        69.6096   47.4269   37.7343  C     
31   C        70.7612   47.7716   37.0881  C     
32   N        71.3149   48.9635   37.3176  N     
33   H        73.6311   52.8426   44.2387  H     
34   H        77.2699   49.6424   45.3479  H     
35   H        73.4693   54.5248   42.5870  H     
36   H        75.2598   54.0917   40.1596  H     
37   H        72.6408   55.6367   40.0268  H     
38   H        73.6323   54.9864   38.6935  H     
39   H        73.1461   52.8624   39.2157  H     
40   H        72.9266   51.9441   41.1513  H     
41   H        71.8344   53.1639   41.8045  H     
42   H        74.3500   56.6403   41.6156  H     
43   H        75.4123   56.5839   40.1988  H     
44   H        75.9584   55.8944   41.7343  H     
45   H        70.5471   54.1507   39.8302  H     
46   H        71.2194   53.9134   38.2338  H     
47   H        78.0460   51.6051   40.5510  H     
48   H        80.3509   51.9514   40.5475  H     
49   H        80.0798   52.1447   42.2881  H     
50   H        81.8916   50.3510   41.3141  H     
51   H        80.9407   49.9947   42.7647  H     
52   H        80.7438   48.7090   40.0891  H     
53   H        80.0405   48.1989   41.6360  H     
54   H        77.9702   48.8411   40.7429  H     
55   H        78.7582   49.7215   39.4257  H     
56   H        68.9874   52.4084   40.4414  H     
57   H        68.0641   50.1874   40.1771  H     
58   H        72.1901   51.3832   37.8847  H     
59   H        69.1743   46.5503   37.5566  H     
60   H        71.1831   47.1578   36.4321  H     
@<TRIPOS>BOND
     1    1    2 1
     2    1    4 1
     3    2    3 2
     4   11    2 1
     5    3    6 1
     6    4    5 1
     7    4   10 2
     8    5    6 2
     9    5    9 1
    10    6    7 1
    11    7    8 1
    12    7   18 1
    13    8    9 2
    14   11   12 1
    15   11   15 1
    16   12   13 1
    17   12   16 1
    18   13   14 1
    19   14   15 1
    20   14   17 1
    21   17   23 1
    22   18   19 1
    23   18   22 1
    24   19   20 1
    25   20   21 1
    26   21   22 1
    27   23   24 2
    28   23   26 1
    29   24   25 1
    30   25   28 2
    31   26   27 2
    32   27   28 1
    33   27   32 1
    34   28   29 1
    35   29   30 2
    36   30   31 1
    37   31   32 2
    38    1   33 1
    39    9   34 1
    40   11   35 1
    41   12   36 1
    42   13   37 1
    43   13   38 1
    44   14   39 1
    45   15   40 1
    46   15   41 1
    47   16   42 1
    48   16   43 1
    49   16   44 1
    50   17   45 1
    51   17   46 1
    52   18   47 1
    53   19   48 1
    54   19   49 1
    55   20   50 1
    56   20   51 1
    57   21   52 1
    58   21   53 1
    59   22   54 1
    60   22   55 1
    61   24   56 1
    62   25   57 1
    63   26   58 1
    64   30   59 1
    65   31   60 1
@<TRIPOS>PROPERTY_DATA
  Total_Score	| 9.4240
  Crash		| -1.1056
  Polar		| 2.1388
  FragIndex	| 1
  FragRMSD	| 0.156

