@<TRIPOS>MOLECULE
BindingDB_50300104
 55 59 0 0 0
SMALL
NO_CHARGES


@<TRIPOS>ATOM
1    N        74.4510   52.4583   43.8847  N     
2    C        74.8247   52.8872   42.6380  C     
3    N        75.9576   52.3658   42.0843  N     
4    C        75.1686   51.5909   44.6042  C     
5    C        76.3202   51.0680   44.0563  C     
6    C        76.7109   51.4619   42.7831  C     
7    N        77.8497   50.8113   42.4710  N     
8    N        78.1759   50.0336   43.4720  N     
9    C        77.2721   50.1425   44.4626  C     
10   O        74.7990   51.2802   45.7280  O     
11   C        73.9315   53.8442   41.9135  C     
12   C        74.5642   54.6732   40.7573  C     
13   C        73.4298   54.7474   39.7133  C     
14   N        72.7448   53.4450   39.8190  N     
15   C        72.7097   53.1335   41.2703  C     
16   C        75.1039   56.0739   41.1720  C     
17   C        71.4390   53.3608   39.0952  C     
18   C        70.8557   51.9990   39.0881  C     
19   N        71.5189   51.0022   38.4296  N     
20   C        71.0457   49.7328   38.3433  C     
21   C        69.8322   49.3864   38.9663  C     
22   C        69.1169   50.3930   39.6488  C     
23   C        69.6269   51.6985   39.7178  C     
24   C        78.6017   50.9278   41.2454  C     
25   C        80.0312   51.4658   41.4693  C     
26   C        80.8991   50.2214   41.7422  C     
27   C        80.2197   49.0550   40.9906  C     
28   C        78.8279   49.5642   40.5466  C     
29   H        73.6434   52.8069   44.2775  H     
30   H        77.2865   49.6407   45.3487  H     
31   H        73.5452   54.5514   42.6585  H     
32   H        75.3897   54.1174   40.2974  H     
33   H        72.7454   55.5733   39.9384  H     
34   H        73.8387   54.8921   38.7036  H     
35   H        73.3668   52.7575   39.3916  H     
36   H        72.7419   52.0467   41.3989  H     
37   H        71.7849   53.5002   41.7374  H     
38   H        74.3080   56.7002   41.5766  H     
39   H        75.5441   56.5755   40.3107  H     
40   H        75.8748   55.9656   41.9401  H     
41   H        70.7405   54.0877   39.5250  H     
42   H        71.5997   53.6495   38.0520  H     
43   H        71.5741   49.0189   37.8370  H     
44   H        69.4536   48.4377   38.9007  H     
45   H        68.2214   50.1730   40.0934  H     
46   H        69.1030   52.4289   40.2165  H     
47   H        78.0800   51.6055   40.5572  H     
48   H        80.3884   51.9630   40.5578  H     
49   H        80.0851   52.1747   42.2992  H     
50   H        81.9300   50.3745   41.3932  H     
51   H        80.9269   50.0109   42.8201  H     
52   H        80.8152   48.7609   40.1194  H     
53   H        80.1225   48.1893   41.6519  H     
54   H        78.0427   48.8395   40.7915  H     
55   H        78.8288   49.7120   39.4594  H     
@<TRIPOS>BOND
     1    1    2 1
     2    1    4 1
     3    2    3 2
     4   11    2 1
     5    3    6 1
     6    4    5 1
     7    4   10 2
     8    5    6 2
     9    5    9 1
    10    6    7 1
    11    7    8 1
    12    7   24 1
    13    8    9 2
    14   11   12 1
    15   11   15 1
    16   12   13 1
    17   12   16 1
    18   13   14 1
    19   14   15 1
    20   14   17 1
    21   17   18 1
    22   18   19 2
    23   18   23 1
    24   19   20 1
    25   20   21 2
    26   21   22 1
    27   22   23 2
    28   24   25 1
    29   24   28 1
    30   25   26 1
    31   26   27 1
    32   27   28 1
    33    1   29 1
    34    9   30 1
    35   11   31 1
    36   12   32 1
    37   13   33 1
    38   13   34 1
    39   14   35 1
    40   15   36 1
    41   15   37 1
    42   16   38 1
    43   16   39 1
    44   16   40 1
    45   17   41 1
    46   17   42 1
    47   20   43 1
    48   21   44 1
    49   22   45 1
    50   23   46 1
    51   24   47 1
    52   25   48 1
    53   25   49 1
    54   26   50 1
    55   26   51 1
    56   27   52 1
    57   27   53 1
    58   28   54 1
    59   28   55 1
@<TRIPOS>PROPERTY_DATA
  Total_Score	| 9.4193
  Crash		| -0.9058
  Polar		| 2.1509
  FragIndex	| 1
  FragRMSD	| 0.840

