@<TRIPOS>MOLECULE
BindingDB_50300106
 58 62 0 0 0
SMALL
NO_CHARGES


@<TRIPOS>ATOM
1    N        74.4136   52.4735   43.8940  N     
2    C        74.7767   52.9166   42.6476  C     
3    N        75.8994   52.3919   42.0799  N     
4    C        75.1257   51.6011   44.6018  C     
5    C        76.2567   51.0523   44.0305  C     
6    C        76.6406   51.4682   42.7600  C     
7    N        77.7415   50.7724   42.4131  N     
8    N        78.0491   49.9530   43.3854  N     
9    C        77.1785   50.0873   44.3994  C     
10   O        74.7678   51.2969   45.7339  O     
11   C        73.9035   53.8914   41.9346  C     
12   C        74.5235   54.6876   40.7464  C     
13   C        73.3356   54.8533   39.7759  C     
14   N        72.6084   53.5718   39.8844  N     
15   C        72.6465   53.2054   41.3226  C     
16   C        75.1633   56.0544   41.1166  C     
17   C        71.2573   53.5437   39.2397  C     
18   C        70.8192   52.1423   38.9887  C     
19   C        71.4068   51.4180   37.9365  C     
20   N        70.9918   50.1616   37.6499  N     
21   C        70.0273   49.5024   38.3465  C     
22   C        69.4360   50.1684   39.4448  C     
23   C        69.8246   51.4864   39.7551  C     
24   C        78.4595   50.8648   41.1697  C     
25   C        79.9826   51.1021   41.3604  C     
26   C        80.6691   49.7984   40.9146  C     
27   C        79.7478   49.2454   39.8182  C     
28   C        78.3313   49.5661   40.3253  C     
29   C        69.6460   48.1503   37.8733  C     
30   F        68.6469   47.5572   38.6078  F     
31   F        69.2011   48.2325   36.5777  F     
32   F        70.7402   47.3216   37.8985  F     
33   H        73.6007   52.8169   44.2817  H     
34   H        77.1862   49.5545   45.2709  H     
35   H        73.5608   54.6247   42.6756  H     
36   H        75.2804   54.0825   40.2386  H     
37   H        72.7009   55.6975   40.0654  H     
38   H        73.6852   55.0140   38.7532  H     
39   H        73.1851   52.8837   39.3921  H     
40   H        72.6794   52.1109   41.3924  H     
41   H        71.7531   53.5529   41.8568  H     
42   H        74.4291   56.7274   41.5661  H     
43   H        75.5737   56.5301   40.2235  H     
44   H        75.9740   55.9167   41.8284  H     
45   H        70.5260   54.0947   39.8367  H     
46   H        71.3015   54.0574   38.2724  H     
47   H        72.1338   51.8370   37.3577  H     
48   H        68.7107   49.7180   40.0079  H     
49   H        69.3752   51.9621   40.5439  H     
50   H        78.0625   51.6999   40.5789  H     
51   H        80.3153   51.9239   40.7181  H     
52   H        80.2486   51.3507   42.3918  H     
53   H        81.6790   49.9803   40.5376  H     
54   H        80.7221   49.0946   41.7520  H     
55   H        79.9368   49.7613   38.8713  H     
56   H        79.8917   48.1713   39.6735  H     
57   H        77.9704   48.7261   40.9268  H     
58   H        77.6413   49.7029   39.4909  H     
@<TRIPOS>BOND
     1    1    2 1
     2    1    4 1
     3    2    3 2
     4   11    2 1
     5    3    6 1
     6    4    5 1
     7    4   10 2
     8    5    6 2
     9    5    9 1
    10    6    7 1
    11    7    8 1
    12    7   24 1
    13    8    9 2
    14   11   12 1
    15   11   15 1
    16   12   13 1
    17   12   16 1
    18   13   14 1
    19   14   15 1
    20   14   17 1
    21   17   18 1
    22   18   19 2
    23   18   23 1
    24   19   20 1
    25   20   21 2
    26   21   22 1
    27   21   29 1
    28   22   23 2
    29   24   25 1
    30   24   28 1
    31   25   26 1
    32   26   27 1
    33   27   28 1
    34   29   30 1
    35   29   31 1
    36   29   32 1
    37    1   33 1
    38    9   34 1
    39   11   35 1
    40   12   36 1
    41   13   37 1
    42   13   38 1
    43   14   39 1
    44   15   40 1
    45   15   41 1
    46   16   42 1
    47   16   43 1
    48   16   44 1
    49   17   45 1
    50   17   46 1
    51   19   47 1
    52   22   48 1
    53   23   49 1
    54   24   50 1
    55   25   51 1
    56   25   52 1
    57   26   53 1
    58   26   54 1
    59   27   55 1
    60   27   56 1
    61   28   57 1
    62   28   58 1
@<TRIPOS>PROPERTY_DATA
  Total_Score	| 9.4581
  Crash		| -0.8925
  Polar		| 2.1346
  FragIndex	| 1
  FragRMSD	| 0.812

