@<TRIPOS>MOLECULE
BindingDB_50300105
 59 63 0 0 0
SMALL
NO_CHARGES


@<TRIPOS>ATOM
1    N        74.4459   52.4527   43.9021  N     
2    C        74.7950   52.8452   42.6360  C     
3    N        75.9384   52.3322   42.0892  N     
4    C        75.1684   51.5979   44.6296  C     
5    C        76.3185   51.0610   44.0844  C     
6    C        76.7040   51.4540   42.8086  C     
7    N        77.8401   50.7886   42.5054  N     
8    N        78.1529   49.9930   43.4943  N     
9    C        77.2606   50.1262   44.4901  C     
10   O        74.7939   51.2890   45.7512  O     
11   C        73.8837   53.7683   41.8922  C     
12   C        74.4825   54.6094   40.7248  C     
13   C        73.3025   54.7529   39.7407  C     
14   N        72.6152   53.4437   39.8243  N     
15   C        72.6707   53.0327   41.2551  C     
16   C        75.0720   55.9817   41.1536  C     
17   C        71.2833   53.3770   39.1425  C     
18   C        70.7958   51.9810   38.9381  C     
19   C        71.2650   51.2067   37.8529  C     
20   N        70.7976   49.9499   37.6551  N     
21   C        69.8567   49.3587   38.4386  C     
22   C        69.3315   50.1034   39.5244  C     
23   C        69.8115   51.3928   39.7750  C     
24   C        78.5466   50.8684   41.2563  C     
25   C        80.0950   50.9233   41.3859  C     
26   C        80.5981   49.5438   40.9302  C     
27   C        79.5934   49.1248   39.8462  C     
28   C        78.2389   49.6339   40.3684  C     
29   O        69.5109   48.0850   38.0728  O     
30   C        68.1512   47.6391   38.2085  C     
31   H        73.6293   52.8021   44.2872  H     
32   H        77.2679   49.6143   45.3776  H     
33   H        73.4855   54.4793   42.6266  H     
34   H        75.2630   54.0372   40.2140  H     
35   H        72.6340   55.5723   40.0311  H     
36   H        73.6545   54.9281   38.7199  H     
37   H        73.2188   52.7856   39.3234  H     
38   H        72.7841   51.9451   41.2875  H     
39   H        71.7465   53.2993   41.7870  H     
40   H        74.3054   56.6126   41.6094  H     
41   H        75.4820   56.5032   40.2868  H     
42   H        75.8702   55.8351   41.8800  H     
43   H        70.5426   53.9699   39.7007  H     
44   H        71.3825   53.8315   38.1481  H     
45   H        71.9587   51.5822   37.2018  H     
46   H        68.5999   49.6944   40.1183  H     
47   H        69.4240   51.9215   40.5694  H     
48   H        78.2308   51.7737   40.7256  H     
49   H        80.5022   51.6940   40.7194  H     
50   H        80.4305   51.1491   42.4014  H     
51   H        81.6182   49.5909   40.5373  H     
52   H        80.5682   48.8378   41.7650  H     
53   H        79.8365   49.6122   38.8985  H     
54   H        79.5903   48.0404   39.6997  H     
55   H        77.7614   48.8347   40.9486  H     
56   H        77.5741   49.8972   39.5424  H     
57   H        67.8586   47.6436   39.2586  H     
58   H        68.0949   46.6189   37.8354  H     
59   H        67.4712   48.2712   37.6324  H     
@<TRIPOS>BOND
     1    1    2 1
     2    1    4 1
     3    2    3 2
     4   11    2 1
     5    3    6 1
     6    4    5 1
     7    4   10 2
     8    5    6 2
     9    5    9 1
    10    6    7 1
    11    7    8 1
    12    7   24 1
    13    8    9 2
    14   11   12 1
    15   11   15 1
    16   12   13 1
    17   12   16 1
    18   13   14 1
    19   14   15 1
    20   14   17 1
    21   17   18 1
    22   18   19 2
    23   18   23 1
    24   19   20 1
    25   20   21 2
    26   21   22 1
    27   21   29 1
    28   22   23 2
    29   24   25 1
    30   24   28 1
    31   25   26 1
    32   26   27 1
    33   27   28 1
    34   29   30 1
    35    1   31 1
    36    9   32 1
    37   11   33 1
    38   12   34 1
    39   13   35 1
    40   13   36 1
    41   14   37 1
    42   15   38 1
    43   15   39 1
    44   16   40 1
    45   16   41 1
    46   16   42 1
    47   17   43 1
    48   17   44 1
    49   19   45 1
    50   22   46 1
    51   23   47 1
    52   24   48 1
    53   25   49 1
    54   25   50 1
    55   26   51 1
    56   26   52 1
    57   27   53 1
    58   27   54 1
    59   28   55 1
    60   28   56 1
    61   30   57 1
    62   30   58 1
    63   30   59 1
@<TRIPOS>PROPERTY_DATA
  Total_Score	| 9.2904
  Crash		| -0.8856
  Polar		| 2.1586
  FragIndex	| 1
  FragRMSD	| 0.831

