@<TRIPOS>MOLECULE
BindingDB_50300103
 59 63 0 0 0
SMALL
NO_CHARGES


@<TRIPOS>ATOM
1    N        74.4789   52.5088   43.8496  N     
2    C        74.8364   52.9298   42.5897  C     
3    N        75.9112   52.3438   41.9872  N     
4    C        75.1683   51.6004   44.5348  C     
5    C        76.2847   51.0184   43.9461  C     
6    C        76.6263   51.3902   42.6535  C     
7    N        77.7048   50.6627   42.2842  N     
8    N        78.0643   49.8999   43.2830  N     
9    C        77.2282   50.0737   44.3254  C     
10   O        74.7936   51.2851   45.6595  O     
11   C        73.9684   53.9348   41.9086  C     
12   C        74.5489   54.7510   40.7141  C     
13   C        73.3553   54.8854   39.7476  C     
14   N        72.6191   53.6162   39.8998  N     
15   C        72.6842   53.2744   41.3413  C     
16   C        75.1313   56.1467   41.0825  C     
17   C        71.2574   53.5748   39.2741  C     
18   C        70.7614   52.1696   39.2172  C     
19   C        71.5035   51.2018   38.5139  C     
20   C        71.0667   49.8603   38.4141  C     
21   C        69.8724   49.4845   39.0688  C     
22   C        69.1194   50.4403   39.7694  C     
23   C        69.5533   51.7743   39.8461  C     
24   C        78.3348   50.7095   40.9842  C     
25   C        79.7057   51.4323   41.0007  C     
26   C        80.8050   50.3512   40.8938  C     
27   C        80.0863   48.9945   40.7974  C     
28   C        78.6481   49.3263   40.3736  C     
29   C        71.8778   48.9002   37.6376  C     
30   H        73.6784   52.8872   44.2606  H     
31   H        77.2748   49.5899   45.2250  H     
32   H        73.6600   54.6527   42.6773  H     
33   H        75.3286   54.1685   40.2133  H     
34   H        72.7204   55.7340   40.0235  H     
35   H        73.7032   55.0028   38.7152  H     
36   H        73.2043   52.9238   39.4280  H     
37   H        72.6914   52.1828   41.4328  H     
38   H        71.8157   53.6446   41.8894  H     
39   H        74.3785   56.7504   41.6031  H     
40   H        75.4192   56.6756   40.1726  H     
41   H        76.0031   56.0420   41.7279  H     
42   H        70.5643   54.2370   39.8116  H     
43   H        71.3063   53.9374   38.2376  H     
44   H        72.3755   51.4793   38.0422  H     
45   H        69.5343   48.5205   39.0224  H     
46   H        68.2432   50.1698   40.2255  H     
47   H        68.9859   52.4571   40.3493  H     
48   H        77.6651   51.2352   40.2941  H     
49   H        79.7702   52.1029   40.1386  H     
50   H        79.8382   52.0320   41.9106  H     
51   H        81.4120   50.5220   40.0007  H     
52   H        81.4640   50.3790   41.7671  H     
53   H        80.5707   48.3316   40.0761  H     
54   H        80.0863   48.5010   41.7705  H     
55   H        77.9447   48.5537   40.7042  H     
56   H        78.5988   49.3803   39.2805  H     
57   H        71.9997   49.2631   36.6167  H     
58   H        71.4195   47.9155   37.5923  H     
59   H        72.8637   48.7954   38.0911  H     
@<TRIPOS>BOND
     1    1    2 1
     2    1    4 1
     3    2    3 2
     4   11    2 1
     5    3    6 1
     6    4    5 1
     7    4   10 2
     8    5    6 2
     9    5    9 1
    10    6    7 1
    11    7    8 1
    12    7   24 1
    13    8    9 2
    14   11   12 1
    15   11   15 1
    16   12   13 1
    17   12   16 1
    18   13   14 1
    19   14   15 1
    20   14   17 1
    21   17   18 1
    22   18   19 2
    23   18   23 1
    24   19   20 1
    25   20   21 2
    26   20   29 1
    27   21   22 1
    28   22   23 2
    29   24   25 1
    30   24   28 1
    31   25   26 1
    32   26   27 1
    33   27   28 1
    34    1   30 1
    35    9   31 1
    36   11   32 1
    37   12   33 1
    38   13   34 1
    39   13   35 1
    40   14   36 1
    41   15   37 1
    42   15   38 1
    43   16   39 1
    44   16   40 1
    45   16   41 1
    46   17   42 1
    47   17   43 1
    48   19   44 1
    49   21   45 1
    50   22   46 1
    51   23   47 1
    52   24   48 1
    53   25   49 1
    54   25   50 1
    55   26   51 1
    56   26   52 1
    57   27   53 1
    58   27   54 1
    59   28   55 1
    60   28   56 1
    61   29   57 1
    62   29   58 1
    63   29   59 1
@<TRIPOS>PROPERTY_DATA
  Total_Score	| 9.9790
  Crash		| -0.9083
  Polar		| 2.1221
  FragIndex	| 1
  FragRMSD	| 0.216

