@<TRIPOS>MOLECULE
BindingDB_50300107
 57 61 0 0 0
SMALL
NO_CHARGES


@<TRIPOS>ATOM
1    N        74.4004   52.4618   43.8540  N     
2    C        74.7660   52.8980   42.6089  C     
3    N        75.9063   52.3943   42.0550  N     
4    C        75.1205   51.5969   44.5675  C     
5    C        76.2727   51.0720   44.0099  C     
6    C        76.6663   51.4900   42.7448  C     
7    N        77.8043   50.8333   42.4353  N     
8    N        78.1268   50.0429   43.4253  N     
9    C        77.2219   50.1442   44.4127  C     
10   O        74.7509   51.2845   45.6894  O     
11   C        73.8898   53.8713   41.8974  C     
12   C        74.5189   54.6898   40.7368  C     
13   C        73.3443   54.8997   39.7623  C     
14   N        72.5714   53.6431   39.8402  N     
15   C        72.6418   53.2016   41.2603  C     
16   C        75.1706   56.0284   41.1690  C     
17   C        71.2123   53.7291   39.2298  C     
18   C        70.4583   52.4491   39.2701  C     
19   C        69.1814   52.3591   39.8661  C     
20   N        68.5011   51.1871   39.8629  N     
21   C        69.0192   50.0651   39.3011  C     
22   N        70.2508   50.1174   38.7279  N     
23   C        70.9758   51.2647   38.7027  C     
24   C        78.5554   50.9707   41.2134  C     
25   C        79.9938   51.4829   41.4464  C     
26   C        80.8375   50.2233   41.7104  C     
27   C        80.1381   49.0761   40.9466  C     
28   C        78.7635   49.6198   40.4831  C     
29   C        68.2311   48.8262   39.3158  C     
30   H        73.5814   52.8045   44.2320  H     
31   H        77.2281   49.6208   45.2940  H     
32   H        73.5343   54.5838   42.6447  H     
33   H        75.2709   54.0921   40.2159  H     
34   H        72.7355   55.7605   40.0633  H     
35   H        73.7070   55.0648   38.7420  H     
36   H        73.0978   52.9522   39.2979  H     
37   H        72.7138   52.1042   41.2662  H     
38   H        71.7389   53.4779   41.8215  H     
39   H        74.4299   56.6925   41.6240  H     
40   H        75.5964   56.5396   40.3037  H     
41   H        75.9655   55.8472   41.8934  H     
42   H        70.6440   54.5203   39.7270  H     
43   H        71.3126   54.0166   38.1785  H     
44   H        68.7441   53.1743   40.2958  H     
45   H        71.8942   51.2553   38.2533  H     
46   H        78.0373   51.6603   40.5376  H     
47   H        80.3522   51.9881   40.5447  H     
48   H        80.0465   52.1928   42.2725  H     
49   H        81.8634   50.3638   41.3664  H     
50   H        80.8532   50.0053   42.7787  H     
51   H        80.7408   48.7663   40.0843  H     
52   H        80.0103   48.2042   41.5991  H     
53   H        77.9614   48.9086   40.6976  H     
54   H        78.7879   49.7830   39.3992  H     
55   H        68.0043   48.5583   40.3489  H     
56   H        68.7779   48.0067   38.8459  H     
57   H        67.2972   48.9786   38.7718  H     
@<TRIPOS>BOND
     1    1    2 1
     2    1    4 1
     3    2    3 2
     4   11    2 1
     5    3    6 1
     6    4    5 1
     7    4   10 2
     8    5    6 2
     9    5    9 1
    10    6    7 1
    11    7    8 1
    12    7   24 1
    13    8    9 2
    14   11   12 1
    15   11   15 1
    16   12   13 1
    17   12   16 1
    18   13   14 1
    19   14   15 1
    20   14   17 1
    21   17   18 1
    22   18   19 2
    23   18   23 1
    24   19   20 1
    25   20   21 2
    26   21   22 1
    27   21   29 1
    28   22   23 2
    29   24   25 1
    30   24   28 1
    31   25   26 1
    32   26   27 1
    33   27   28 1
    34    1   30 1
    35    9   31 1
    36   11   32 1
    37   12   33 1
    38   13   34 1
    39   13   35 1
    40   14   36 1
    41   15   37 1
    42   15   38 1
    43   16   39 1
    44   16   40 1
    45   16   41 1
    46   17   42 1
    47   17   43 1
    48   19   44 1
    49   23   45 1
    50   24   46 1
    51   25   47 1
    52   25   48 1
    53   26   49 1
    54   26   50 1
    55   27   51 1
    56   27   52 1
    57   28   53 1
    58   28   54 1
    59   29   55 1
    60   29   56 1
    61   29   57 1
@<TRIPOS>PROPERTY_DATA
  Total_Score	| 9.4332
  Crash		| -1.2768
  Polar		| 2.1205
  FragIndex	| 1
  FragRMSD	| 0.253

