@<TRIPOS>MOLECULE
BindingDB_50300102
 56 60 0 0 0
SMALL
NO_CHARGES


@<TRIPOS>ATOM
1    N        74.4415   52.4996   43.9362  N     
2    C        74.7930   52.9430   42.6875  C     
3    N        75.9147   52.4261   42.1047  N     
4    C        75.1648   51.6196   44.6291  C     
5    C        76.3024   51.0913   44.0438  C     
6    C        76.6794   51.5105   42.7750  C     
7    N        77.8166   50.8638   42.4398  N     
8    N        78.1514   50.0680   43.4227  N     
9    C        77.2560   50.1559   44.4198  C     
10   O        74.8088   51.2929   45.7512  O     
11   C        73.8936   53.8946   41.9724  C     
12   C        74.5019   54.7008   40.7860  C     
13   C        73.3439   54.7840   39.7679  C     
14   N        72.6086   53.5102   39.9219  N     
15   C        72.6528   53.1718   41.3678  C     
16   C        75.0702   56.0951   41.1798  C     
17   C        71.2583   53.5071   39.2830  C     
18   C        70.7024   52.1296   39.1618  C     
19   C        69.4962   51.7685   39.8148  C     
20   C        68.9796   50.4624   39.7053  C     
21   C        69.6623   49.4932   38.9518  C     
22   C        70.8513   49.8373   38.2825  C     
23   C        71.3608   51.1471   38.3825  C     
24   C        78.5455   51.0143   41.2028  C     
25   C        79.9939   51.5103   41.4135  C     
26   C        80.8346   50.2410   41.6509  C     
27   C        80.1091   49.1000   40.9038  C     
28   C        78.7361   49.6639   40.4670  C     
29   H        73.6250   52.8413   44.3384  H     
30   H        77.2883   49.6275   45.2965  H     
31   H        73.5340   54.6181   42.7123  H     
32   H        75.3116   54.1337   40.3138  H     
33   H        72.6946   55.6384   39.9859  H     
34   H        73.7255   54.8748   38.7451  H     
35   H        73.1650   52.7952   39.4471  H     
36   H        72.7228   52.0811   41.4645  H     
37   H        71.7462   53.5051   41.8909  H     
38   H        74.2754   56.7457   41.5476  H     
39   H        75.5302   56.5705   40.3121  H     
40   H        75.8252   55.9935   41.9584  H     
41   H        70.5751   54.1541   39.8532  H     
42   H        71.3415   53.9283   38.2709  H     
43   H        68.9864   52.4558   40.3770  H     
44   H        68.1228   50.2096   40.2071  H     
45   H        69.2706   48.5554   38.8492  H     
46   H        71.3491   49.1302   37.7324  H     
47   H        72.2418   51.3721   37.9106  H     
48   H        78.0218   51.7208   40.5463  H     
49   H        80.3463   52.0115   40.5035  H     
50   H        80.0754   52.2183   42.2465  H     
51   H        81.8589   50.3732   41.2831  H     
52   H        80.8776   50.0209   42.7257  H     
53   H        80.6844   48.7869   40.0282  H     
54   H        79.9803   48.2370   41.5616  H     
55   H        77.9250   48.9655   40.6947  H     
56   H        78.7475   49.8426   39.3872  H     
@<TRIPOS>BOND
     1    1    2 1
     2    1    4 1
     3    2    3 2
     4   11    2 1
     5    3    6 1
     6    4    5 1
     7    4   10 2
     8    5    6 2
     9    5    9 1
    10    6    7 1
    11    7    8 1
    12    7   24 1
    13    8    9 2
    14   11   12 1
    15   11   15 1
    16   12   13 1
    17   12   16 1
    18   13   14 1
    19   14   15 1
    20   14   17 1
    21   17   18 1
    22   18   19 2
    23   18   23 1
    24   19   20 1
    25   20   21 2
    26   21   22 1
    27   22   23 2
    28   24   25 1
    29   24   28 1
    30   25   26 1
    31   26   27 1
    32   27   28 1
    33    1   29 1
    34    9   30 1
    35   11   31 1
    36   12   32 1
    37   13   33 1
    38   13   34 1
    39   14   35 1
    40   15   36 1
    41   15   37 1
    42   16   38 1
    43   16   39 1
    44   16   40 1
    45   17   41 1
    46   17   42 1
    47   19   43 1
    48   20   44 1
    49   21   45 1
    50   22   46 1
    51   23   47 1
    52   24   48 1
    53   25   49 1
    54   25   50 1
    55   26   51 1
    56   26   52 1
    57   27   53 1
    58   27   54 1
    59   28   55 1
    60   28   56 1
@<TRIPOS>PROPERTY_DATA
  Total_Score	| 9.4026
  Crash		| -1.0019
  Polar		| 2.0958
  FragIndex	| 1
  FragRMSD	| 0.111

