@<TRIPOS>MOLECULE
BindingDB_50300100
 55 58 0 0 0
SMALL
NO_CHARGES


@<TRIPOS>ATOM
1    N        74.6689   52.6359   43.8595  N     
2    C        74.9163   52.8807   42.5326  C     
3    N        75.9015   52.1715   41.9116  N     
4    C        75.3764   51.7685   44.5839  C     
5    C        76.4090   51.0765   43.9747  C     
6    C        76.6666   51.2877   42.6260  C     
7    N        77.6713   50.4620   42.2703  N     
8    N        78.0361   49.7469   43.3028  N     
9    C        77.2924   50.0849   44.3703  C     
10   O        75.0729   51.5696   45.7595  O     
11   C        73.9726   53.7369   41.7631  C     
12   C        74.5739   54.5969   40.6173  C     
13   C        73.3856   54.7169   39.6385  C     
14   N        72.7201   53.3983   39.6909  N     
15   C        72.8764   52.8859   41.0743  C     
16   C        75.1307   55.9738   41.0797  C     
17   C        71.3274   53.3805   39.1440  C     
18   C        70.6746   52.0403   39.1415  C     
19   C        69.3780   51.8694   39.7045  C     
20   C        68.7453   50.6119   39.6622  C     
21   C        69.3888   49.5073   39.0665  C     
22   C        70.6849   49.6654   38.5269  C     
23   C        71.3249   50.9210   38.5639  C     
24   C        78.2478   50.3328   40.9641  C     
25   C        79.2444   51.4830   40.6130  C     
26   C        80.3761   51.6177   41.6718  C     
27   C        79.8593   51.2761   39.2047  C     
28   H        73.9412   53.1062   44.2898  H     
29   H        77.3583   49.6808   45.3040  H     
30   H        73.4729   54.4139   42.4703  H     
31   H        75.3817   54.0530   40.1150  H     
32   H        72.7055   55.5185   39.9558  H     
33   H        73.7459   54.9187   38.6274  H     
34   H        73.2819   52.7798   39.0945  H     
35   H        73.1688   51.8263   40.9878  H     
36   H        71.9401   52.9419   41.6586  H     
37   H        74.3487   56.5793   41.5454  H     
38   H        75.5216   56.5217   40.2209  H     
39   H        75.9327   55.8339   41.8046  H     
40   H        70.7302   54.1017   39.7259  H     
41   H        71.3705   53.7521   38.1101  H     
42   H        68.8969   52.6720   40.1306  H     
43   H        67.8039   50.5141   40.0478  H     
44   H        68.9209   48.5968   39.0286  H     
45   H        71.1467   48.8556   38.0979  H     
46   H        72.2681   51.0226   38.1630  H     
47   H        78.7755   49.3735   40.8913  H     
48   H        77.4311   50.3150   40.2321  H     
49   H        78.6806   52.4144   40.5913  H     
50   H        79.9486   51.8575   42.6485  H     
51   H        81.0701   52.4200   41.3945  H     
52   H        80.9515   50.6927   41.7531  H     
53   H        80.4670   50.3656   39.1632  H     
54   H        80.4957   52.1297   38.9359  H     
55   H        79.0713   51.2011   38.4549  H     
@<TRIPOS>BOND
     1    1    2 1
     2    1    4 1
     3    2    3 2
     4   11    2 1
     5    3    6 1
     6    4    5 1
     7    4   10 2
     8    5    6 2
     9    5    9 1
    10    6    7 1
    11    7    8 1
    12    7   24 1
    13    8    9 2
    14   11   12 1
    15   11   15 1
    16   12   13 1
    17   12   16 1
    18   13   14 1
    19   14   15 1
    20   14   17 1
    21   17   18 1
    22   18   19 2
    23   18   23 1
    24   19   20 1
    25   20   21 2
    26   21   22 1
    27   22   23 2
    28   24   25 1
    29   25   26 1
    30   25   27 1
    31    1   28 1
    32    9   29 1
    33   11   30 1
    34   12   31 1
    35   13   32 1
    36   13   33 1
    37   14   34 1
    38   15   35 1
    39   15   36 1
    40   16   37 1
    41   16   38 1
    42   16   39 1
    43   17   40 1
    44   17   41 1
    45   19   42 1
    46   20   43 1
    47   21   44 1
    48   22   45 1
    49   23   46 1
    50   24   47 1
    51   24   48 1
    52   25   49 1
    53   26   50 1
    54   26   51 1
    55   26   52 1
    56   27   53 1
    57   27   54 1
    58   27   55 1
@<TRIPOS>PROPERTY_DATA
  Total_Score	| 9.4290
  Crash		| -0.8600
  Polar		| 2.2761
  FragIndex	| 1
  FragRMSD	| 0.433

