@<TRIPOS>MOLECULE
BindingDB_50300099
 40 43 0 0 0
SMALL
NO_CHARGES


@<TRIPOS>ATOM
1    N        74.6483   52.2756   43.5348  N     
2    C        75.1360   52.3677   42.2538  C     
3    N        76.2916   51.7179   41.9277  N     
4    C        75.2620   51.5646   44.4795  C     
5    C        74.4099   53.1180   41.2044  C     
6    C        74.2567   54.5493   41.5618  C     
7    C        75.2258   55.5072   41.1815  C     
8    C        75.1524   56.8297   41.6506  C     
9    C        74.1110   57.2163   42.5024  C     
10   C        73.1201   56.2839   42.8719  C     
11   C        73.1850   54.9675   42.3873  C     
12   O        74.7767   51.4948   45.6015  O     
13   C        76.4240   50.8859   44.1542  C     
14   C        76.9449   50.9746   42.8662  C     
15   N        78.0505   50.2007   42.8130  N     
16   N        78.2318   49.6427   43.9784  N     
17   C        77.2690   50.0202   44.8380  C     
18   C        78.9361   49.9737   41.6969  C     
19   C        78.2101   49.5053   40.4053  C     
20   C        78.6154   50.4779   39.2769  C     
21   C        79.1359   51.7357   39.9873  C     
22   C        79.7628   51.2196   41.2945  C     
23   H        73.8206   52.7372   43.7582  H     
24   H        74.9370   53.0356   40.2447  H     
25   H        73.4322   52.6473   41.0659  H     
26   H        76.0027   55.2406   40.5761  H     
27   H        75.8813   57.4952   41.3851  H     
28   H        74.0633   58.1669   42.8651  H     
29   H        72.3651   56.5628   43.4995  H     
30   H        72.4586   54.3005   42.6657  H     
31   H        77.1719   49.7152   45.8085  H     
32   H        79.6485   49.1865   41.9815  H     
33   H        78.4925   48.4817   40.1422  H     
34   H        77.1231   49.5214   40.5329  H     
35   H        79.4182   50.0373   38.6757  H     
36   H        77.7727   50.7095   38.6227  H     
37   H        79.8657   52.2698   39.3748  H     
38   H        78.3044   52.4092   40.2089  H     
39   H        79.7589   51.9939   42.0671  H     
40   H        80.8035   50.9339   41.1081  H     
@<TRIPOS>BOND
     1    1    2 1
     2    1    4 1
     3    2    3 2
     4    2    5 1
     5    3   14 1
     6    4   12 2
     7    4   13 1
     8    5    6 1
     9    6    7 2
    10    6   11 1
    11    7    8 1
    12    8    9 2
    13    9   10 1
    14   10   11 2
    15   13   14 2
    16   13   17 1
    17   14   15 1
    18   15   16 1
    19   15   18 1
    20   16   17 2
    21   18   19 1
    22   18   22 1
    23   19   20 1
    24   20   21 1
    25   21   22 1
    26    1   23 1
    27    5   24 1
    28    5   25 1
    29    7   26 1
    30    8   27 1
    31    9   28 1
    32   10   29 1
    33   11   30 1
    34   17   31 1
    35   18   32 1
    36   19   33 1
    37   19   34 1
    38   20   35 1
    39   20   36 1
    40   21   37 1
    41   21   38 1
    42   22   39 1
    43   22   40 1
@<TRIPOS>PROPERTY_DATA
  Total_Score	| 7.3553
  Crash		| -1.9578
  Polar		| 2.2121
  FragIndex	| 1
  FragRMSD	| 0.914

