@<TRIPOS>MOLECULE
BindingDB_50314546
 105 107 0 0 0
SMALL
NO_CHARGES


@<TRIPOS>ATOM
1    C        14.7994    8.0494   13.9309  C     
2    C        13.5796    8.5525   13.4045  C     
3    C        13.5621    9.4814   12.3583  C     
4    C        14.7694    9.9349   11.7828  C     
5    C        15.9954    9.4818   12.3248  C     
6    C        16.0100    8.5623   13.3944  C     
7    C        14.7890    7.1082   15.0912  C     
8    S        14.7116   11.0477   10.4425  S     
9    N        14.9293   12.6558   10.8849  N     
10   O        15.6939   10.6513    9.2516  O     
11   O        13.2552   10.9713    9.8010  O     
12   C        15.9942    6.1579   15.2927  C     
13   N        15.6135    4.7999   15.4362  N     
14   S        16.7018    3.5623   15.0748  S     
15   C        17.8801    4.0740   13.8121  C     
16   O        18.6301    5.1449   14.4000  O     
17   C        19.6630    5.7039   13.5714  C     
18   C        19.0569    6.3440   12.2841  C     
19   C        18.1818    5.2853   11.5371  C     
20   C        17.1906    4.5525   12.4966  C     
21   O        16.5112    3.4700   11.8302  O     
22   O        20.1269    6.7725   11.4135  O     
23   O        17.3917    5.8864   10.5009  O     
24   C        20.4540    6.6688   14.4846  C     
25   C        17.6729    6.0907    9.1878  C     
26   C        16.7161    6.7645    8.3192  C     
27   O        18.8554    5.6961    8.6531  O     
28   C        16.9661    2.2256   11.5056  C     
29   C        16.0885    1.3057   10.7867  C     
30   O        18.2335    1.8274   11.7784  O     
31   O        19.6166    7.7083   15.0079  O     
32   C        19.8746    9.0394   15.0943  C     
33   C        18.8777    9.9419   15.6694  C     
34   O        21.0714    9.5565   14.7022  O     
35   C        20.4643    8.1740   11.3719  C     
36   O        19.5625    8.8632   10.4787  O     
37   C        19.8312   10.2767   10.2999  C     
38   C        21.2898   10.5379    9.8183  C     
39   C        22.3092    9.7969   10.7313  C     
40   C        21.9196    8.3041   10.8574  C     
41   O        22.8257    7.6729   11.7769  O     
42   O        21.4665   10.0792    8.4638  O     
43   O        23.6550    9.8806   10.2361  O     
44   C        18.7760   10.8339    9.3163  C     
45   C        22.2319   10.6268    7.4822  C     
46   C        22.2757    9.9998    6.1572  C     
47   O        22.9550   11.7499    7.6950  O     
48   C        24.4650   10.9734   10.2022  C     
49   C        25.8256   10.8405    9.6698  C     
50   O        24.0655   12.1702   10.6933  O     
51   C        23.6553    6.6216   11.5531  C     
52   C        24.5330    6.1417   12.6270  C     
53   O        23.6991    5.9892   10.3547  O     
54   O        19.2961   11.7965    8.3903  O     
55   C        19.5899   13.1010    8.6264  C     
56   C        20.1377   13.9246    7.5511  C     
57   O        19.3521   13.6728    9.8366  O     
58   O        17.4488    3.0914   16.3992  O     
59   O        15.8801    2.2922   14.5827  O     
60   H        12.6894    8.2368   13.7952  H     
61   H        12.6599    9.8187   12.0097  H     
62   H        16.8790    9.8277   11.9370  H     
63   H        16.9091    8.2741   13.7912  H     
64   H        14.6745    7.7084   15.9998  H     
65   H        13.9043    6.4685   15.0276  H     
66   H        15.7849   12.9508   11.2495  H     
67   H        14.1929   13.2847   10.7788  H     
68   H        16.6930    6.2773   14.4554  H     
69   H        16.5064    6.4457   16.2232  H     
70   H        14.8663    4.5836   16.0219  H     
71   H        18.5403    3.2305   13.6111  H     
72   H        20.3622    4.9089   13.2737  H     
73   H        18.4038    7.1757   12.5590  H     
74   H        18.8445    4.5441   11.0836  H     
75   H        16.4160    5.2779   12.7612  H     
76   H        20.8364    6.1013   15.3363  H     
77   H        21.3061    7.0726   13.9398  H     
78   H        16.4944    6.1285    7.4618  H     
79   H        17.1432    7.7022    7.9639  H     
80   H        15.7916    6.9791    8.8589  H     
81   H        15.0403    1.5226   11.0044  H     
82   H        16.3058    0.2779   11.0854  H     
83   H        16.2672    1.4210    9.7167  H     
84   H        17.9712    9.3979   15.9404  H     
85   H        18.6254   10.7088   14.9344  H     
86   H        19.2801   10.4210   16.5653  H     
87   H        20.4028    8.6171   12.3739  H     
88   H        19.6959   10.7860   11.2608  H     
89   H        21.4974   11.6084    9.8853  H     
90   H        22.2801   10.2413   11.7370  H     
91   H        21.9885    7.8313    9.8701  H     
92   H        18.3629   10.0140    8.7216  H     
93   H        17.9545   11.2854    9.8711  H     
94   H        21.6220    9.1262    6.1159  H     
95   H        23.2984    9.6843    5.9374  H     
96   H        21.9536   10.7196    5.4008  H     
97   H        26.5494   11.0667   10.4524  H     
98   H        25.9646   11.5356    8.8423  H     
99   H        26.0057    9.8260    9.3111  H     
100  H        25.5710    6.1731   12.2913  H     
101  H        24.2589    5.1157   12.8681  H     
102  H        24.4291    6.7610   13.5194  H     
103  H        21.1275   14.2848    7.8349  H     
104  H        19.4859   14.7794    7.3650  H     
105  H        20.2279   13.3471    6.6274  H     
@<TRIPOS>BOND
     1    1    2 2
     2    1    6 1
     3    1    7 1
     4    2    3 1
     5    3    4 2
     6    4    5 1
     7    4    8 1
     8    5    6 2
     9    7   12 1
    10    8    9 am
    11    8   10 2
    12    8   11 2
    13   12   13 1
    14   13   14 1
    15   15   14 1
    16   14   58 2
    17   14   59 2
    18   15   16 1
    19   15   20 1
    20   16   17 1
    21   17   18 1
    22   17   24 1
    23   18   19 1
    24   18   22 1
    25   19   20 1
    26   19   23 1
    27   20   21 1
    28   21   28 1
    29   22   35 1
    30   23   25 1
    31   24   31 1
    32   25   26 1
    33   25   27 2
    34   28   29 1
    35   28   30 2
    36   31   32 1
    37   32   33 1
    38   32   34 2
    39   35   36 1
    40   35   40 1
    41   36   37 1
    42   37   38 1
    43   37   44 1
    44   38   39 1
    45   38   42 1
    46   39   40 1
    47   39   43 1
    48   40   41 1
    49   41   51 1
    50   42   45 1
    51   43   48 1
    52   44   54 1
    53   45   46 1
    54   45   47 2
    55   48   49 1
    56   48   50 2
    57   51   52 1
    58   51   53 2
    59   54   55 1
    60   55   56 1
    61   55   57 2
    62    2   60 1
    63    3   61 1
    64    5   62 1
    65    6   63 1
    66    7   64 1
    67    7   65 1
    68    9   66 1
    69    9   67 1
    70   12   68 1
    71   12   69 1
    72   13   70 1
    73   15   71 1
    74   17   72 1
    75   18   73 1
    76   19   74 1
    77   20   75 1
    78   24   76 1
    79   24   77 1
    80   26   78 1
    81   26   79 1
    82   26   80 1
    83   29   81 1
    84   29   82 1
    85   29   83 1
    86   33   84 1
    87   33   85 1
    88   33   86 1
    89   35   87 1
    90   37   88 1
    91   38   89 1
    92   39   90 1
    93   40   91 1
    94   44   92 1
    95   44   93 1
    96   46   94 1
    97   46   95 1
    98   46   96 1
    99   49   97 1
   100   49   98 1
   101   49   99 1
   102   52  100 1
   103   52  101 1
   104   52  102 1
   105   56  103 1
   106   56  104 1
   107   56  105 1
@<TRIPOS>PROPERTY_DATA
  Total_Score	| 4.0636
  Crash		| -4.8809
  Polar		| 1.8337
  FragIndex	| 1
  FragRMSD	| 1.028

