@<TRIPOS>MOLECULE
BindingDB_50314555
 66 67 0 0 0
SMALL
NO_CHARGES


@<TRIPOS>ATOM
1    C        15.0697    7.2709   14.3666  C     
2    C        16.3611    7.7349   14.0508  C     
3    C        16.5650    8.7413   13.0922  C     
4    C        15.4726    9.3184   12.4201  C     
5    C        14.1691    8.8891   12.7458  C     
6    C        13.9731    7.8639   13.6959  C     
7    C        14.9080    6.1852   15.3691  C     
8    N        15.0383    4.9083   14.7530  N     
9    S        15.7516   10.4989   11.1702  S     
10   N        14.5461   11.6552   10.9750  N     
11   O        17.1705   11.2108   11.2423  O     
12   O        15.7638    9.6848    9.8059  O     
13   S        16.3407    3.8569   14.9672  S     
14   C        17.7824    4.1260   13.9009  C     
15   O        18.4883    5.2632   14.4189  O     
16   C        19.6491    5.6817   13.6684  C     
17   C        19.1852    6.1283   12.2537  C     
18   C        18.4392    4.9764   11.5249  C     
19   C        17.3602    4.2870   12.4062  C     
20   O        17.1785    2.9552   11.9067  O     
21   O        20.2604    6.5393   11.3821  O     
22   O        17.8364    5.3587   10.2720  O     
23   C        20.3068    6.8173   14.4840  C     
24   O        19.3455    7.8319   14.7998  O     
25   C        19.5370    9.0213   15.4276  C     
26   C        18.3928    9.9050   15.6686  C     
27   O        20.7501    9.3791   15.8982  O     
28   C        20.7017    7.7864   11.0806  C     
29   C        21.8251    7.9268   10.1430  C     
30   O        20.1597    8.8849   11.6545  O     
31   C        17.6291    6.5607    9.6606  C     
32   C        17.0268    6.5871    8.3274  C     
33   O        17.9683    7.7375   10.2407  O     
34   C        16.1143    2.3532   11.3293  C     
35   C        16.2480    0.9378   10.9771  C     
36   O        14.9661    3.0265   11.0914  O     
37   O        16.7622    3.7579   16.5002  O     
38   O        15.7499    2.4066   14.6836  O     
39   H        17.1658    7.3321   14.5268  H     
40   H        17.5184    9.0425   12.8809  H     
41   H        13.3606    9.3005   12.2760  H     
42   H        13.0222    7.5367   13.8744  H     
43   H        15.6272    6.3099   16.1829  H     
44   H        13.9209    6.2371   15.8263  H     
45   H        14.3978    4.6860   14.0607  H     
46   H        14.1461   11.7792   10.1001  H     
47   H        14.3926   12.3151   11.6714  H     
48   H        18.4317    3.2494   14.0074  H     
49   H        20.3650    4.8568   13.5740  H     
50   H        18.4921    6.9445   12.4158  H     
51   H        19.2031    4.2292   11.2781  H     
52   H        16.4399    4.8744   12.3285  H     
53   H        20.7031    6.3867   15.4060  H     
54   H        21.1371    7.2528   13.9246  H     
55   H        17.9643   10.2133   14.7177  H     
56   H        18.7117   10.7995   16.2066  H     
57   H        17.6425    9.3825   16.2642  H     
58   H        22.6938    7.3897   10.5297  H     
59   H        22.0917    8.9761   10.0047  H     
60   H        21.5449    7.5050    9.1752  H     
61   H        17.5794    5.9253    7.6554  H     
62   H        17.0472    7.5998    7.9113  H     
63   H        15.9887    6.2596    8.3979  H     
64   H        17.0936    0.8102   10.2981  H     
65   H        15.3446    0.5728   10.4878  H     
66   H        16.4231    0.3469   11.8797  H     
@<TRIPOS>BOND
     1    1    2 2
     2    1    6 1
     3    1    7 1
     4    2    3 1
     5    3    4 2
     6    4    5 1
     7    4    9 1
     8    5    6 2
     9    7    8 1
    10    8   13 1
    11    9   10 am
    12    9   11 2
    13    9   12 2
    14   14   13 1
    15   13   37 2
    16   13   38 2
    17   14   15 1
    18   14   19 1
    19   15   16 1
    20   16   17 1
    21   16   23 1
    22   17   18 1
    23   17   21 1
    24   18   19 1
    25   18   22 1
    26   19   20 1
    27   20   34 1
    28   21   28 1
    29   22   31 1
    30   23   24 1
    31   24   25 1
    32   25   26 1
    33   25   27 2
    34   28   29 1
    35   28   30 2
    36   31   32 1
    37   31   33 2
    38   34   35 1
    39   34   36 2
    40    2   39 1
    41    3   40 1
    42    5   41 1
    43    6   42 1
    44    7   43 1
    45    7   44 1
    46    8   45 1
    47   10   46 1
    48   10   47 1
    49   14   48 1
    50   16   49 1
    51   17   50 1
    52   18   51 1
    53   19   52 1
    54   23   53 1
    55   23   54 1
    56   26   55 1
    57   26   56 1
    58   26   57 1
    59   29   58 1
    60   29   59 1
    61   29   60 1
    62   32   61 1
    63   32   62 1
    64   32   63 1
    65   35   64 1
    66   35   65 1
    67   35   66 1
@<TRIPOS>PROPERTY_DATA
  Total_Score	| 3.3166
  Crash		| -4.5013
  Polar		| 1.9780
  FragIndex	| 1
  FragRMSD	| 1.396

