@<TRIPOS>MOLECULE
BindingDB_50314537
 105 107 0 0 0
SMALL
NO_CHARGES


@<TRIPOS>ATOM
1    C        15.8066    7.6245   14.6146  C     
2    C        16.9282    8.3187   14.1069  C     
3    C        16.8095    9.1853   13.0020  C     
4    C        15.5572    9.3887   12.3923  C     
5    C        14.4284    8.7162   12.8969  C     
6    C        14.5536    7.8438   13.9960  C     
7    C        15.9519    6.7541   15.8194  C     
8    S        15.4430   10.4374   11.0086  S     
9    N        16.0648    9.7301    9.6220  N     
10   O        13.9453   10.8672   10.6906  O     
11   O        16.2369   11.7995   11.2204  O     
12   C        15.0116    5.5215   15.9375  C     
13   N        15.2093    4.5626   14.9059  N     
14   S        16.5855    3.5951   14.7726  S     
15   C        17.7563    4.2159   13.5433  C     
16   O        18.4555    5.3275   14.1283  O     
17   C        19.5149    5.9156   13.3352  C     
18   C        18.9405    6.4387   11.9754  C     
19   C        18.0924    5.3266   11.2855  C     
20   C        17.0584    4.6843   12.2430  C     
21   O        16.2632    3.6647   11.6122  O     
22   O        19.9147    6.8149   10.9786  O     
23   O        17.3961    5.9107   10.1722  O     
24   C        20.2262    6.9548   14.2576  C     
25   C        17.7766    5.9491    8.8703  C     
26   C        16.9181    6.6170    7.8876  C     
27   O        18.9581    5.4281    8.4704  O     
28   C        16.3888    2.3386   11.3328  C     
29   C        17.5246    1.4740   11.6908  C     
30   O        15.3415    1.7691   10.6956  O     
31   O        20.0159    8.3351   13.9114  O     
32   C        20.1899    9.4193   14.7245  C     
33   C        20.1609   10.7661   14.1425  C     
34   O        20.4373    9.2773   16.0525  O     
35   C        20.6173    8.0760   11.0565  C     
36   O        21.8293    7.9420   11.8390  O     
37   C        22.8157    7.0200   11.3078  C     
38   C        23.2796    7.5431    9.9142  C     
39   C        22.0479    7.6906    8.9737  C     
40   C        20.9788    8.6041    9.6410  C     
41   O        19.8084    8.6860    8.8010  O     
42   O        24.3307    6.7757    9.3128  O     
43   O        22.4051    8.1334    7.6547  O     
44   C        23.9663    6.7784   12.3246  C     
45   C        24.5022    5.4348    9.2103  C     
46   C        25.7282    4.9455    8.5683  C     
47   O        23.6201    4.5643    9.7496  O     
48   C        22.9779    9.2902    7.2338  C     
49   C        23.2363    9.4463    5.7983  C     
50   O        23.2980   10.2887    8.0903  O     
51   C        19.3307    9.7274    8.0650  C     
52   C        19.9424   11.0715    8.0296  C     
53   O        18.2333    9.4951    7.3175  O     
54   O        25.2438    7.3030   11.9297  O     
55   C        26.2914    7.6658   12.7118  C     
56   C        27.5296    8.1131   12.0549  C     
57   O        26.2398    7.5785   14.0653  O     
58   O        17.3346    3.4736   16.1755  O     
59   O        16.1295    2.1117   14.4138  O     
60   H        17.8319    8.2219   14.5638  H     
61   H        17.6444    9.6550   12.6493  H     
62   H        13.5082    8.8606   12.4709  H     
63   H        13.7128    7.3730   14.3359  H     
64   H        16.9811    6.3761   15.8847  H     
65   H        15.7862    7.3854   16.7013  H     
66   H        15.5079    9.1428    9.0871  H     
67   H        17.0232    9.7367    9.4745  H     
68   H        15.1429    5.0550   16.9195  H     
69   H        13.9784    5.8612   15.8856  H     
70   H        14.6301    4.6178   14.1265  H     
71   H        18.4686    3.4157   13.3346  H     
72   H        20.2389    5.1260   13.1179  H     
73   H        18.2849    7.2825   12.1752  H     
74   H        18.7749    4.5466   10.9404  H     
75   H        16.3494    5.4727   12.5081  H     
76   H        19.9277    6.7991   15.3016  H     
77   H        21.3048    6.7769   14.2127  H     
78   H        15.9794    6.0755    7.7939  H     
79   H        17.4037    6.6545    6.9114  H     
80   H        16.7095    7.6306    8.2205  H     
81   H        18.4463    1.8536   11.2589  H     
82   H        17.3765    0.4619   11.3130  H     
83   H        17.6249    1.4066   12.7728  H     
84   H        20.8913   10.8153   13.3325  H     
85   H        20.4201   11.5241   14.8899  H     
86   H        19.1670   10.9905   13.7532  H     
87   H        19.9726    8.8324   11.5188  H     
88   H        22.3231    6.0525   11.1739  H     
89   H        23.6993    8.5400   10.0651  H     
90   H        21.5991    6.7049    8.8284  H     
91   H        21.4169    9.5984    9.7810  H     
92   H        23.6804    7.1628   13.3040  H     
93   H        24.1178    5.7021   12.4408  H     
94   H        25.7385    5.2495    7.5199  H     
95   H        25.7964    3.8584    8.6244  H     
96   H        26.5944    5.3774    9.0736  H     
97   H        23.9095    8.6554    5.4675  H     
98   H        23.6950   10.4129    5.5891  H     
99   H        22.2985    9.3708    5.2468  H     
100  H        19.9237   11.5044    9.0320  H     
101  H        19.3893   11.7289    7.3550  H     
102  H        20.9736   10.9992    7.6800  H     
103  H        27.8743    7.3407   11.3594  H     
104  H        28.3155    8.2994   12.7930  H     
105  H        27.3346    9.0339   11.4982  H     
@<TRIPOS>BOND
     1    1    2 2
     2    1    6 1
     3    1    7 1
     4    2    3 1
     5    3    4 2
     6    4    5 1
     7    4    8 1
     8    5    6 2
     9    7   12 1
    10    8    9 am
    11    8   10 2
    12    8   11 2
    13   12   13 1
    14   13   14 1
    15   15   14 1
    16   14   58 2
    17   14   59 2
    18   15   16 1
    19   15   20 1
    20   16   17 1
    21   17   18 1
    22   17   24 1
    23   18   19 1
    24   18   22 1
    25   19   20 1
    26   19   23 1
    27   20   21 1
    28   21   28 1
    29   22   35 1
    30   23   25 1
    31   24   31 1
    32   25   26 1
    33   25   27 2
    34   28   29 1
    35   28   30 2
    36   31   32 1
    37   32   33 1
    38   32   34 2
    39   35   36 1
    40   35   40 1
    41   36   37 1
    42   37   38 1
    43   37   44 1
    44   38   39 1
    45   38   42 1
    46   39   40 1
    47   39   43 1
    48   40   41 1
    49   41   51 1
    50   42   45 1
    51   43   48 1
    52   44   54 1
    53   45   46 1
    54   45   47 2
    55   48   49 1
    56   48   50 2
    57   51   52 1
    58   51   53 2
    59   54   55 1
    60   55   56 1
    61   55   57 2
    62    2   60 1
    63    3   61 1
    64    5   62 1
    65    6   63 1
    66    7   64 1
    67    7   65 1
    68    9   66 1
    69    9   67 1
    70   12   68 1
    71   12   69 1
    72   13   70 1
    73   15   71 1
    74   17   72 1
    75   18   73 1
    76   19   74 1
    77   20   75 1
    78   24   76 1
    79   24   77 1
    80   26   78 1
    81   26   79 1
    82   26   80 1
    83   29   81 1
    84   29   82 1
    85   29   83 1
    86   33   84 1
    87   33   85 1
    88   33   86 1
    89   35   87 1
    90   37   88 1
    91   38   89 1
    92   39   90 1
    93   40   91 1
    94   44   92 1
    95   44   93 1
    96   46   94 1
    97   46   95 1
    98   46   96 1
    99   49   97 1
   100   49   98 1
   101   49   99 1
   102   52  100 1
   103   52  101 1
   104   52  102 1
   105   56  103 1
   106   56  104 1
   107   56  105 1
@<TRIPOS>PROPERTY_DATA
  Total_Score	| 3.8946
  Crash		| -3.6171
  Polar		| 1.7524
  FragIndex	| 1
  FragRMSD	| 1.209

