@<TRIPOS>MOLECULE
BindingDB_50314534
 69 70 0 0 0
SMALL
NO_CHARGES


@<TRIPOS>ATOM
1    C        14.7978    7.9578   13.9447  C     
2    C        16.0032    8.4908   13.4363  C     
3    C        16.0174    9.4264   12.3877  C     
4    C        14.8059    9.8962   11.8487  C     
5    C        13.5921    9.4065   12.3663  C     
6    C        13.5878    8.4241   13.3746  C     
7    C        14.7996    7.1167   15.1814  C     
8    S        14.8106   11.1031   10.5944  S     
9    N        13.6580   10.8914    9.3894  N     
10   O        14.4607   12.4875   11.2953  O     
11   O        16.2443   11.3206    9.9413  O     
12   C        15.9729    6.1261   15.4054  C     
13   N        15.5637    4.7915   15.7002  N     
14   S        16.5919    3.4790   15.4266  S     
15   C        17.7338    3.8086   14.0569  C     
16   O        18.5630    4.8698   14.5517  O     
17   C        19.4417    5.5125   13.6153  C     
18   C        18.5802    6.1182   12.4762  C     
19   C        17.8131    4.9862   11.7326  C     
20   C        16.9627    4.1354   12.7341  C     
21   O        16.5268    2.8446   12.2800  O     
22   O        19.3072    7.0153   11.6224  O     
23   O        16.9555    5.6374   10.7783  O     
24   C        20.2361    6.5648   14.4217  C     
25   O        19.3435    7.4784   15.0704  O     
26   C        19.3599    8.8349   15.0759  C     
27   C        18.3373    9.5618   15.8329  C     
28   O        20.3174    9.5353   14.4282  O     
29   C        20.6040    7.0148   11.2288  C     
30   C        21.0754    8.0952   10.3552  C     
31   O        21.4518    6.0378   11.6153  O     
32   C        17.2737    6.1826    9.5729  C     
33   C        16.2512    6.9167    8.8193  C     
34   O        18.5386    6.1486    9.0936  O     
35   C        16.4510    2.1871   11.0973  C     
36   C        16.1856    0.7469   11.1187  C     
37   O        16.6987    2.7817    9.9113  O     
38   O        17.3762    3.1066   16.7609  O     
39   O        15.7015    2.1998   15.1043  O     
40   H        16.8901    8.2337   13.8579  H     
41   H        16.9138    9.7860   12.0496  H     
42   H        12.7019    9.7757   12.0258  H     
43   H        12.6868    8.0962   13.7242  H     
44   H        14.7976    7.8157   16.0228  H     
45   H        13.8789    6.5384   15.2585  H     
46   H        12.9202   11.5167    9.3090  H     
47   H        13.7137   10.1286    8.7928  H     
48   H        16.6390    6.1432   14.5441  H     
49   H        16.5459    6.4874   16.2615  H     
50   H        14.8393    4.6661   16.3345  H     
51   H        18.3680    2.9283   13.9160  H     
52   H        20.1514    4.7882   13.2031  H     
53   H        17.8300    6.7470   12.9448  H     
54   H        18.5373    4.3354   11.2364  H     
55   H        16.0691    4.7185   12.9697  H     
56   H        20.7974    6.0509   15.2047  H     
57   H        20.9527    7.0785   13.7758  H     
58   H        17.5907    8.8722   16.2359  H     
59   H        17.8404   10.2779   15.1794  H     
60   H        18.8097   10.1045   16.6530  H     
61   H        20.4235    8.1756    9.4853  H     
62   H        22.0937    7.9042   10.0175  H     
63   H        21.0556    9.0387   10.9031  H     
64   H        16.1681    6.5079    7.8120  H     
65   H        16.5360    7.9675    8.7532  H     
66   H        15.2800    6.8451    9.3131  H     
67   H        16.1000    0.3830   12.1436  H     
68   H        17.0142    0.2248   10.6388  H     
69   H        15.2598    0.5303   10.5837  H     
@<TRIPOS>BOND
     1    1    2 2
     2    1    6 1
     3    1    7 1
     4    2    3 1
     5    3    4 2
     6    4    5 1
     7    4    8 1
     8    5    6 2
     9    7   12 1
    10    8    9 am
    11    8   10 2
    12    8   11 2
    13   12   13 1
    14   13   14 1
    15   15   14 1
    16   14   38 2
    17   14   39 2
    18   15   16 1
    19   15   20 1
    20   16   17 1
    21   17   18 1
    22   17   24 1
    23   18   19 1
    24   18   22 1
    25   19   20 1
    26   19   23 1
    27   20   21 1
    28   21   35 1
    29   22   29 1
    30   23   32 1
    31   24   25 1
    32   25   26 1
    33   26   27 1
    34   26   28 2
    35   29   30 1
    36   29   31 2
    37   32   33 1
    38   32   34 2
    39   35   36 1
    40   35   37 2
    41    2   40 1
    42    3   41 1
    43    5   42 1
    44    6   43 1
    45    7   44 1
    46    7   45 1
    47    9   46 1
    48    9   47 1
    49   12   48 1
    50   12   49 1
    51   13   50 1
    52   15   51 1
    53   17   52 1
    54   18   53 1
    55   19   54 1
    56   20   55 1
    57   24   56 1
    58   24   57 1
    59   27   58 1
    60   27   59 1
    61   27   60 1
    62   30   61 1
    63   30   62 1
    64   30   63 1
    65   33   64 1
    66   33   65 1
    67   33   66 1
    68   36   67 1
    69   36   68 1
    70   36   69 1
@<TRIPOS>PROPERTY_DATA
  Total_Score	| 5.6518
  Crash		| -4.5443
  Polar		| 3.5394
  FragIndex	| 1
  FragRMSD	| 1.360

