@<TRIPOS>MOLECULE
BindingDB_50299582
 49 50 0 0 0
SMALL
NO_CHARGES


@<TRIPOS>ATOM
1    C        19.1890    5.4720   13.6682  C     
2    C        18.4824    6.2246   12.4895  C     
3    C        17.4671    5.2499   11.8124  C     
4    C        16.5073    4.5985   12.8647  C     
5    C        17.3138    3.9617   14.0339  C     
6    O        18.2190    4.9352   14.5958  O     
7    S        16.3070    3.3903   15.4335  S     
8    N        15.0066    4.4056   15.7603  N     
9    O        15.7340    1.9252   15.1997  O     
10   O        17.2125    3.3560   16.7434  O     
11   O        15.6685    3.6403   12.2362  O     
12   O        16.6916    5.9596   10.8459  O     
13   C        20.1521    6.3753   14.4824  C     
14   O        19.5510    7.6305   14.8225  O     
15   O        19.5095    6.6958   11.5836  O     
16   C        20.1036    9.6641   12.1422  C     
17   C        21.2143   10.0121   11.1168  C     
18   C        21.6366    8.7331   10.3460  C     
19   C        20.4116    8.0352    9.6983  C     
20   C        19.2556    7.8264   10.7271  C     
21   O        18.9822    9.0342   11.4743  O     
22   O        20.7884    6.7822    9.1379  O     
23   O        22.6096    9.0609    9.3435  O     
24   C        19.5999   10.9000   12.9266  C     
25   O        19.1296   11.9351   12.0684  O     
26   O        22.3621   10.5824   11.7516  O     
27   H        19.7852    4.6502   13.2487  H     
28   H        17.9296    7.0695   12.9121  H     
29   H        18.0139    4.4657   11.2927  H     
30   H        15.8670    5.3824   13.2791  H     
31   H        17.8813    3.0982   13.6720  H     
32   H        14.3330    4.1282   16.4057  H     
33   H        14.8500    5.1780   15.1966  H     
34   H        16.1421    2.7736   12.3012  H     
35   H        16.2037    5.2745   10.3337  H     
36   H        20.4365    5.8662   15.4030  H     
37   H        21.0593    6.5638   13.9001  H     
38   H        18.6854    7.3954   15.2334  H     
39   H        20.5120    8.9617   12.8764  H     
40   H        20.8452   10.7479   10.3987  H     
41   H        22.1083    8.0328   11.0401  H     
42   H        20.0315    8.6698    8.8904  H     
43   H        18.3569    7.6176   10.1501  H     
44   H        21.3621    7.0074    8.3717  H     
45   H        22.1549    9.6758    8.7300  H     
46   H        18.7856   10.5932   13.5918  H     
47   H        20.4110   11.3042   13.5402  H     
48   H        18.2370   11.6434   11.7790  H     
49   H        22.6379    9.9301   12.4267  H     
@<TRIPOS>BOND
     1    1    2 1
     2    1    6 1
     3    1   13 1
     4    2    3 1
     5    2   15 1
     6    3    4 1
     7    3   12 1
     8    4    5 1
     9    4   11 1
    10    5    6 1
    11    5    7 1
    12    7    8 am
    13    7    9 2
    14    7   10 2
    15   13   14 1
    16   15   20 1
    17   16   17 1
    18   16   21 1
    19   16   24 1
    20   17   18 1
    21   17   26 1
    22   18   19 1
    23   18   23 1
    24   19   20 1
    25   19   22 1
    26   20   21 1
    27   24   25 1
    28    1   27 1
    29    2   28 1
    30    3   29 1
    31    4   30 1
    32    5   31 1
    33    8   32 1
    34    8   33 1
    35   11   34 1
    36   12   35 1
    37   13   36 1
    38   13   37 1
    39   14   38 1
    40   16   39 1
    41   17   40 1
    42   18   41 1
    43   19   42 1
    44   20   43 1
    45   22   44 1
    46   23   45 1
    47   24   46 1
    48   24   47 1
    49   25   48 1
    50   26   49 1
@<TRIPOS>PROPERTY_DATA
  Total_Score	| 2.3562
  Crash		| -0.8179
  Polar		| 4.3261
  FragIndex	| 1
  FragRMSD	| 1.183

