@<TRIPOS>MOLECULE
BindingDB_50314541
 69 70 0 0 0
SMALL
NO_CHARGES


@<TRIPOS>ATOM
1    C        14.9381    7.9802   13.4574  C     
2    C        16.0313    8.3381   12.6364  C     
3    C        15.8987    9.3193   11.6332  C     
4    C        14.6629    9.9742   11.4440  C     
5    C        13.5541    9.6036   12.2373  C     
6    C        13.6797    8.5933   13.2093  C     
7    C        15.1196    7.0107   14.5725  C     
8    S        14.5394   11.2877   10.3024  S     
9    N        14.7860   12.7827   11.0276  N     
10   O        15.5465   11.1544    9.0736  O     
11   O        13.1002   11.2867    9.6254  O     
12   C        15.1300    5.5431   14.0918  C     
13   N        15.5938    4.6890   15.1237  N     
14   S        16.7113    3.4615   14.8588  S     
15   C        18.1244    3.8757   13.7999  C     
16   O        18.7037    5.0590   14.3423  O     
17   C        19.9192    5.4987   13.7029  C     
18   C        19.7113    5.8071   12.1856  C     
19   C        18.9375    4.6612   11.4692  C     
20   C        17.7511    4.0752   12.3060  C     
21   O        17.4308    2.7710   11.7877  O     
22   O        19.0171    7.0491   12.0167  O     
23   O        18.4370    5.2167   10.2474  O     
24   C        20.4359    6.7144   14.5132  C     
25   O        19.3587    7.6205   14.7737  O     
26   C        19.4398    8.9033   15.2160  C     
27   C        18.1917    9.6327   15.4462  C     
28   O        20.6354    9.5220   15.3891  O     
29   C        19.4613    8.2719   11.5849  C     
30   C        20.8543    8.5697   11.1853  C     
31   O        18.5289    9.2521   11.5171  O     
32   C        18.8448    5.0396    8.9649  C     
33   C        18.2671    5.9358    7.9615  C     
34   O        19.8611    4.2049    8.6405  O     
35   C        16.2892    2.3238   11.2335  C     
36   C        16.2190    0.8931   10.9138  C     
37   O        15.1888    3.0980   11.1289  O     
38   O        17.2658    3.1255   16.3130  O     
39   O        15.9204    2.1679   14.3753  O     
40   H        16.9353    7.8846   12.7669  H     
41   H        16.6943    9.5380   11.0333  H     
42   H        12.6499   10.0651   12.1130  H     
43   H        12.8624    8.3475   13.7694  H     
44   H        16.0648    7.2427   15.0516  H     
45   H        14.3387    7.1357   15.3276  H     
46   H        14.0525   13.1989   11.5174  H     
47   H        15.6851   13.1010   11.1757  H     
48   H        14.1291    5.2309   13.7979  H     
49   H        15.7592    5.4580   13.2168  H     
50   H        15.2342    4.7972   16.0152  H     
51   H        18.8175    3.0393   13.8710  H     
52   H        20.6767    4.7070   13.7707  H     
53   H        20.7060    5.8783   11.7252  H     
54   H        19.6544    3.8605   11.2678  H     
55   H        16.8980    4.7508   12.2117  H     
56   H        20.8219    6.3588   15.4734  H     
57   H        21.2489    7.2039   13.9753  H     
58   H        17.5742    9.5809   14.5488  H     
59   H        18.3964   10.6799   15.6634  H     
60   H        17.6514    9.1979   16.2891  H     
61   H        21.5298    8.3967   12.0247  H     
62   H        20.9634    9.6129   10.8697  H     
63   H        21.1547    7.9290   10.3541  H     
64   H        17.1795    5.8240    7.9434  H     
65   H        18.6660    5.7134    6.9699  H     
66   H        18.5116    6.9693    8.2143  H     
67   H        16.9748    0.6832   10.1531  H     
68   H        15.2273    0.6262   10.5323  H     
69   H        16.4318    0.2896   11.7992  H     
@<TRIPOS>BOND
     1    1    2 2
     2    1    6 1
     3    1    7 1
     4    2    3 1
     5    3    4 2
     6    4    5 1
     7    4    8 1
     8    5    6 2
     9    7   12 1
    10    8    9 am
    11    8   10 2
    12    8   11 2
    13   12   13 1
    14   13   14 1
    15   15   14 1
    16   14   38 2
    17   14   39 2
    18   15   16 1
    19   15   20 1
    20   16   17 1
    21   17   18 1
    22   17   24 1
    23   18   19 1
    24   18   22 1
    25   19   20 1
    26   19   23 1
    27   20   21 1
    28   21   35 1
    29   22   29 1
    30   23   32 1
    31   24   25 1
    32   25   26 1
    33   26   27 1
    34   26   28 2
    35   29   30 1
    36   29   31 2
    37   32   33 1
    38   32   34 2
    39   35   36 1
    40   35   37 2
    41    2   40 1
    42    3   41 1
    43    5   42 1
    44    6   43 1
    45    7   44 1
    46    7   45 1
    47    9   46 1
    48    9   47 1
    49   12   48 1
    50   12   49 1
    51   13   50 1
    52   15   51 1
    53   17   52 1
    54   18   53 1
    55   19   54 1
    56   20   55 1
    57   24   56 1
    58   24   57 1
    59   27   58 1
    60   27   59 1
    61   27   60 1
    62   30   61 1
    63   30   62 1
    64   30   63 1
    65   33   64 1
    66   33   65 1
    67   33   66 1
    68   36   67 1
    69   36   68 1
    70   36   69 1
@<TRIPOS>PROPERTY_DATA
  Total_Score	| 4.2451
  Crash		| -6.5418
  Polar		| 2.9772
  FragIndex	| 1
  FragRMSD	| 1.319

