@<TRIPOS>MOLECULE
BindingDB_50314532
 66 67 0 0 0
SMALL
NO_CHARGES


@<TRIPOS>ATOM
1    C        14.9828    7.3657   14.1446  C     
2    C        13.7446    7.8861   13.6980  C     
3    C        13.6928    8.8957   12.7187  C     
4    C        14.8779    9.3834   12.1383  C     
5    C        16.1135    8.8698   12.5756  C     
6    C        16.1660    7.8680   13.5598  C     
7    C        15.0631    6.3397   15.2173  C     
8    N        15.1326    5.0311   14.6596  N     
9    S        14.8279   10.5907   10.8842  S     
10   N        15.0773   12.1597   11.4271  N     
11   O        15.9395   10.3036    9.7840  O     
12   O        13.4562   10.5658   10.0794  O     
13   S        16.4079    3.9579   14.9151  S     
14   C        17.8263    4.2123   13.8216  C     
15   O        18.5007    5.3864   14.2842  O     
16   C        19.7251    5.6838   13.5879  C     
17   C        19.4849    5.9927   12.0813  C     
18   C        18.5232    4.9515   11.4211  C     
19   C        17.4054    4.3593   12.3354  C     
20   O        17.1316    3.0310   11.8730  O     
21   O        19.0378    7.3481   11.8745  O     
22   O        17.8710    5.5386   10.2807  O     
23   C        20.4397    6.8042   14.3814  C     
24   O        19.5141    7.6550   15.0746  O     
25   C        19.2142    8.9600   14.8517  C     
26   C        18.2694    9.6292   15.7501  C     
27   O        19.8083    9.6637   13.8598  O     
28   C        19.6869    8.3855   11.2669  C     
29   C        21.0421    8.3055   10.6905  C     
30   O        19.0475    9.5744   11.2112  O     
31   C        18.2770    5.5585    8.9859  C     
32   C        17.4948    6.3234    8.0092  C     
33   O        19.4061    4.9234    8.5976  O     
34   C        16.0419    2.4873   11.2869  C     
35   C        16.1086    1.0665   10.9389  C     
36   O        14.9361    3.2203   11.0328  O     
37   O        16.8526    4.0100   16.4418  O     
38   O        15.8410    2.4798   14.7614  O     
39   H        12.8667    7.5259   14.0716  H     
40   H        12.7852    9.2633   12.4275  H     
41   H        16.9830    9.2256   12.1835  H     
42   H        17.0766    7.5188   13.8603  H     
43   H        15.9198    6.5559   15.8619  H     
44   H        14.1786    6.3707   15.8540  H     
45   H        14.4077    4.7443   14.0813  H     
46   H        14.3174   12.7246   11.6404  H     
47   H        15.9735   12.5316   11.4344  H     
48   H        18.4812    3.3448   13.9440  H     
49   H        20.3841    4.8098   13.6259  H     
50   H        20.4535    5.8706   11.5880  H     
51   H        19.1424    4.1135   11.0795  H     
52   H        16.5194    4.9978   12.2675  H     
53   H        21.0528    6.3324   15.1529  H     
54   H        21.1043    7.3694   13.7221  H     
55   H        17.3974    8.9935   15.9152  H     
56   H        17.9427   10.5812   15.3270  H     
57   H        18.7597    9.8214   16.7073  H     
58   H        21.7553    8.0299   11.4674  H     
59   H        21.3436    9.2662   10.2682  H     
60   H        21.0635    7.5587    9.8971  H     
61   H        16.4615    5.9754    8.0052  H     
62   H        17.9113    6.2109    7.0059  H     
63   H        17.5131    7.3803    8.2841  H     
64   H        16.9560    0.8987   10.2732  H     
65   H        15.1953    0.7463   10.4379  H     
66   H        16.2434    0.4737   11.8447  H     
@<TRIPOS>BOND
     1    1    2 2
     2    1    6 1
     3    1    7 1
     4    2    3 1
     5    3    4 2
     6    4    5 1
     7    4    9 1
     8    5    6 2
     9    7    8 1
    10    8   13 1
    11    9   10 am
    12    9   11 2
    13    9   12 2
    14   14   13 1
    15   13   37 2
    16   13   38 2
    17   14   15 1
    18   14   19 1
    19   15   16 1
    20   16   17 1
    21   16   23 1
    22   17   18 1
    23   17   21 1
    24   18   19 1
    25   18   22 1
    26   19   20 1
    27   20   34 1
    28   21   28 1
    29   22   31 1
    30   23   24 1
    31   24   25 1
    32   25   26 1
    33   25   27 2
    34   28   29 1
    35   28   30 2
    36   31   32 1
    37   31   33 2
    38   34   35 1
    39   34   36 2
    40    2   39 1
    41    3   40 1
    42    5   41 1
    43    6   42 1
    44    7   43 1
    45    7   44 1
    46    8   45 1
    47   10   46 1
    48   10   47 1
    49   14   48 1
    50   16   49 1
    51   17   50 1
    52   18   51 1
    53   19   52 1
    54   23   53 1
    55   23   54 1
    56   26   55 1
    57   26   56 1
    58   26   57 1
    59   29   58 1
    60   29   59 1
    61   29   60 1
    62   32   61 1
    63   32   62 1
    64   32   63 1
    65   35   64 1
    66   35   65 1
    67   35   66 1
@<TRIPOS>PROPERTY_DATA
  Total_Score	| 3.0628
  Crash		| -4.7762
  Polar		| 1.9381
  FragIndex	| 1
  FragRMSD	| 1.471

