@<TRIPOS>MOLECULE
BindingDB_50299581
 49 50 0 0 0
SMALL
NO_CHARGES


@<TRIPOS>ATOM
1    C        19.0576    5.5218   13.6268  C     
2    C        18.3394    6.1908   12.4026  C     
3    C        17.2705    5.2188   11.8064  C     
4    C        16.3532    4.5867   12.8944  C     
5    C        17.2229    3.9221   13.9933  C     
6    O        18.1074    4.9093   14.5197  O     
7    S        16.3167    3.3081   15.4360  S     
8    N        14.9985    4.2756   15.8305  N     
9    O        15.7738    1.8300   15.2207  O     
10   O        17.2851    3.2554   16.6989  O     
11   O        15.4531    3.6528   12.3044  O     
12   O        16.4853    5.9252   10.8428  O     
13   C        19.8151    6.4780   14.5862  C     
14   O        20.8778    7.1942   13.9884  O     
15   O        19.2351    6.4844   11.2961  O     
16   C        20.3143    9.9525   11.9688  C     
17   C        21.1229   10.2962   10.6758  C     
18   C        21.8519    9.0317   10.1405  C     
19   C        20.8822    7.8137   10.0239  C     
20   C        20.1317    7.6129   11.3703  C     
21   O        19.4344    8.8214   11.7327  O     
22   O        21.6027    6.6240    9.7047  O     
23   O        22.4641    9.3380    8.8803  O     
24   C        19.4784   11.1419   12.4964  C     
25   O        20.2650   12.3254   12.5970  O     
26   O        20.2687   10.8410    9.6623  O     
27   H        19.7583    4.7637   13.2612  H     
28   H        17.8181    7.0897   12.7472  H     
29   H        17.7855    4.4087   11.2813  H     
30   H        15.7512    5.3829   13.3409  H     
31   H        17.7939    3.0883   13.5780  H     
32   H        14.2820    3.9140   16.3864  H     
33   H        14.9446    5.1848   15.4897  H     
34   H        15.8282    2.7624   12.4858  H     
35   H        16.0549    5.2486   10.2757  H     
36   H        19.1219    7.1929   15.0380  H     
37   H        20.2714    5.8967   15.3921  H     
38   H        21.6185    6.5632   13.9356  H     
39   H        21.0238    9.6903   12.7670  H     
40   H        21.8714   11.0566   10.9149  H     
41   H        22.6544    8.7722   10.8416  H     
42   H        20.1573    7.9983    9.2239  H     
43   H        20.8855    7.3991   12.1179  H     
44   H        21.8204    6.6917    8.7436  H     
45   H        23.1194    8.6238    8.7216  H     
46   H        18.6314   11.3414   11.8355  H     
47   H        19.0886   10.9032   13.4893  H     
48   H        20.9007   12.1459   13.3219  H     
49   H        19.5491   10.1846    9.5339  H     
@<TRIPOS>BOND
     1    1    2 1
     2    1    6 1
     3    1   13 1
     4    2    3 1
     5    2   15 1
     6    3    4 1
     7    3   12 1
     8    4    5 1
     9    4   11 1
    10    5    6 1
    11    5    7 1
    12    7    8 am
    13    7    9 2
    14    7   10 2
    15   13   14 1
    16   15   20 1
    17   16   17 1
    18   16   21 1
    19   16   24 1
    20   17   18 1
    21   17   26 1
    22   18   19 1
    23   18   23 1
    24   19   20 1
    25   19   22 1
    26   20   21 1
    27   24   25 1
    28    1   27 1
    29    2   28 1
    30    3   29 1
    31    4   30 1
    32    5   31 1
    33    8   32 1
    34    8   33 1
    35   11   34 1
    36   12   35 1
    37   13   36 1
    38   13   37 1
    39   14   38 1
    40   16   39 1
    41   17   40 1
    42   18   41 1
    43   19   42 1
    44   20   43 1
    45   22   44 1
    46   23   45 1
    47   24   46 1
    48   24   47 1
    49   25   48 1
    50   26   49 1
@<TRIPOS>PROPERTY_DATA
  Total_Score	| 3.2442
  Crash		| -1.2843
  Polar		| 5.8662
  FragIndex	| 1
  FragRMSD	| 0.933

