@<TRIPOS>MOLECULE
BindingDB_50254953
 47 49 0 0 0
SMALL
NO_CHARGES


@<TRIPOS>ATOM
1    C        32.5718   40.2160   37.2288  C     
2    C        33.1870   38.9392   37.1962  C     
3    C        34.4094   38.7673   36.4984  C     
4    C        35.0507   39.8618   35.8622  C     
5    C        33.2007   41.2876   36.5810  C     
6    C        34.4103   41.1160   35.9211  C     
7    N        34.7546   42.3032   35.4091  N     
8    N        33.8492   43.1921   35.6830  N     
9    C        32.8652   42.6209   36.4053  C     
10   N        31.7592   43.2481   36.8385  N     
11   C        32.5141   37.8465   37.7873  C     
12   C        32.2163   37.8580   39.1736  C     
13   C        31.3491   36.9002   39.7237  C     
14   C        30.7580   35.9151   38.9035  C     
15   C        31.1000   35.8616   37.5328  C     
16   C        31.9746   36.8129   36.9829  C     
17   S        29.4527   34.9404   39.5141  S     
18   N        27.9437   35.4749   38.9630  N     
19   C        26.8508   35.9969   39.7421  C     
20   C        26.0011   36.8727   38.7705  C     
21   C        25.9748   34.8294   40.2880  C     
22   C        27.3252   36.9136   40.9190  C     
23   O        29.6059   33.4098   39.1149  O     
24   O        29.5216   34.9353   41.1052  O     
25   C        36.3303   39.6701   35.1545  C     
26   H        31.6731   40.3631   37.6844  H     
27   H        34.8421   37.8410   36.4642  H     
28   H        35.5651   42.4764   34.8993  H     
29   H        31.6158   44.1759   36.6011  H     
30   H        31.0926   42.7653   37.3550  H     
31   H        32.5725   38.6070   39.7760  H     
32   H        31.1020   36.9629   40.7163  H     
33   H        30.6720   35.1617   36.9143  H     
34   H        32.1569   36.7983   35.9747  H     
35   H        27.7562   35.2894   38.0268  H     
36   H        26.6004   37.6926   38.3568  H     
37   H        25.1380   37.3080   39.2841  H     
38   H        25.6315   36.2704   37.9348  H     
39   H        25.6135   34.2129   39.4630  H     
40   H        25.1106   35.2157   40.8389  H     
41   H        26.5546   34.1912   40.9587  H     
42   H        27.7961   36.3361   41.7123  H     
43   H        26.4807   37.4392   41.3687  H     
44   H        28.0376   37.6575   40.5641  H     
45   H        37.0949   39.3778   35.8718  H     
46   H        36.6677   40.5748   34.6493  H     
47   H        36.2174   38.8839   34.4069  H     
@<TRIPOS>BOND
     1    1    2 2
     2    1    5 1
     3    2    3 1
     4    2   11 1
     5    3    4 2
     6    4    6 1
     7    4   25 1
     8    5    6 2
     9    5    9 1
    10    6    7 1
    11    7    8 1
    12    8    9 2
    13    9   10 1
    14   11   12 2
    15   11   16 1
    16   12   13 1
    17   13   14 2
    18   14   15 1
    19   14   17 1
    20   15   16 2
    21   17   18 1
    22   17   23 2
    23   17   24 2
    24   18   19 1
    25   19   20 1
    26   19   21 1
    27   19   22 1
    28    1   26 1
    29    3   27 1
    30    7   28 1
    31   10   29 1
    32   10   30 1
    33   12   31 1
    34   13   32 1
    35   15   33 1
    36   16   34 1
    37   18   35 1
    38   20   36 1
    39   20   37 1
    40   20   38 1
    41   21   39 1
    42   21   40 1
    43   21   41 1
    44   22   42 1
    45   22   43 1
    46   22   44 1
    47   25   45 1
    48   25   46 1
    49   25   47 1
@<TRIPOS>PROPERTY_DATA
  Total_Score	| 7.7776
  Crash		| -2.0692
  Polar		| 3.4066
  FragIndex	| 1
  FragRMSD	| 0.934

