@<TRIPOS>MOLECULE
BindingDB_50254866
 26 28 0 0 0
SMALL
NO_CHARGES


@<TRIPOS>ATOM
1    C        32.7253   39.8316   37.0527  C     
2    C        33.4801   38.6276   37.1065  C     
3    C        34.7667   38.6016   36.4963  C     
4    C        35.3036   39.7408   35.8624  C     
5    C        33.2688   40.9563   36.4137  C     
6    C        34.5329   40.9092   35.8383  C     
7    N        34.7859   42.1214   35.3285  N     
8    N        33.7807   42.9162   35.5390  N     
9    C        32.8151   42.2520   36.2034  C     
10   N        31.6306   42.7679   36.5753  N     
11   C        32.9932   37.4888   37.8059  C     
12   C        33.1294   36.1875   37.2696  C     
13   C        32.7189   35.0704   38.0221  C     
14   N        32.1862   35.2444   39.2563  N     
15   C        32.0177   36.4706   39.8045  C     
16   C        32.4183   37.6210   39.0951  C     
17   H        31.7908   39.8950   37.4658  H     
18   H        35.3459   37.7652   36.5391  H     
19   H        36.2348   39.7188   35.4354  H     
20   H        35.6074   42.3701   34.8725  H     
21   H        31.4082   43.6807   36.3289  H     
22   H        30.9830   42.2230   37.0541  H     
23   H        33.5227   36.0389   36.3381  H     
24   H        32.8253   34.1282   37.6454  H     
25   H        31.6169   36.5604   40.7397  H     
26   H        32.3111   38.5404   39.5394  H     
@<TRIPOS>BOND
     1    1    2 2
     2    1    5 1
     3    2    3 1
     4    2   11 1
     5    3    4 2
     6    4    6 1
     7    5    6 2
     8    5    9 1
     9    6    7 1
    10    7    8 1
    11    8    9 2
    12    9   10 1
    13   11   12 2
    14   11   16 1
    15   12   13 1
    16   13   14 2
    17   14   15 1
    18   15   16 2
    19    1   17 1
    20    3   18 1
    21    4   19 1
    22    7   20 1
    23   10   21 1
    24   10   22 1
    25   12   23 1
    26   13   24 1
    27   15   25 1
    28   16   26 1
@<TRIPOS>PROPERTY_DATA
  Total_Score	| 7.6550
  Crash		| -0.2688
  Polar		| 2.9968
  FragIndex	| 1
  FragRMSD	| 0.667

