@<TRIPOS>MOLECULE
BindingDB_50254869
 27 29 0 0 0
SMALL
NO_CHARGES


@<TRIPOS>ATOM
1    C        32.6310   40.0150   37.1197  C     
2    C        33.3112   38.7696   37.1097  C     
3    C        34.5806   38.6707   36.4784  C     
4    C        35.1634   39.7894   35.8492  C     
5    C        33.2279   41.1218   36.4902  C     
6    C        34.4674   41.0051   35.8714  C     
7    N        34.7791   42.2032   35.3615  N     
8    N        33.8278   43.0486   35.6085  N     
9    C        32.8428   42.4408   36.3008  C     
10   N        31.7126   43.0383   36.7095  N     
11   C        32.7424   37.6439   37.7597  C     
12   C        32.5958   37.6735   39.1614  C     
13   C        32.1043   36.5607   39.8640  C     
14   C        31.7417   35.3955   39.1761  C     
15   C        31.8313   35.3658   37.7771  C     
16   C        32.3097   36.4841   37.0636  C     
17   Cl       32.2291   36.4224   35.3705  Cl    
18   H        31.7202   40.1140   37.5723  H     
19   H        35.1013   37.7884   36.4898  H     
20   H        36.0709   39.7189   35.3885  H     
21   H        35.5945   42.4126   34.8687  H     
22   H        31.5363   43.9568   36.4545  H     
23   H        31.0581   42.5426   37.2268  H     
24   H        32.8526   38.5093   39.6929  H     
25   H        32.0042   36.6049   40.8767  H     
26   H        31.3823   34.5863   39.6866  H     
27   H        31.5249   34.5284   37.2771  H     
@<TRIPOS>BOND
     1    1    2 2
     2    1    5 1
     3    2    3 1
     4    2   11 1
     5    3    4 2
     6    4    6 1
     7    5    6 2
     8    5    9 1
     9    6    7 1
    10    7    8 1
    11    8    9 2
    12    9   10 1
    13   11   12 2
    14   11   16 1
    15   12   13 1
    16   13   14 2
    17   14   15 1
    18   15   16 2
    19   16   17 1
    20    1   18 1
    21    3   19 1
    22    4   20 1
    23    7   21 1
    24   10   22 1
    25   10   23 1
    26   12   24 1
    27   13   25 1
    28   14   26 1
    29   15   27 1
@<TRIPOS>PROPERTY_DATA
  Total_Score	| 6.8997
  Crash		| -0.7885
  Polar		| 2.9318
  FragIndex	| 1
  FragRMSD	| 0.627

