@<TRIPOS>MOLECULE
BindingDB_50254914
 42 45 0 0 0
SMALL
NO_CHARGES


@<TRIPOS>ATOM
1    C        32.6765   40.0531   37.0217  C     
2    C        33.3333   38.7992   37.1389  C     
3    C        34.6517   38.6373   36.6294  C     
4    C        35.3185   39.7178   36.0176  C     
5    C        33.3534   41.1129   36.4074  C     
6    C        34.6481   40.9533   35.9236  C     
7    N        35.0133   42.1396   35.4169  N     
8    N        34.0478   43.0063   35.5119  N     
9    C        32.9901   42.4162   36.1109  C     
10   N        31.7908   42.9812   36.3636  N     
11   C        32.6661   37.7539   37.8142  C     
12   C        32.3286   37.9277   39.1798  C     
13   C        31.4955   37.0107   39.8317  C     
14   C        30.9790   35.9026   39.1242  C     
15   C        31.3321   35.7113   37.7580  C     
16   C        32.1846   36.6209   37.1197  C     
17   C        30.0563   35.0730   39.7135  C     
18   O        30.4674   33.9125   39.8108  O     
19   N        28.8703   35.4427   40.2295  N     
20   C        28.0023   34.4752   40.8847  C     
21   C        26.7303   34.2990   40.0176  C     
22   O        26.0883   35.5748   39.8087  O     
23   C        26.9528   36.5462   39.1799  C     
24   C        28.2600   36.7437   40.0034  C     
25   H        31.7187   40.1940   37.3667  H     
26   H        35.1311   37.7339   36.7145  H     
27   H        36.2631   39.6107   35.6390  H     
28   H        35.8864   42.3216   35.0196  H     
29   H        31.6045   43.8756   36.0432  H     
30   H        31.0939   42.4791   36.8168  H     
31   H        32.6525   38.7485   39.6985  H     
32   H        31.2334   37.1705   40.8099  H     
33   H        30.9564   34.9170   37.2249  H     
34   H        32.4058   36.4917   36.1259  H     
35   H        28.4475   33.4878   41.0362  H     
36   H        27.7137   34.8618   41.8670  H     
37   H        26.9946   33.8490   39.0548  H     
38   H        26.0375   33.6193   40.5155  H     
39   H        27.2110   36.2110   38.1693  H     
40   H        26.4138   37.4939   39.1027  H     
41   H        28.0156   37.1991   40.9649  H     
42   H        28.8897   37.4538   39.4627  H     
@<TRIPOS>BOND
     1    1    2 2
     2    1    5 1
     3    2    3 1
     4    2   11 1
     5    3    4 2
     6    4    6 1
     7    5    6 2
     8    5    9 1
     9    6    7 1
    10    7    8 1
    11    8    9 2
    12    9   10 1
    13   11   12 2
    14   11   16 1
    15   12   13 1
    16   13   14 2
    17   14   15 1
    18   14   17 1
    19   15   16 2
    20   17   18 2
    21   17   19 am
    22   19   20 1
    23   19   24 1
    24   20   21 1
    25   21   22 1
    26   22   23 1
    27   23   24 1
    28    1   25 1
    29    3   26 1
    30    4   27 1
    31    7   28 1
    32   10   29 1
    33   10   30 1
    34   12   31 1
    35   13   32 1
    36   15   33 1
    37   16   34 1
    38   20   35 1
    39   20   36 1
    40   21   37 1
    41   21   38 1
    42   23   39 1
    43   23   40 1
    44   24   41 1
    45   24   42 1
@<TRIPOS>PROPERTY_DATA
  Total_Score	| 6.6002
  Crash		| -1.7588
  Polar		| 3.0698
  FragIndex	| 1
  FragRMSD	| 0.960

