@<TRIPOS>MOLECULE
BindingDB_50254909
 45 48 0 0 0
SMALL
NO_CHARGES


@<TRIPOS>ATOM
1    C        32.7550   40.0932   37.1731  C     
2    C        33.4065   38.8322   37.2212  C     
3    C        34.6624   38.6771   36.5756  C     
4    C        35.2791   39.7650   35.9213  C     
5    C        33.3758   41.1608   36.5122  C     
6    C        34.6130   41.0006   35.9033  C     
7    N        34.9436   42.1826   35.3676  N     
8    N        34.0054   43.0548   35.5891  N     
9    C        33.0107   42.4800   36.2907  C     
10   N        31.8780   43.0874   36.6813  N     
11   C        32.7625   37.7543   37.8828  C     
12   C        32.5216   36.5289   37.2289  C     
13   C        31.6300   35.5911   37.7831  C     
14   C        30.9112   35.8459   38.9898  C     
15   C        31.3345   36.9970   39.7127  C     
16   C        32.2248   37.9361   39.1732  C     
17   N        29.8268   35.0773   39.4038  N     
18   C        29.5219   33.8065   38.7599  C     
19   C        28.2803   32.9908   39.2336  C     
20   N        27.7864   33.3572   40.5875  N     
21   C        27.6079   34.8259   40.6825  C     
22   C        28.9744   35.5248   40.4987  C     
23   C        26.5692   32.6011   40.9965  C     
24   H        31.8352   40.2377   37.5973  H     
25   H        35.1471   37.7761   36.5971  H     
26   H        36.1912   39.6581   35.4708  H     
27   H        35.7636   42.3615   34.8795  H     
28   H        31.7132   44.0080   36.4242  H     
29   H        31.2063   42.5965   37.1801  H     
30   H        32.9195   36.3477   36.3023  H     
31   H        31.4527   34.7560   37.2250  H     
32   H        30.9567   37.2134   40.6345  H     
33   H        32.4247   38.7883   39.7053  H     
34   H        29.3759   33.9791   37.6892  H     
35   H        30.4004   33.1653   38.8759  H     
36   H        27.4764   33.1305   38.5011  H     
37   H        28.5469   31.9263   39.2382  H     
38   H        28.5206   33.1036   41.2464  H     
39   H        26.9013   35.1801   39.9199  H     
40   H        27.2092   35.1014   41.6646  H     
41   H        29.5397   35.3966   41.4216  H     
42   H        28.7422   36.5866   40.3837  H     
43   H        25.7088   32.8642   40.3738  H     
44   H        26.3250   32.8192   42.0386  H     
45   H        26.7437   31.5244   40.9160  H     
@<TRIPOS>BOND
     1    1    2 2
     2    1    5 1
     3    2    3 1
     4    2   11 1
     5    3    4 2
     6    4    6 1
     7    5    6 2
     8    5    9 1
     9    6    7 1
    10    7    8 1
    11    8    9 2
    12    9   10 1
    13   11   12 2
    14   11   16 1
    15   12   13 1
    16   13   14 2
    17   14   15 1
    18   14   17 1
    19   15   16 2
    20   17   18 1
    21   17   22 1
    22   18   19 1
    23   19   20 1
    24   20   21 1
    25   20   23 1
    26   21   22 1
    27    1   24 1
    28    3   25 1
    29    4   26 1
    30    7   27 1
    31   10   28 1
    32   10   29 1
    33   12   30 1
    34   13   31 1
    35   15   32 1
    36   16   33 1
    37   18   34 1
    38   18   35 1
    39   19   36 1
    40   19   37 1
    41   20   38 1
    42   21   39 1
    43   21   40 1
    44   22   41 1
    45   22   42 1
    46   23   43 1
    47   23   44 1
    48   23   45 1
@<TRIPOS>PROPERTY_DATA
  Total_Score	| 8.2176
  Crash		| -2.0759
  Polar		| 4.3397
  FragIndex	| 1
  FragRMSD	| 0.882

