@<TRIPOS>MOLECULE
BindingDB_50254949
 44 47 0 0 0
SMALL
NO_CHARGES


@<TRIPOS>ATOM
1    C        32.5417   40.0275   36.9012  C     
2    C        33.1859   38.7699   36.8878  C     
3    C        34.5186   38.6571   36.4162  C     
4    C        35.2137   39.7942   35.9532  C     
5    C        33.2411   41.1465   36.4211  C     
6    C        34.5463   41.0313   35.9590  C     
7    N        34.9425   42.2424   35.5578  N     
8    N        33.9827   43.1033   35.7270  N     
9    C        32.9110   42.4853   36.2603  C     
10   N        31.7445   43.0773   36.5516  N     
11   C        32.5095   37.6333   37.3837  C     
12   C        32.5417   37.3521   38.7626  C     
13   C        31.8624   36.2334   39.2778  C     
14   C        31.1303   35.3781   38.4238  C     
15   C        31.1126   35.6592   37.0342  C     
16   C        31.7928   36.7742   36.5199  C     
17   C        30.4563   34.1707   38.9801  C     
18   N        29.1796   34.3482   39.7494  N     
19   C        27.9246   34.1528   38.9649  C     
20   C        26.7325   34.0677   39.9531  C     
21   O        26.6575   35.2542   40.7685  O     
22   C        27.8557   35.4961   41.5357  C     
23   C        29.1021   35.5701   40.6098  C     
24   H        31.5786   40.1329   37.2387  H     
25   H        34.9971   37.7507   36.4127  H     
26   H        36.1753   39.7224   35.6204  H     
27   H        35.8133   42.4469   35.1796  H     
28   H        31.6143   44.0145   36.3407  H     
29   H        31.0149   42.5625   36.9310  H     
30   H        33.0592   37.9597   39.4056  H     
31   H        31.9012   36.0513   40.2866  H     
32   H        30.5968   35.0462   36.3921  H     
33   H        31.7604   36.9600   35.5099  H     
34   H        30.3025   33.4350   38.1853  H     
35   H        31.1679   33.6960   39.6552  H     
36   H        29.1870   33.5734   40.4152  H     
37   H        27.7766   34.9777   38.2600  H     
38   H        27.9679   33.2185   38.3956  H     
39   H        25.7960   33.9714   39.4077  H     
40   H        26.8399   33.1827   40.5904  H     
41   H        27.7381   36.4439   42.0666  H     
42   H        27.9878   34.7066   42.2804  H     
43   H        29.9989   35.6499   41.2248  H     
44   H        29.0251   36.4678   39.9902  H     
@<TRIPOS>BOND
     1    1    2 2
     2    1    5 1
     3    2    3 1
     4    2   11 1
     5    3    4 2
     6    4    6 1
     7    5    6 2
     8    5    9 1
     9    6    7 1
    10    7    8 1
    11    8    9 2
    12    9   10 1
    13   11   12 2
    14   11   16 1
    15   12   13 1
    16   13   14 2
    17   14   15 1
    18   14   17 1
    19   15   16 2
    20   17   18 1
    21   18   19 1
    22   18   23 1
    23   19   20 1
    24   20   21 1
    25   21   22 1
    26   22   23 1
    27    1   24 1
    28    3   25 1
    29    4   26 1
    30    7   27 1
    31   10   28 1
    32   10   29 1
    33   12   30 1
    34   13   31 1
    35   15   32 1
    36   16   33 1
    37   17   34 1
    38   17   35 1
    39   18   36 1
    40   19   37 1
    41   19   38 1
    42   20   39 1
    43   20   40 1
    44   22   41 1
    45   22   42 1
    46   23   43 1
    47   23   44 1
@<TRIPOS>PROPERTY_DATA
  Total_Score	| 8.0601
  Crash		| -1.8240
  Polar		| 3.6234
  FragIndex	| 1
  FragRMSD	| 0.994

