@<TRIPOS>MOLECULE
BindingDB_50254913
 45 47 0 0 0
SMALL
NO_CHARGES


@<TRIPOS>ATOM
1    C        29.2780   34.3806   39.6102  C     
2    O        28.8446   33.2388   39.7400  O     
3    N        28.5332   35.4657   39.8276  N     
4    C        27.1747   35.6094   40.3442  C     
5    C        26.3907   36.5005   39.3390  C     
6    C        26.3573   34.2893   40.5937  C     
7    C        27.2949   36.3610   41.7129  C     
8    C        32.7363   40.0981   37.2336  C     
9    C        33.3985   38.8345   37.2471  C     
10   C        34.6773   38.7202   36.6414  C     
11   C        35.3163   39.8311   36.0640  C     
12   C        33.3635   41.1832   36.5920  C     
13   C        34.6344   41.0490   36.0518  C     
14   N        34.9728   42.2207   35.5028  N     
15   N        34.0104   43.0818   35.6530  N     
16   C        32.9957   42.5000   36.3136  C     
17   N        31.8318   43.1129   36.6001  N     
18   C        32.7755   37.6945   37.8109  C     
19   C        32.6294   36.5170   37.0427  C     
20   C        31.9247   35.4149   37.5424  C     
21   C        31.3245   35.4716   38.8192  C     
22   C        31.5421   36.6075   39.6331  C     
23   C        32.2620   37.7076   39.1307  C     
24   N        30.5304   34.4103   39.1649  N     
25   H        28.9442   36.2998   39.5606  H     
26   H        26.8647   37.4726   39.2294  H     
27   H        25.3592   36.6540   39.6875  H     
28   H        26.3591   36.0105   38.3699  H     
29   H        26.1386   33.7892   39.6487  H     
30   H        25.4028   34.5188   41.0638  H     
31   H        26.9065   33.5994   41.2332  H     
32   H        27.9454   35.8003   42.3995  H     
33   H        26.3163   36.4788   42.1921  H     
34   H        27.7320   37.3697   41.5724  H     
35   H        31.7945   40.2098   37.6238  H     
36   H        35.1481   37.8171   36.6161  H     
37   H        36.2416   39.7400   35.6489  H     
38   H        35.8096   42.4031   35.0412  H     
39   H        31.6848   44.0225   36.2706  H     
40   H        31.1396   42.6623   37.1049  H     
41   H        32.9944   36.4673   36.0932  H     
42   H        31.8160   34.5754   36.9627  H     
43   H        31.1757   36.6483   40.5917  H     
44   H        32.3947   38.5277   39.7313  H     
45   H        30.8754   33.5376   38.9172  H     
@<TRIPOS>BOND
     1    1    2 2
     2    1    3 am
     3    1   24 am
     4    3    4 1
     5    4    5 1
     6    4    6 1
     7    4    7 1
     8    8    9 2
     9    8   12 1
    10    9   10 1
    11    9   18 1
    12   10   11 2
    13   11   13 1
    14   12   13 2
    15   12   16 1
    16   13   14 1
    17   14   15 1
    18   15   16 2
    19   16   17 1
    20   18   19 2
    21   18   23 1
    22   19   20 1
    23   20   21 2
    24   21   22 1
    25   21   24 1
    26   22   23 2
    27    3   25 1
    28    5   26 1
    29    5   27 1
    30    5   28 1
    31    6   29 1
    32    6   30 1
    33    6   31 1
    34    7   32 1
    35    7   33 1
    36    7   34 1
    37    8   35 1
    38   10   36 1
    39   11   37 1
    40   14   38 1
    41   17   39 1
    42   17   40 1
    43   19   41 1
    44   20   42 1
    45   22   43 1
    46   23   44 1
    47   24   45 1
@<TRIPOS>PROPERTY_DATA
  Total_Score	| 6.3676
  Crash		| -1.0809
  Polar		| 3.0675
  FragIndex	| 1
  FragRMSD	| 0.694

