@<TRIPOS>MOLECULE
BindingDB_50254950
 36 38 0 0 0
SMALL
NO_CHARGES


@<TRIPOS>ATOM
1    C        32.5593   39.9957   37.0577  C     
2    C        33.2025   38.7360   37.0778  C     
3    C        34.5223   38.6029   36.5721  C     
4    C        35.2055   39.7247   36.0542  C     
5    C        33.2463   41.0908   36.5070  C     
6    C        34.5406   40.9592   36.0176  C     
7    N        34.9041   42.1578   35.5410  N     
8    N        33.9422   43.0160   35.6874  N     
9    C        32.8926   42.4122   36.2797  C     
10   N        31.7153   42.9980   36.5670  N     
11   C        32.4769   37.6071   37.5051  C     
12   C        32.3452   37.2921   38.8758  C     
13   C        31.4937   36.2452   39.2879  C     
14   C        30.7259   35.5325   38.3387  C     
15   C        30.9070   35.8093   36.9675  C     
16   C        31.7743   36.8382   36.5537  C     
17   S        29.5832   34.3091   38.8402  S     
18   O        28.5783   33.8753   37.6789  O     
19   O        30.4536   33.0108   39.1569  O     
20   C        28.6484   34.7441   40.3300  C     
21   C        27.5587   35.8080   40.0614  C     
22   H        31.5917   40.1059   37.3902  H     
23   H        34.9928   37.6956   36.5731  H     
24   H        36.1525   39.6387   35.6825  H     
25   H        35.7544   42.3482   35.1220  H     
26   H        31.5614   43.9205   36.3106  H     
27   H        31.0015   42.4878   36.9895  H     
28   H        32.8512   37.8324   39.5802  H     
29   H        31.3988   36.0533   40.2879  H     
30   H        30.3895   35.2815   36.2553  H     
31   H        31.8492   37.0475   35.5527  H     
32   H        28.1631   33.8306   40.7020  H     
33   H        29.3379   35.1189   41.0895  H     
34   H        27.9975   36.7195   39.6416  H     
35   H        27.0606   36.0586   41.0007  H     
36   H        26.8085   35.4152   39.3628  H     
@<TRIPOS>BOND
     1    1    2 2
     2    1    5 1
     3    2    3 1
     4    2   11 1
     5    3    4 2
     6    4    6 1
     7    5    6 2
     8    5    9 1
     9    6    7 1
    10    7    8 1
    11    8    9 2
    12    9   10 1
    13   11   12 2
    14   11   16 1
    15   12   13 1
    16   13   14 2
    17   14   15 1
    18   14   17 1
    19   15   16 2
    20   17   18 2
    21   17   19 2
    22   17   20 1
    23   20   21 1
    24    1   22 1
    25    3   23 1
    26    4   24 1
    27    7   25 1
    28   10   26 1
    29   10   27 1
    30   12   28 1
    31   13   29 1
    32   15   30 1
    33   16   31 1
    34   20   32 1
    35   20   33 1
    36   21   34 1
    37   21   35 1
    38   21   36 1
@<TRIPOS>PROPERTY_DATA
  Total_Score	| 5.8183
  Crash		| -1.3262
  Polar		| 3.0665
  FragIndex	| 1
  FragRMSD	| 1.090

