@<TRIPOS>MOLECULE
BindingDB_50254870
 27 29 0 0 0
SMALL
NO_CHARGES


@<TRIPOS>ATOM
1    C        32.7201   39.9893   37.1540  C     
2    C        33.3792   38.7346   37.1982  C     
3    C        34.6232   38.5990   36.5169  C     
4    C        35.2046   39.6874   35.8293  C     
5    C        33.3111   41.0643   36.4674  C     
6    C        34.5303   40.9146   35.8165  C     
7    N        34.8428   42.0929   35.2666  N     
8    N        33.9081   42.9657   35.5140  N     
9    C        32.9447   42.3881   36.2548  C     
10   N        31.8466   43.0333   36.6858  N     
11   C        32.8473   37.6555   37.9754  C     
12   C        32.4092   37.8977   39.2975  C     
13   C        31.8979   36.8648   40.0988  C     
14   C        31.8126   35.5569   39.6016  C     
15   C        32.2317   35.2904   38.2872  C     
16   C        32.7504   36.3290   37.4841  C     
17   Cl       32.0794   33.7146   37.6821  Cl    
18   H        31.8193   40.1273   37.6160  H     
19   H        35.1432   37.7175   36.5511  H     
20   H        36.1038   39.5928   35.3532  H     
21   H        35.6471   42.2795   34.7564  H     
22   H        31.6864   43.9513   36.4107  H     
23   H        31.2063   42.5801   37.2619  H     
24   H        32.4749   38.8317   39.7008  H     
25   H        31.5812   37.0685   41.0495  H     
26   H        31.4378   34.8147   40.1930  H     
27   H        33.0388   36.1145   36.5255  H     
@<TRIPOS>BOND
     1    1    2 2
     2    1    5 1
     3    2    3 1
     4    2   11 1
     5    3    4 2
     6    4    6 1
     7    5    6 2
     8    5    9 1
     9    6    7 1
    10    7    8 1
    11    8    9 2
    12    9   10 1
    13   11   12 2
    14   11   16 1
    15   12   13 1
    16   13   14 2
    17   14   15 1
    18   15   16 2
    19   15   17 1
    20    1   18 1
    21    3   19 1
    22    4   20 1
    23    7   21 1
    24   10   22 1
    25   10   23 1
    26   12   24 1
    27   13   25 1
    28   14   26 1
    29   16   27 1
@<TRIPOS>PROPERTY_DATA
  Total_Score	| 7.6500
  Crash		| -0.6166
  Polar		| 3.0310
  FragIndex	| 1
  FragRMSD	| 0.663

