@<TRIPOS>MOLECULE
BindingDB_50254912
 43 45 0 0 0
SMALL
NO_CHARGES


@<TRIPOS>ATOM
1    C        32.6262   39.9772   37.1384  C     
2    C        33.2899   38.7279   37.2642  C     
3    C        34.5856   38.5715   36.7063  C     
4    C        35.2333   39.6470   36.0606  C     
5    C        33.2780   41.0318   36.4821  C     
6    C        34.5535   40.8723   35.9586  C     
7    N        34.9061   42.0428   35.4125  N     
8    N        33.9466   42.9065   35.5478  N     
9    C        32.9116   42.3385   36.1934  C     
10   N        31.7463   42.9415   36.4819  N     
11   C        32.6278   37.6547   37.9194  C     
12   C        32.1743   37.8018   39.2483  C     
13   C        31.3224   36.8466   39.8265  C     
14   C        30.8765   35.7096   39.1027  C     
15   C        31.4386   35.5112   37.8142  C     
16   C        32.2987   36.4654   37.2302  C     
17   C        29.8467   34.8843   39.5914  C     
18   O        29.7614   33.7176   39.2104  O     
19   N        28.8928   35.3852   40.3741  N     
20   C        27.6323   34.8072   40.7993  C     
21   C        26.9735   35.8503   41.7572  C     
22   C        26.6984   34.6072   39.5650  C     
23   C        27.8105   33.4653   41.5693  C     
24   H        31.6798   40.1213   37.5061  H     
25   H        35.0775   37.6753   36.7887  H     
26   H        36.1724   39.5396   35.6763  H     
27   H        35.7571   42.2246   34.9801  H     
28   H        31.5877   43.8542   36.1884  H     
29   H        31.0489   42.4583   36.9488  H     
30   H        32.4227   38.6325   39.7974  H     
31   H        30.9928   37.0177   40.7811  H     
32   H        31.1634   34.7050   37.2436  H     
33   H        32.6152   36.3243   36.2650  H     
34   H        29.0176   36.3129   40.6341  H     
35   H        27.6270   36.0483   42.6130  H     
36   H        26.0136   35.4848   42.1374  H     
37   H        26.7965   36.8008   41.2423  H     
38   H        26.5482   35.5577   39.0425  H     
39   H        25.7211   34.2194   39.8749  H     
40   H        27.1396   33.8982   38.8612  H     
41   H        28.2410   32.7032   40.9160  H     
42   H        26.8510   33.0966   41.9410  H     
43   H        28.4703   33.5968   42.4271  H     
@<TRIPOS>BOND
     1    1    2 2
     2    1    5 1
     3    2    3 1
     4    2   11 1
     5    3    4 2
     6    4    6 1
     7    5    6 2
     8    5    9 1
     9    6    7 1
    10    7    8 1
    11    8    9 2
    12    9   10 1
    13   11   12 2
    14   11   16 1
    15   12   13 1
    16   13   14 2
    17   14   15 1
    18   14   17 1
    19   15   16 2
    20   17   18 2
    21   17   19 am
    22   19   20 1
    23   20   21 1
    24   20   22 1
    25   20   23 1
    26    1   24 1
    27    3   25 1
    28    4   26 1
    29    7   27 1
    30   10   28 1
    31   10   29 1
    32   12   30 1
    33   13   31 1
    34   15   32 1
    35   16   33 1
    36   19   34 1
    37   21   35 1
    38   21   36 1
    39   21   37 1
    40   22   38 1
    41   22   39 1
    42   22   40 1
    43   23   41 1
    44   23   42 1
    45   23   43 1
@<TRIPOS>PROPERTY_DATA
  Total_Score	| 5.9852
  Crash		| -1.9496
  Polar		| 3.1868
  FragIndex	| 1
  FragRMSD	| 0.907

