@<TRIPOS>MOLECULE
BindingDB_50254865
 24 26 0 0 0
SMALL
NO_CHARGES


@<TRIPOS>ATOM
1    C        32.5732   40.1135   37.4142  C     
2    C        33.1724   38.8255   37.4381  C     
3    C        34.3501   38.6118   36.6685  C     
4    C        34.9293   39.6511   35.9049  C     
5    C        33.1522   41.1311   36.6394  C     
6    C        34.3111   40.9103   35.9060  C     
7    N        34.6314   42.0648   35.3037  N     
8    N        33.7480   42.9771   35.5956  N     
9    C        32.8175   42.4551   36.4140  C     
10   N        31.7592   43.1118   36.9161  N     
11   C        32.6526   37.7653   38.2404  C     
12   C        31.5840   37.7817   39.1332  C     
13   C        31.5192   36.5163   39.6882  C     
14   N        32.5034   35.7973   39.1295  N     
15   N        33.1640   36.5178   38.2834  N     
16   H        31.7390   40.3284   37.9621  H     
17   H        34.8220   37.7041   36.6752  H     
18   H        35.7887   39.4933   35.3716  H     
19   H        35.4121   42.2108   34.7386  H     
20   H        31.5731   44.0170   36.6260  H     
21   H        31.1604   42.6703   37.5346  H     
22   H        30.9572   38.5539   39.3505  H     
23   H        30.8494   36.1848   40.3840  H     
24   H        32.6953   34.8713   39.3340  H     
@<TRIPOS>BOND
     1    1    2 2
     2    1    5 1
     3    2    3 1
     4    2   11 1
     5    3    4 2
     6    4    6 1
     7    5    6 2
     8    5    9 1
     9    6    7 1
    10    7    8 1
    11    8    9 2
    12    9   10 1
    13   11   12 1
    14   11   15 2
    15   12   13 2
    16   13   14 1
    17   14   15 1
    18    1   16 1
    19    3   17 1
    20    4   18 1
    21    7   19 1
    22   10   20 1
    23   10   21 1
    24   12   22 1
    25   13   23 1
    26   14   24 1
@<TRIPOS>PROPERTY_DATA
  Total_Score	| 4.8889
  Crash		| -0.5887
  Polar		| 2.6248
  FragIndex	| 1
  FragRMSD	| 0.664

