@<TRIPOS>MOLECULE
BindingDB_50254831
 27 29 0 0 0
SMALL
NO_CHARGES


@<TRIPOS>ATOM
1    C        32.7368   39.8596   37.0590  C     
2    C        33.4870   38.6470   37.1031  C     
3    C        34.7700   38.6248   36.4759  C     
4    C        35.2926   39.7659   35.8315  C     
5    C        33.2763   41.0014   36.4280  C     
6    C        34.5284   40.9393   35.8232  C     
7    N        34.8005   42.1452   35.3096  N     
8    N        33.8201   42.9631   35.5499  N     
9    C        32.8528   42.3170   36.2314  C     
10   N        31.7093   42.8964   36.6415  N     
11   C        33.0026   37.4959   37.8004  C     
12   C        32.3991   37.6174   39.0834  C     
13   C        31.9678   36.4808   39.7973  C     
14   C        32.1249   35.1905   39.2577  C     
15   C        32.7210   35.0506   37.9913  C     
16   C        33.1498   36.1874   37.2720  C     
17   H        31.8059   39.9176   37.4772  H     
18   H        35.3517   37.7835   36.5244  H     
19   H        36.2249   39.7535   35.4006  H     
20   H        35.6202   42.3719   34.8406  H     
21   H        31.5348   43.8205   36.4083  H     
22   H        31.0503   42.4010   37.1551  H     
23   H        32.3129   38.5377   39.5239  H     
24   H        31.5416   36.5831   40.7223  H     
25   H        31.8120   34.3653   39.7789  H     
26   H        32.8332   34.1120   37.5957  H     
27   H        33.5594   36.0520   36.3443  H     
@<TRIPOS>BOND
     1    1    2 2
     2    1    5 1
     3    2    3 1
     4    2   11 1
     5    3    4 2
     6    4    6 1
     7    5    6 2
     8    5    9 1
     9    6    7 1
    10    7    8 1
    11    8    9 2
    12    9   10 1
    13   11   12 2
    14   11   16 1
    15   12   13 1
    16   13   14 2
    17   14   15 1
    18   15   16 2
    19    1   17 1
    20    3   18 1
    21    4   19 1
    22    7   20 1
    23   10   21 1
    24   10   22 1
    25   12   23 1
    26   13   24 1
    27   14   25 1
    28   15   26 1
    29   16   27 1
@<TRIPOS>PROPERTY_DATA
  Total_Score	| 8.0468
  Crash		| -0.2799
  Polar		| 3.0068
  FragIndex	| 1
  FragRMSD	| 0.581

