@<TRIPOS>MOLECULE
BindingDB_50254911
 44 46 0 0 0
SMALL
NO_CHARGES


@<TRIPOS>ATOM
1    C        32.8356   40.0905   37.1044  C     
2    C        33.3986   38.7971   37.1795  C     
3    C        34.6818   38.5514   36.6140  C     
4    C        35.3985   39.5775   35.9706  C     
5    C        33.5571   41.0987   36.4433  C     
6    C        34.8025   40.8423   35.8902  C     
7    N        35.2317   41.9684   35.3193  N     
8    N        34.3477   42.9045   35.4616  N     
9    C        33.2912   42.4280   36.1388  C     
10   N        32.1863   43.1269   36.4391  N     
11   C        32.6625   37.7548   37.7882  C     
12   C        32.2690   36.6233   37.0399  C     
13   C        31.3475   35.7009   37.5752  C     
14   C        30.8354   35.8690   38.8731  C     
15   C        31.2982   36.9490   39.6556  C     
16   C        32.1932   37.8868   39.1119  C     
17   S        29.5437   34.8614   39.4423  S     
18   N        28.0168   35.3735   38.9339  N     
19   C        26.9595   35.9621   39.7149  C     
20   C        26.1061   36.8185   38.7387  C     
21   C        26.1010   34.7850   40.2742  C     
22   C        27.4110   36.8778   40.8967  C     
23   O        29.7485   33.3821   38.8907  O     
24   O        29.6238   34.6598   41.0182  O     
25   H        31.9100   40.2999   37.4848  H     
26   H        35.1028   37.6138   36.6692  H     
27   H        36.3055   39.4048   35.5538  H     
28   H        36.0822   42.0663   34.8560  H     
29   H        32.1028   44.0412   36.1225  H     
30   H        31.4557   42.7049   36.9179  H     
31   H        32.5748   36.5110   36.0751  H     
32   H        31.0092   34.9461   36.9763  H     
33   H        30.9403   37.1047   40.6014  H     
34   H        32.4554   38.7019   39.6695  H     
35   H        27.7771   35.1432   38.0253  H     
36   H        26.7006   37.6520   38.3438  H     
37   H        25.2230   37.2304   39.2396  H     
38   H        25.7606   36.2261   37.8893  H     
39   H        25.7381   34.1441   39.4712  H     
40   H        25.2346   35.1639   40.8176  H     
41   H        26.6886   34.1698   40.9609  H     
42   H        27.8942   36.2912   41.6839  H     
43   H        26.5408   37.3659   41.3503  H     
44   H        28.0953   37.6541   40.5450  H     
@<TRIPOS>BOND
     1    1    2 2
     2    1    5 1
     3    2    3 1
     4    2   11 1
     5    3    4 2
     6    4    6 1
     7    5    6 2
     8    5    9 1
     9    6    7 1
    10    7    8 1
    11    8    9 2
    12    9   10 1
    13   11   12 2
    14   11   16 1
    15   12   13 1
    16   13   14 2
    17   14   15 1
    18   14   17 1
    19   15   16 2
    20   17   18 1
    21   17   23 2
    22   17   24 2
    23   18   19 1
    24   19   20 1
    25   19   21 1
    26   19   22 1
    27    1   25 1
    28    3   26 1
    29    4   27 1
    30    7   28 1
    31   10   29 1
    32   10   30 1
    33   12   31 1
    34   13   32 1
    35   15   33 1
    36   16   34 1
    37   18   35 1
    38   20   36 1
    39   20   37 1
    40   20   38 1
    41   21   39 1
    42   21   40 1
    43   21   41 1
    44   22   42 1
    45   22   43 1
    46   22   44 1
@<TRIPOS>PROPERTY_DATA
  Total_Score	| 7.0698
  Crash		| -1.8081
  Polar		| 3.5422
  FragIndex	| 1
  FragRMSD	| 0.954

