@<TRIPOS>MOLECULE
BindingDB_50254871
 26 28 0 0 0
SMALL
NO_CHARGES


@<TRIPOS>ATOM
1    C        32.6546   39.9029   37.1142  C     
2    C        33.3318   38.6493   37.1058  C     
3    C        34.6071   38.6050   36.4627  C     
4    C        35.1833   39.7366   35.8535  C     
5    C        33.2322   41.0277   36.5005  C     
6    C        34.4698   40.9438   35.8841  C     
7    N        34.7632   42.1531   35.3889  N     
8    N        33.7983   42.9810   35.6451  N     
9    C        32.8278   42.3452   36.3274  C     
10   N        31.6781   42.9146   36.7358  N     
11   C        32.7378   37.5008   37.7392  C     
12   C        33.3221   36.2105   37.7890  C     
13   C        32.6956   35.1608   38.4862  C     
14   C        31.4468   35.3637   39.0903  C     
15   C        30.8582   36.6358   38.9885  C     
16   N        31.5217   37.6286   38.3465  N     
17   Cl       29.3337   36.9474   39.6470  Cl    
18   H        31.7382   40.0153   37.5592  H     
19   H        35.1630   37.7472   36.4344  H     
20   H        36.0968   39.6847   35.4015  H     
21   H        35.5747   42.3760   34.9005  H     
22   H        31.4880   43.8348   36.4806  H     
23   H        31.0302   42.3969   37.2365  H     
24   H        34.2095   35.9971   37.3316  H     
25   H        33.1391   34.2413   38.5307  H     
26   H        30.9750   34.5972   39.5730  H     
@<TRIPOS>BOND
     1    1    2 2
     2    1    5 1
     3    2    3 1
     4    2   11 1
     5    3    4 2
     6    4    6 1
     7    5    6 2
     8    5    9 1
     9    6    7 1
    10    7    8 1
    11    8    9 2
    12    9   10 1
    13   11   12 2
    14   11   16 1
    15   12   13 1
    16   13   14 2
    17   14   15 1
    18   15   16 2
    19   15   17 1
    20    1   18 1
    21    3   19 1
    22    4   20 1
    23    7   21 1
    24   10   22 1
    25   10   23 1
    26   12   24 1
    27   13   25 1
    28   14   26 1
@<TRIPOS>PROPERTY_DATA
  Total_Score	| 5.0651
  Crash		| -0.5890
  Polar		| 2.8959
  FragIndex	| 1
  FragRMSD	| 1.240

