@<TRIPOS>MOLECULE
BindingDB_50240801
 37 38 0 0 0
SMALL
NO_CHARGES


@<TRIPOS>ATOM
1    C        32.1263   20.4079   27.3677  C     
2    C        32.0869   20.6665   25.8270  C     
3    C        32.1498   22.1774   25.4794  C     
4    C        33.2859   22.8958   26.2818  C     
5    C        33.1841   22.5362   27.7894  C     
6    O        33.2436   21.1109   27.9655  O     
7    N        34.2732   23.0861   28.5436  N     
8    C        34.2229   23.6507   29.7477  C     
9    C        35.3507   24.1407   30.4459  C     
10   O        33.1352   23.6892   30.3107  O     
11   O        33.1931   24.3300   26.1550  O     
12   O        32.3458   22.2449   24.0621  O     
13   O        30.9242   20.0728   25.2574  O     
14   C        32.2078   18.8951   27.7138  C     
15   O        33.0979   18.2144   26.8276  O     
16   C        35.2808   24.4596   31.8350  C     
17   C        36.3827   24.9588   32.5477  C     
18   C        37.6010   25.1685   31.8837  C     
19   C        37.7119   24.8635   30.5140  C     
20   C        36.6009   24.3651   29.8030  C     
21   H        31.2015   20.7809   27.8258  H     
22   H        32.9648   20.2008   25.3709  H     
23   H        31.1996   22.6484   25.7256  H     
24   H        34.2624   22.5693   25.8903  H     
25   H        32.2187   22.9109   28.1502  H     
26   H        35.1515   22.9173   28.1814  H     
27   H        32.8061   24.5359   25.2688  H     
28   H        32.5349   23.2003   23.8512  H     
29   H        31.0337   19.1012   25.3365  H     
30   H        32.5215   18.7318   28.7474  H     
31   H        31.2034   18.4722   27.5959  H     
32   H        32.5705   17.4817   26.4733  H     
33   H        34.4203   24.3195   32.3596  H     
34   H        36.3033   25.1599   33.5440  H     
35   H        38.4061   25.5306   32.3916  H     
36   H        38.6058   25.0020   30.0376  H     
37   H        36.7244   24.1676   28.8021  H     
@<TRIPOS>BOND
     1    1    2 1
     2    1    6 1
     3    1   14 1
     4    2    3 1
     5    2   13 1
     6    3    4 1
     7    3   12 1
     8    4    5 1
     9    4   11 1
    10    5    6 1
    11    5    7 1
    12    7    8 am
    13    8    9 1
    14    8   10 2
    15    9   16 2
    16    9   20 1
    17   14   15 1
    18   16   17 1
    19   17   18 2
    20   18   19 1
    21   19   20 2
    22    1   21 1
    23    2   22 1
    24    3   23 1
    25    4   24 1
    26    5   25 1
    27    7   26 1
    28   11   27 1
    29   12   28 1
    30   13   29 1
    31   14   30 1
    32   14   31 1
    33   15   32 1
    34   16   33 1
    35   17   34 1
    36   18   35 1
    37   19   36 1
    38   20   37 1
@<TRIPOS>PROPERTY_DATA
  Total_Score	| 10.0509
  Crash		| -1.1308
  Polar		| 8.3339
  FragIndex	| 1
  FragRMSD	| 0.547

