@<TRIPOS>MOLECULE
BindingDB_50306556
 34 34 0 0 0
SMALL
NO_CHARGES


@<TRIPOS>ATOM
1    N        34.7200   22.7672   28.0892  N     
2    C        33.4283   22.4368   27.5617  C     
3    C        33.3608   22.8226   26.0563  C     
4    O        33.3982   24.2424   25.9125  O     
5    C        32.0970   22.2290   25.3835  C     
6    O        32.2175   22.3210   23.9523  O     
7    C        31.9069   20.7298   25.7212  C     
8    O        30.6305   20.3015   25.2515  O     
9    C        32.0478   20.4568   27.2480  C     
10   O        33.2891   21.0105   27.7389  O     
11   C        32.0278   18.9323   27.5668  C     
12   O        33.0274   18.2432   26.8080  O     
13   C        35.0194   23.1616   29.3279  C     
14   C        36.3919   23.3632   29.7502  C     
15   O        34.1404   23.3467   30.1615  O     
16   O        36.5054   24.7414   30.1887  O     
17   C        37.5628   25.0009   31.1221  C     
18   H        35.4673   22.5425   27.5261  H     
19   H        32.6385   22.9623   28.1054  H     
20   H        34.2384   22.4277   25.5272  H     
21   H        33.0363   24.4323   25.0110  H     
22   H        31.2099   22.7976   25.6845  H     
23   H        32.4263   23.2534   23.7534  H     
24   H        32.6832   20.1788   25.1844  H     
25   H        30.6916   19.3018   25.2208  H     
26   H        31.2038   20.8851   27.7823  H     
27   H        32.2197   18.7733   28.6370  H     
28   H        31.0573   18.4850   27.3345  H     
29   H        33.5752   17.7679   27.4604  H     
30   H        36.6146   22.6796   30.5671  H     
31   H        37.0979   23.1716   28.9344  H     
32   H        37.4475   24.3558   32.0054  H     
33   H        37.5001   26.0353   31.4359  H     
34   H        38.5574   24.8398   30.6811  H     
@<TRIPOS>BOND
     1    2    1 1
     2    1   13 am
     3    2    3 1
     4    2   10 1
     5    3    4 1
     6    3    5 1
     7    5    6 1
     8    5    7 1
     9    7    8 1
    10    7    9 1
    11    9   10 1
    12    9   11 1
    13   11   12 1
    14   13   14 1
    15   13   15 2
    16   14   16 1
    17   16   17 1
    18    1   18 1
    19    2   19 1
    20    3   20 1
    21    4   21 1
    22    5   22 1
    23    6   23 1
    24    7   24 1
    25    8   25 1
    26    9   26 1
    27   11   27 1
    28   11   28 1
    29   12   29 1
    30   14   30 1
    31   14   31 1
    32   17   32 1
    33   17   33 1
    34   17   34 1
@<TRIPOS>PROPERTY_DATA
  Total_Score	| 9.0151
  Crash		| -1.1115
  Polar		| 7.8691
  FragIndex	| 1
  FragRMSD	| 0.582

