@<TRIPOS>MOLECULE
BindingDB_50240802
 30 30 0 0 0
SMALL
NO_CHARGES


@<TRIPOS>ATOM
1    C        32.2377   20.4368   27.2812  C     
2    C        32.1084   20.6754   25.7429  C     
3    C        32.1693   22.1857   25.4123  C     
4    C        33.3901   22.8786   26.0863  C     
5    C        33.4692   22.5129   27.5909  C     
6    O        33.4263   21.0882   27.7900  O     
7    N        34.7226   22.9728   28.1163  N     
8    C        34.9558   23.3950   29.3523  C     
9    C        36.3026   23.8006   29.6964  C     
10   O        34.0715   23.4251   30.2025  O     
11   O        33.2989   24.3023   25.9730  O     
12   O        32.2556   22.3029   23.9893  O     
13   O        30.8879   20.1378   25.2327  O     
14   C        32.3109   18.9233   27.6274  C     
15   O        33.2055   18.2417   26.7515  O     
16   H        31.3506   20.8483   27.7863  H     
17   H        32.9398   20.1812   25.2146  H     
18   H        31.2501   22.6715   25.7463  H     
19   H        34.3053   22.5483   25.5793  H     
20   H        32.6294   22.9796   28.1252  H     
21   H        35.4850   22.9444   27.5123  H     
22   H        36.9888   22.9630   29.5421  H     
23   H        36.3708   24.1140   30.7412  H     
24   H        36.6195   24.6283   29.0576  H     
25   H        33.1246   24.4894   25.0142  H     
26   H        32.3720   23.2544   23.7879  H     
27   H        30.9929   19.1584   25.2619  H     
28   H        32.6431   18.7868   28.6572  H     
29   H        31.3174   18.4741   27.5437  H     
30   H        32.7059   17.4829   26.3907  H     
@<TRIPOS>BOND
     1    1    2 1
     2    1    6 1
     3    1   14 1
     4    2    3 1
     5    2   13 1
     6    3    4 1
     7    3   12 1
     8    4    5 1
     9    4   11 1
    10    5    6 1
    11    5    7 1
    12    7    8 am
    13    8    9 1
    14    8   10 2
    15   14   15 1
    16    1   16 1
    17    2   17 1
    18    3   18 1
    19    4   19 1
    20    5   20 1
    21    7   21 1
    22    9   22 1
    23    9   23 1
    24    9   24 1
    25   11   25 1
    26   12   26 1
    27   13   27 1
    28   14   28 1
    29   14   29 1
    30   15   30 1
@<TRIPOS>PROPERTY_DATA
  Total_Score	| 9.2900
  Crash		| -0.8169
  Polar		| 8.2256
  FragIndex	| 1
  FragRMSD	| 0.250

