@<TRIPOS>MOLECULE
BindingDB_50263770
 34 34 0 0 0
SMALL
NO_CHARGES


@<TRIPOS>ATOM
1    C        32.0207   20.3467   27.2724  C     
2    C        31.9942   20.6181   25.7343  C     
3    C        32.0494   22.1363   25.4133  C     
4    C        33.1820   22.8478   26.2106  C     
5    C        33.0397   22.5046   27.7173  C     
6    O        33.1045   21.0737   27.8962  O     
7    N        34.1005   23.0706   28.4977  N     
8    C        33.9924   23.7119   29.6529  C     
9    N        32.8249   23.9572   30.2478  N     
10   O        35.0520   24.0451   30.1632  O     
11   O        33.1299   24.2683   26.0446  O     
12   O        32.2276   22.2671   23.9995  O     
13   O        30.8234   20.0432   25.1454  O     
14   C        32.1736   18.8416   27.6149  C     
15   O        33.1572   18.2081   26.7922  O     
16   C        32.5629   24.5561   31.4050  C     
17   C        31.1858   24.6131   31.8504  C     
18   O        33.4359   25.0450   32.1110  O     
19   H        31.0770   20.6842   27.7143  H     
20   H        32.8664   20.1499   25.2699  H     
21   H        31.0857   22.5894   25.6746  H     
22   H        34.1490   22.4943   25.8447  H     
23   H        32.0625   22.8678   28.0495  H     
24   H        34.9999   22.9060   28.1747  H     
25   H        32.0415   23.6711   29.7587  H     
26   H        33.0112   24.4370   25.0854  H     
27   H        32.3245   23.2230   23.8262  H     
28   H        30.9175   19.0721   25.2701  H     
29   H        32.4498   18.7141   28.6649  H     
30   H        31.2119   18.3402   27.4623  H     
31   H        32.6891   17.4426   26.3977  H     
32   H        30.5445   25.0201   31.0632  H     
33   H        31.0719   25.2385   32.7358  H     
34   H        30.8267   23.6116   32.1047  H     
@<TRIPOS>BOND
     1    1    2 1
     2    1    6 1
     3    1   14 1
     4    2    3 1
     5    2   13 1
     6    3    4 1
     7    3   12 1
     8    4    5 1
     9    4   11 1
    10    5    6 1
    11    5    7 1
    12    7    8 am
    13    8    9 am
    14    8   10 2
    15    9   16 am
    16   14   15 1
    17   16   17 1
    18   16   18 2
    19    1   19 1
    20    2   20 1
    21    3   21 1
    22    4   22 1
    23    5   23 1
    24    7   24 1
    25    9   25 1
    26   11   26 1
    27   12   27 1
    28   13   28 1
    29   14   29 1
    30   14   30 1
    31   15   31 1
    32   17   32 1
    33   17   33 1
    34   17   34 1
@<TRIPOS>PROPERTY_DATA
  Total_Score	| 8.6788
  Crash		| -2.0762
  Polar		| 7.8619
  FragIndex	| 1
  FragRMSD	| 0.562

