@<TRIPOS>MOLECULE
BindingDB_50295842
 40 41 0 0 0
SMALL
NO_CHARGES


@<TRIPOS>ATOM
1    C        33.1321   22.4719   27.6837  C     
2    C        33.2845   22.7928   26.1726  C     
3    O        33.3513   24.2068   26.0072  O     
4    C        32.1082   22.1598   25.3782  C     
5    O        32.2914   22.2431   23.9645  O     
6    C        31.9456   20.6470   25.7128  C     
7    O        30.7818   20.1189   25.0684  O     
8    C        31.9023   20.4114   27.2577  C     
9    O        33.0450   21.0474   27.8865  O     
10   C        31.9359   18.9119   27.6216  C     
11   O        32.9320   18.2383   26.8187  O     
12   N        34.2990   22.8959   28.4078  N     
13   C        34.3421   23.5382   29.5646  C     
14   C        35.5599   23.9503   30.1481  C     
15   O        33.2884   23.7209   30.1689  O     
16   C        35.5630   24.7799   31.3030  C     
17   C        36.7544   25.1925   31.9141  C     
18   C        38.0016   24.7665   31.4149  C     
19   C        38.0243   23.9223   30.2869  C     
20   C        36.8233   23.5434   29.6472  C     
21   C        39.2532   25.2065   32.0711  C     
22   H        32.2290   22.9395   28.0746  H     
23   H        34.2227   22.3471   25.8119  H     
24   H        32.9778   24.4190   25.1241  H     
25   H        31.1819   22.6969   25.6285  H     
26   H        32.5030   23.1759   23.7570  H     
27   H        32.8288   20.1428   25.2893  H     
28   H        30.8674   19.1331   25.1734  H     
29   H        30.9781   20.8411   27.6683  H     
30   H        32.1797   18.7993   28.6917  H     
31   H        30.9595   18.4487   27.4397  H     
32   H        33.5072   17.7906   27.4691  H     
33   H        35.1366   22.6896   27.9810  H     
34   H        34.6847   25.1019   31.7182  H     
35   H        36.7056   25.7981   32.7519  H     
36   H        38.9137   23.5624   29.9363  H     
37   H        36.8985   22.9392   28.8262  H     
38   H        39.3193   26.2997   32.0470  H     
39   H        40.1337   24.8012   31.5712  H     
40   H        39.2624   24.8719   33.1109  H     
@<TRIPOS>BOND
     1    1    2 1
     2    1    9 1
     3    1   12 1
     4    2    3 1
     5    2    4 1
     6    4    5 1
     7    4    6 1
     8    6    7 1
     9    6    8 1
    10    8    9 1
    11    8   10 1
    12   10   11 1
    13   12   13 am
    14   13   14 1
    15   13   15 2
    16   14   16 2
    17   14   20 1
    18   16   17 1
    19   17   18 2
    20   18   19 1
    21   18   21 1
    22   19   20 2
    23    1   22 1
    24    2   23 1
    25    3   24 1
    26    4   25 1
    27    5   26 1
    28    6   27 1
    29    7   28 1
    30    8   29 1
    31   10   30 1
    32   10   31 1
    33   11   32 1
    34   12   33 1
    35   16   34 1
    36   17   35 1
    37   19   36 1
    38   20   37 1
    39   21   38 1
    40   21   39 1
    41   21   40 1
@<TRIPOS>PROPERTY_DATA
  Total_Score	| 10.5592
  Crash		| -1.2092
  Polar		| 8.1178
  FragIndex	| 1
  FragRMSD	| 0.517

