@<TRIPOS>MOLECULE
BindingDB_50306557
 31 31 0 0 0
SMALL
NO_CHARGES


@<TRIPOS>ATOM
1    N        34.7773   23.0690   28.1648  N     
2    C        33.5533   22.5497   27.6141  C     
3    C        33.4433   22.8908   26.1068  C     
4    O        33.3768   24.3226   25.9917  O     
5    C        32.2166   22.1973   25.4546  C     
6    O        32.2607   22.2835   24.0332  O     
7    C        32.1802   20.6812   25.8162  C     
8    O        30.9674   20.0905   25.3157  O     
9    C        32.3136   20.4776   27.3591  C     
10   O        33.5114   21.1214   27.8235  O     
11   C        32.3102   18.9849   27.8213  C     
12   O        33.0338   18.0999   26.9524  O     
13   C        34.9603   23.4674   29.4174  C     
14   C        36.2329   24.0284   29.8198  C     
15   O        34.0458   23.4250   30.2347  O     
16   O        37.3199   23.2495   29.3280  O     
17   H        35.5239   23.1845   27.5585  H     
18   H        32.7155   23.0328   28.1294  H     
19   H        34.3441   22.5598   25.5895  H     
20   H        33.0014   24.5254   25.0910  H     
21   H        31.2950   22.6701   25.7995  H     
22   H        32.4022   23.2256   23.8093  H     
23   H        33.0230   20.1795   25.3196  H     
24   H        31.1094   19.1060   25.3621  H     
25   H        31.4549   20.9326   27.8504  H     
26   H        32.7589   18.9224   28.8326  H     
27   H        31.2778   18.6154   27.9050  H     
28   H        32.3538   17.4781   26.6136  H     
29   H        36.3206   25.0396   29.4232  H     
30   H        36.3243   24.0901   30.9079  H     
31   H        37.5320   22.6053   30.0419  H     
@<TRIPOS>BOND
     1    2    1 1
     2    1   13 am
     3    2    3 1
     4    2   10 1
     5    3    4 1
     6    3    5 1
     7    5    6 1
     8    5    7 1
     9    7    8 1
    10    7    9 1
    11    9   10 1
    12    9   11 1
    13   11   12 1
    14   13   14 1
    15   13   15 2
    16   14   16 1
    17    1   17 1
    18    2   18 1
    19    3   19 1
    20    4   20 1
    21    5   21 1
    22    6   22 1
    23    7   23 1
    24    8   24 1
    25    9   25 1
    26   11   26 1
    27   11   27 1
    28   12   28 1
    29   14   29 1
    30   14   30 1
    31   16   31 1
@<TRIPOS>PROPERTY_DATA
  Total_Score	| 9.7488
  Crash		| -1.1367
  Polar		| 9.7805
  FragIndex	| 1
  FragRMSD	| 0.172

