@<TRIPOS>MOLECULE
BindingDB_50306563
 34 34 0 0 0
SMALL
NO_CHARGES


@<TRIPOS>ATOM
1    N        34.7754   23.1269   28.1402  N     
2    C        33.4279   22.7998   27.7291  C     
3    C        33.3793   23.0004   26.1755  C     
4    O        33.3849   24.4039   25.8926  O     
5    C        32.1838   22.2547   25.5047  C     
6    O        32.3007   22.2909   24.0791  O     
7    C        32.1444   20.7621   25.9217  C     
8    O        30.9729   20.1318   25.3931  O     
9    C        32.2026   20.6103   27.4706  C     
10   O        33.2908   21.3830   28.0434  O     
11   C        32.3657   19.1332   27.9259  C     
12   O        33.0682   18.3036   26.9775  O     
13   C        32.4158   23.6416   28.4126  C     
14   N        32.6914   24.7204   29.1150  N     
15   O        31.2136   23.4215   28.2911  O     
16   C        35.2516   23.2344   29.3782  C     
17   C        36.6358   23.6085   29.5740  C     
18   O        34.5297   23.1117   30.3622  O     
19   H        35.4214   23.2909   27.4376  H     
20   H        34.2815   22.5798   25.7284  H     
21   H        32.9966   24.5234   24.9890  H     
22   H        31.2396   22.7422   25.7670  H     
23   H        32.4784   23.2240   23.8425  H     
24   H        33.0135   20.2676   25.4761  H     
25   H        31.1412   19.1585   25.4429  H     
26   H        31.2642   20.9609   27.8998  H     
27   H        32.9115   19.1027   28.8789  H     
28   H        31.3777   18.6904   28.1013  H     
29   H        32.3886   17.6646   26.6596  H     
30   H        31.9814   25.2552   29.5142  H     
31   H        33.6086   25.0092   29.2480  H     
32   H        37.2851   22.8100   29.2042  H     
33   H        36.8643   23.7822   30.6341  H     
34   H        36.8611   24.5268   29.0214  H     
@<TRIPOS>BOND
     1    2    1 1
     2    1   16 am
     3    2    3 1
     4    2   10 1
     5    2   13 1
     6    3    4 1
     7    3    5 1
     8    5    6 1
     9    5    7 1
    10    7    8 1
    11    7    9 1
    12    9   10 1
    13    9   11 1
    14   11   12 1
    15   13   14 am
    16   13   15 2
    17   16   17 1
    18   16   18 2
    19    1   19 1
    20    3   20 1
    21    4   21 1
    22    5   22 1
    23    6   23 1
    24    7   24 1
    25    8   25 1
    26    9   26 1
    27   11   27 1
    28   11   28 1
    29   12   29 1
    30   14   30 1
    31   14   31 1
    32   17   32 1
    33   17   33 1
    34   17   34 1
@<TRIPOS>PROPERTY_DATA
  Total_Score	| 9.7389
  Crash		| -1.5495
  Polar		| 9.4824
  FragIndex	| 1
  FragRMSD	| 0.257

