@<TRIPOS>MOLECULE
BindingDB_50306561
 40 41 0 0 0
SMALL
NO_CHARGES


@<TRIPOS>ATOM
1    N        33.6752   23.6754   28.7264  N     
2    C        32.9047   22.8238   27.8654  C     
3    C        33.1437   23.0770   26.3478  C     
4    O        32.9946   24.4715   26.0786  O     
5    C        32.1304   22.2210   25.5293  C     
6    O        32.3780   22.3033   24.1251  O     
7    C        32.1865   20.7244   25.9406  C     
8    O        31.1136   20.0276   25.3039  O     
9    C        32.1304   20.5437   27.4938  C     
10   O        33.0870   21.4158   28.1534  O     
11   C        32.3667   19.0755   27.9600  C     
12   O        33.1031   18.2866   27.0222  O     
13   C        34.7084   23.3662   29.5002  C     
14   O        35.0744   22.2076   29.5695  O     
15   C        35.3008   24.4348   30.3027  C     
16   C        36.7150   24.4730   30.8040  C     
17   C        37.8305   23.8397   30.1940  C     
18   C        39.1111   23.9154   30.7771  C     
19   C        39.3094   24.6336   31.9756  C     
20   C        38.2261   25.2885   32.5783  C     
21   C        36.9480   25.2007   32.0025  C     
22   H        33.3890   24.6028   28.7572  H     
23   H        31.8677   23.0960   28.0938  H     
24   H        34.1640   22.7841   26.0810  H     
25   H        32.5472   24.5463   25.2105  H     
26   H        31.1190   22.5990   25.7053  H     
27   H        32.5932   23.2437   23.9386  H     
28   H        33.1275   20.3154   25.5620  H     
29   H        31.2966   19.0745   25.4431  H     
30   H        31.1302   20.8252   27.8449  H     
31   H        32.9065   19.0697   28.9075  H     
32   H        31.4050   18.5791   28.1273  H     
33   H        32.4622   17.6311   26.6841  H     
34   H        35.1564   25.3527   29.7269  H     
35   H        34.6721   24.5086   31.1951  H     
36   H        37.7389   23.3116   29.3280  H     
37   H        39.9048   23.4534   30.3269  H     
38   H        40.2378   24.6787   32.3983  H     
39   H        38.3646   25.8206   33.4432  H     
40   H        36.1724   25.6680   32.4800  H     
@<TRIPOS>BOND
     1    2    1 1
     2    1   13 am
     3    2    3 1
     4    2   10 1
     5    3    4 1
     6    3    5 1
     7    5    6 1
     8    5    7 1
     9    7    8 1
    10    7    9 1
    11    9   10 1
    12    9   11 1
    13   11   12 1
    14   13   14 2
    15   13   15 1
    16   15   16 1
    17   16   17 2
    18   16   21 1
    19   17   18 1
    20   18   19 2
    21   19   20 1
    22   20   21 2
    23    1   22 1
    24    2   23 1
    25    3   24 1
    26    4   25 1
    27    5   26 1
    28    6   27 1
    29    7   28 1
    30    8   29 1
    31    9   30 1
    32   11   31 1
    33   11   32 1
    34   12   33 1
    35   15   34 1
    36   15   35 1
    37   17   36 1
    38   18   37 1
    39   19   38 1
    40   20   39 1
    41   21   40 1
@<TRIPOS>PROPERTY_DATA
  Total_Score	| 9.7970
  Crash		| -1.5893
  Polar		| 8.1399
  FragIndex	| 1
  FragRMSD	| 0.667

