@<TRIPOS>MOLECULE
BindingDB_50263723
 43 45 0 0 0
SMALL
NO_CHARGES


@<TRIPOS>ATOM
1    C        32.2588   20.5211   27.3421  C     
2    C        32.1415   20.7232   25.7938  C     
3    C        32.2258   22.2286   25.4165  C     
4    C        33.4328   22.9397   26.1099  C     
5    C        33.4395   22.6127   27.6261  C     
6    O        33.4171   21.2028   27.8640  O     
7    N        34.6309   23.1017   28.2668  N     
8    C        34.7385   23.4822   29.5531  C     
9    C        35.9063   23.9695   30.1130  C     
10   O        33.7535   23.4003   30.2872  O     
11   O        33.3924   24.3616   25.9833  O     
12   O        32.3355   22.2507   23.9929  O     
13   O        30.9286   20.1465   25.2823  O     
14   C        32.3198   19.0260   27.7409  C     
15   O        33.1499   18.2725   26.8487  O     
16   C        35.8404   24.9033   31.0967  C     
17   C        38.2738   23.7953   30.3990  C     
18   C        37.1407   23.4520   29.7469  C     
19   C        38.2365   24.7230   31.4409  C     
20   C        36.9904   25.3088   31.7955  C     
21   C        36.9423   26.2375   32.8512  C     
22   C        38.1200   26.6200   33.5347  C     
23   C        39.3534   26.0480   33.1736  C     
24   C        39.4140   25.0877   32.1405  C     
25   H        31.3647   20.9307   27.8279  H     
26   H        32.9836   20.2175   25.3025  H     
27   H        31.3031   22.7478   25.7155  H     
28   H        34.3468   22.5583   25.6492  H     
29   H        32.5430   23.0766   28.0574  H     
30   H        35.4615   23.1551   27.7359  H     
31   H        32.9305   24.5797   25.1417  H     
32   H        32.5202   23.1769   23.7246  H     
33   H        31.0600   19.1692   25.3506  H     
34   H        32.7016   18.9134   28.7654  H     
35   H        31.3013   18.5910   27.7172  H     
36   H        32.5698   17.5688   26.4892  H     
37   H        34.9487   25.2871   31.3570  H     
38   H        39.1277   23.3887   30.1518  H     
39   H        37.1711   22.7880   29.0076  H     
40   H        36.0549   26.6492   33.1495  H     
41   H        38.0695   27.3097   34.2906  H     
42   H        40.2054   26.3389   33.6678  H     
43   H        40.3208   24.6776   31.9117  H     
@<TRIPOS>BOND
     1    1    2 1
     2    1    6 1
     3    1   14 1
     4    2    3 1
     5    2   13 1
     6    3    4 1
     7    3   12 1
     8    4    5 1
     9    4   11 1
    10    5    6 1
    11    5    7 1
    12    7    8 am
    13    8    9 1
    14    8   10 2
    15    9   16 2
    16    9   18 1
    17   14   15 1
    18   16   20 1
    19   17   18 2
    20   17   19 1
    21   19   20 1
    22   19   24 2
    23   20   21 2
    24   21   22 1
    25   22   23 2
    26   23   24 1
    27    1   25 1
    28    2   26 1
    29    3   27 1
    30    4   28 1
    31    5   29 1
    32    7   30 1
    33   11   31 1
    34   12   32 1
    35   13   33 1
    36   14   34 1
    37   14   35 1
    38   15   36 1
    39   16   37 1
    40   17   38 1
    41   18   39 1
    42   21   40 1
    43   22   41 1
    44   23   42 1
    45   24   43 1
@<TRIPOS>PROPERTY_DATA
  Total_Score	| 11.0479
  Crash		| -1.5026
  Polar		| 8.3614
  FragIndex	| 1
  FragRMSD	| 0.273

