@<TRIPOS>MOLECULE
BindingDB_50263722
 43 45 0 0 0
SMALL
NO_CHARGES


@<TRIPOS>ATOM
1    C        32.2549   20.4061   27.3175  C     
2    C        32.1416   20.6511   25.7882  C     
3    C        32.2009   22.1731   25.4191  C     
4    C        33.3007   22.9528   26.2092  C     
5    C        33.3253   22.5654   27.7177  C     
6    O        33.3760   21.1179   27.8767  O     
7    N        34.4589   23.1662   28.3951  N     
8    C        34.4695   23.6230   29.6507  C     
9    C        35.6199   24.0430   30.3749  C     
10   O        33.4045   23.5805   30.2925  O     
11   O        33.1285   24.3933   26.1238  O     
12   O        32.3830   22.2937   23.9900  O     
13   O        30.8809   20.1235   25.3444  O     
14   C        32.3047   18.8903   27.6447  C     
15   O        33.1648   18.1104   26.8162  O     
16   C        38.0777   24.5593   31.8213  C     
17   C        38.1045   23.9764   30.5406  C     
18   C        36.9085   23.7195   29.8526  C     
19   C        36.8405   24.8865   32.4246  C     
20   C        35.6097   24.6638   31.6861  C     
21   C        34.4423   25.1221   32.3410  C     
22   C        34.4957   25.6868   33.5834  C     
23   C        35.6702   25.7714   34.3021  C     
24   C        36.8346   25.4234   33.7358  C     
25   H        31.3573   20.8006   27.8016  H     
26   H        32.9508   20.1420   25.2491  H     
27   H        31.2295   22.6387   25.6476  H     
28   H        34.2615   22.6865   25.7666  H     
29   H        32.3954   22.9337   28.1635  H     
30   H        35.2918   23.2028   27.8873  H     
31   H        32.7832   24.6139   25.2172  H     
32   H        32.5574   23.2484   23.8350  H     
33   H        30.9541   19.1555   25.3556  H     
34   H        32.6022   18.7438   28.6828  H     
35   H        31.3100   18.4552   27.5338  H     
36   H        32.5896   17.3898   26.4807  H     
37   H        38.9590   24.7209   32.3050  H     
38   H        39.0065   23.7155   30.1204  H     
39   H        37.0337   23.2277   28.9713  H     
40   H        33.5746   25.1297   31.8708  H     
41   H        33.6966   26.1057   33.9879  H     
42   H        35.6614   26.1600   35.2417  H     
43   H        37.6941   25.5050   34.2530  H     
@<TRIPOS>BOND
     1    1    2 1
     2    1    6 1
     3    1   14 1
     4    2    3 1
     5    2   13 1
     6    3    4 1
     7    3   12 1
     8    4    5 1
     9    4   11 1
    10    5    6 1
    11    5    7 1
    12    7    8 am
    13    8    9 1
    14    8   10 2
    15    9   18 1
    16    9   20 2
    17   14   15 1
    18   16   17 1
    19   16   19 2
    20   17   18 2
    21   19   20 1
    22   19   24 1
    23   20   21 1
    24   21   22 2
    25   22   23 1
    26   23   24 2
    27    1   25 1
    28    2   26 1
    29    3   27 1
    30    4   28 1
    31    5   29 1
    32    7   30 1
    33   11   31 1
    34   12   32 1
    35   13   33 1
    36   14   34 1
    37   14   35 1
    38   15   36 1
    39   16   37 1
    40   17   38 1
    41   18   39 1
    42   21   40 1
    43   22   41 1
    44   23   42 1
    45   24   43 1
@<TRIPOS>PROPERTY_DATA
  Total_Score	| 11.4421
  Crash		| -1.2779
  Polar		| 8.0745
  FragIndex	| 1
  FragRMSD	| 0.426

