@<TRIPOS>MOLECULE
BindingDB_50309186
 48 50 0 0 0
SMALL
NO_CHARGES


@<TRIPOS>ATOM
1    C       -47.7002   16.9221   -6.0209  C     
2    C       -48.6178   16.0873   -5.3360  C     
3    N       -48.9289   14.8583   -5.8031  N     
4    C       -48.4482   14.3579   -6.9685  C     
5    C       -47.5930   15.1521   -7.7762  C     
6    C       -47.2227   16.4209   -7.2588  C     
7    N       -48.7826   13.0854   -7.2449  N     
8    C       -47.0822   14.7340   -9.0460  C     
9    C       -47.9048   14.1133  -10.0148  C     
10   C       -47.3970   13.7514  -11.2767  C     
11   C       -46.0474   14.0036  -11.6334  C     
12   C       -45.2275   14.6278  -10.6586  C     
13   C       -45.7293   14.9739   -9.3900  C     
14   C       -45.5511   13.6679  -12.8960  C     
15   N       -44.3973   14.1152  -13.3576  N     
16   O       -46.1721   12.9435  -13.6658  O     
17   C       -47.2795   18.1979   -5.4807  C     
18   C       -47.5268   18.5362   -4.1121  C     
19   C       -47.1869   19.7983   -3.5691  C     
20   C       -46.5223   20.7366   -4.3811  C     
21   C       -46.2160   20.4145   -5.7179  C     
22   C       -46.6071   19.1736   -6.2623  C     
23   O       -47.4169   20.1244   -2.2504  O     
24   C       -48.5204   19.4753   -1.5640  C     
25   C       -49.8939   19.7337   -2.2480  C     
26   O       -50.9358   19.0731   -1.4977  O     
27   C       -52.2723   19.4407   -1.8901  C     
28   H       -49.0677   16.3662   -4.4627  H     
29   H       -46.5637   16.9913   -7.7969  H     
30   H       -48.4097   12.6380   -8.0238  H     
31   H       -49.3445   12.5864   -6.6225  H     
32   H       -48.8920   13.9434   -9.8126  H     
33   H       -48.0359   13.3090  -11.9385  H     
34   H       -44.2409   14.8134  -10.8442  H     
35   H       -45.0887   15.4031   -8.7172  H     
36   H       -44.0994   13.8778  -14.2535  H     
37   H       -43.8468   14.6979  -12.8134  H     
38   H       -47.9746   17.8695   -3.4852  H     
39   H       -46.2705   21.6540   -4.0086  H     
40   H       -45.7395   21.0984   -6.3106  H     
41   H       -46.4243   19.0163   -7.2570  H     
42   H       -48.3267   18.3795   -1.4935  H     
43   H       -48.5551   19.8692   -0.5374  H     
44   H       -50.0753   20.8069   -2.2713  H     
45   H       -49.8448   19.3535   -3.2770  H     
46   H       -52.4077   20.5309   -1.9038  H     
47   H       -52.9702   19.0124   -1.1692  H     
48   H       -52.5157   19.0344   -2.8792  H     
@<TRIPOS>BOND
     1    1    2 2
     2    1    6 1
     3    1   17 1
     4    2    3 1
     5    3    4 2
     6    4    5 1
     7    4    7 1
     8    5    6 2
     9    5    8 1
    10    8    9 2
    11    8   13 1
    12    9   10 1
    13   10   11 2
    14   11   12 1
    15   11   14 1
    16   12   13 2
    17   14   15 am
    18   14   16 2
    19   17   18 2
    20   17   22 1
    21   18   19 1
    22   19   20 2
    23   19   23 1
    24   20   21 1
    25   21   22 2
    26   23   24 1
    27   24   25 1
    28   25   26 1
    29   26   27 1
    30    2   28 1
    31    6   29 1
    32    7   30 1
    33    7   31 1
    34    9   32 1
    35   10   33 1
    36   12   34 1
    37   13   35 1
    38   15   36 1
    39   15   37 1
    40   18   38 1
    41   20   39 1
    42   21   40 1
    43   22   41 1
    44   24   42 1
    45   24   43 1
    46   25   44 1
    47   25   45 1
    48   27   46 1
    49   27   47 1
    50   27   48 1
@<TRIPOS>PROPERTY_DATA
  Total_Score	| 10.2457
  Crash		| -1.2827
  Polar		| 4.4506
  FragIndex	| 1
  FragRMSD	| 0.452

