@<TRIPOS>MOLECULE
BindingDB_50309207
 33 35 0 0 0
SMALL
NO_CHARGES


@<TRIPOS>ATOM
1    C       -47.7928   16.9117   -6.0060  C     
2    C       -48.5673   16.0212   -5.2305  C     
3    N       -48.8194   14.7692   -5.6701  N     
4    C       -48.3881   14.2899   -6.8695  C     
5    C       -47.6577   15.1377   -7.7478  C     
6    C       -47.3721   16.4535   -7.2852  C     
7    N       -48.6506   12.9900   -7.1087  N     
8    C       -47.1836   14.7401   -9.0391  C     
9    C       -48.0351   14.1230   -9.9909  C     
10   C       -47.5591   13.8001  -11.2899  C     
11   C       -46.2192   14.0702  -11.6679  C     
12   C       -45.3778   14.6943  -10.7089  C     
13   C       -45.8467   15.0118   -9.4187  C     
14   C       -45.7268   13.7063  -12.9296  C     
15   N       -44.6085   14.1930  -13.4319  N     
16   O       -46.3166   12.8972  -13.6356  O     
17   C       -47.4210   18.1840   -5.4932  C     
18   N       -47.9786   18.7912   -4.4152  N     
19   C       -47.4342   19.9778   -4.0502  C     
20   C       -46.3591   20.3995   -4.8312  C     
21   S       -46.1298   19.2014   -6.0338  S     
22   H       -48.9072   16.2849   -4.3038  H     
23   H       -46.8631   17.1086   -7.8852  H     
24   H       -48.3101   12.5651   -7.8975  H     
25   H       -49.1704   12.4660   -6.4475  H     
26   H       -49.0161   13.9170   -9.7778  H     
27   H       -48.2208   13.3755  -11.9486  H     
28   H       -44.3971   14.9029  -10.9152  H     
29   H       -45.1939   15.4396   -8.7589  H     
30   H       -44.2759   13.8940  -14.2986  H     
31   H       -44.1276   14.8855  -12.9534  H     
32   H       -47.7769   20.5112   -3.2542  H     
33   H       -45.8131   21.2522   -4.7105  H     
@<TRIPOS>BOND
     1    1    2 2
     2    1    6 1
     3    1   17 1
     4    2    3 1
     5    3    4 2
     6    4    5 1
     7    4    7 1
     8    5    6 2
     9    5    8 1
    10    8    9 2
    11    8   13 1
    12    9   10 1
    13   10   11 2
    14   11   12 1
    15   11   14 1
    16   12   13 2
    17   14   15 am
    18   14   16 2
    19   17   18 2
    20   17   21 1
    21   18   19 1
    22   19   20 2
    23   20   21 1
    24    2   22 1
    25    6   23 1
    26    7   24 1
    27    7   25 1
    28    9   26 1
    29   10   27 1
    30   12   28 1
    31   13   29 1
    32   15   30 1
    33   15   31 1
    34   19   32 1
    35   20   33 1
@<TRIPOS>PROPERTY_DATA
  Total_Score	| 8.2233
  Crash		| -0.3931
  Polar		| 4.2976
  FragIndex	| 1
  FragRMSD	| 0.189

