@<TRIPOS>MOLECULE
BindingDB_50309208
 43 46 0 0 0
SMALL
NO_CHARGES


@<TRIPOS>ATOM
1    C       -47.8341   16.7476   -5.9549  C     
2    C       -48.5759   15.7616   -5.2505  C     
3    N       -48.8727   14.5640   -5.8064  N     
4    C       -48.4852   14.1929   -7.0489  C     
5    C       -47.7213   15.0890   -7.8424  C     
6    C       -47.4416   16.3665   -7.2737  C     
7    N       -48.8273   12.9436   -7.3989  N     
8    C       -47.1871   14.7439   -9.1243  C     
9    C       -47.9760   14.1732  -10.1487  C     
10   C       -47.4140   13.8504  -11.4033  C     
11   C       -46.0450   14.0965  -11.6973  C     
12   C       -45.2705   14.6850  -10.6652  C     
13   C       -45.8244   14.9914   -9.4091  C     
14   C       -45.4857   13.7696  -12.9383  C     
15   N       -44.2593   14.0905  -13.3037  N     
16   O       -46.1234   13.1535  -13.7853  O     
17   C       -47.4963   18.0251   -5.3449  C     
18   C       -48.1524   18.5058   -4.1718  C     
19   C       -47.8095   19.7273   -3.5603  C     
20   C       -46.8304   20.5589   -4.1501  C     
21   C       -46.1597   20.1105   -5.2982  C     
22   C       -46.4774   18.8647   -5.8758  C     
23   O       -48.4945   20.1236   -2.4305  O     
24   C       -47.8694   21.1549   -1.6392  C     
25   O       -46.4657   21.7505   -3.5658  O     
26   C       -47.3679   22.2847   -2.5689  C     
27   H       -48.8858   15.8982   -4.2919  H     
28   H       -46.9444   17.0433   -7.8566  H     
29   H       -48.5416   12.5725   -8.2401  H     
30   H       -49.3636   12.4074   -6.7854  H     
31   H       -48.9706   13.9979   -9.9956  H     
32   H       -48.0330   13.4401  -12.1106  H     
33   H       -44.2767   14.8906  -10.8108  H     
34   H       -45.2080   15.3932   -8.6969  H     
35   H       -43.9345   13.8556  -14.1875  H     
36   H       -43.6734   14.5752  -12.7023  H     
37   H       -48.9091   17.9791   -3.7397  H     
38   H       -45.4249   20.6842   -5.7208  H     
39   H       -45.9306   18.5738   -6.6872  H     
40   H       -48.5870   21.5503   -0.9225  H     
41   H       -47.0272   20.7396   -1.0858  H     
42   H       -48.2191   22.7549   -3.0643  H     
43   H       -46.8507   23.0409   -1.9860  H     
@<TRIPOS>BOND
     1    1    2 2
     2    1    6 1
     3    1   17 1
     4    2    3 1
     5    3    4 2
     6    4    5 1
     7    4    7 1
     8    5    6 2
     9    5    8 1
    10    8    9 2
    11    8   13 1
    12    9   10 1
    13   10   11 2
    14   11   12 1
    15   11   14 1
    16   12   13 2
    17   14   15 am
    18   14   16 2
    19   17   18 2
    20   17   22 1
    21   18   19 1
    22   19   20 2
    23   19   23 1
    24   20   21 1
    25   20   25 1
    26   21   22 2
    27   23   24 1
    28   24   26 1
    29   25   26 1
    30    2   27 1
    31    6   28 1
    32    7   29 1
    33    7   30 1
    34    9   31 1
    35   10   32 1
    36   12   33 1
    37   13   34 1
    38   15   35 1
    39   15   36 1
    40   18   37 1
    41   21   38 1
    42   22   39 1
    43   24   40 1
    44   24   41 1
    45   26   42 1
    46   26   43 1
@<TRIPOS>PROPERTY_DATA
  Total_Score	| 8.3448
  Crash		| -0.6966
  Polar		| 4.5876
  FragIndex	| 1
  FragRMSD	| 0.924

