@<TRIPOS>MOLECULE
BindingDB_50309219
 40 43 0 0 0
SMALL
NO_CHARGES


@<TRIPOS>ATOM
1    C       -47.7927   16.7889   -5.9951  C     
2    C       -48.5945   15.8730   -5.2891  C     
3    N       -48.8932   14.6682   -5.8156  N     
4    C       -48.4716   14.2465   -7.0371  C     
5    C       -47.6778   15.1104   -7.8502  C     
6    C       -47.3670   16.3861   -7.2969  C     
7    N       -48.8046   12.9723   -7.3169  N     
8    C       -47.1674   14.7455   -9.1554  C     
9    C       -47.9667   14.1060  -10.1300  C     
10   C       -47.4432   13.7662  -11.4068  C     
11   C       -46.1077   14.0748  -11.7526  C     
12   C       -45.3203   14.7475  -10.7931  C     
13   C       -45.8357   15.0578   -9.5135  C     
14   C       -45.5675   13.7192  -12.9915  C     
15   N       -44.4151   14.1614  -13.4625  N     
16   O       -46.1484   12.9275  -13.7274  O     
17   C       -47.3885   18.0234   -5.4132  C     
18   S       -46.0859   19.0237   -5.9461  S     
19   C       -47.9273   18.6564   -4.2739  C     
20   C       -46.2414   20.2328   -4.7398  C     
21   C       -47.3125   19.8668   -3.9100  C     
22   C       -47.6714   20.7042   -2.8354  C     
23   C       -46.9463   21.8941   -2.6117  C     
24   C       -45.8638   22.2417   -3.4526  C     
25   C       -45.5006   21.4061   -4.5278  C     
26   H       -48.9256   16.0677   -4.3503  H     
27   H       -46.8250   17.0530   -7.8427  H     
28   H       -48.5012   12.5273   -8.1100  H     
29   H       -49.3587   12.4658   -6.6768  H     
30   H       -48.9407   13.8809   -9.9546  H     
31   H       -48.0709   13.3130  -12.0715  H     
32   H       -44.3519   15.0033  -10.9920  H     
33   H       -45.1932   15.5069   -8.8589  H     
34   H       -44.0930   13.8630  -14.3259  H     
35   H       -43.8806   14.7906  -12.9519  H     
36   H       -48.7193   18.2827   -3.7577  H     
37   H       -48.4540   20.4604   -2.2219  H     
38   H       -47.2058   22.5134   -1.8394  H     
39   H       -45.3443   23.1091   -3.2845  H     
40   H       -44.7215   21.6491   -5.1417  H     
@<TRIPOS>BOND
     1    1    2 2
     2    1    6 1
     3    1   17 1
     4    2    3 1
     5    3    4 2
     6    4    5 1
     7    4    7 1
     8    5    6 2
     9    5    8 1
    10    8    9 2
    11    8   13 1
    12    9   10 1
    13   10   11 2
    14   11   12 1
    15   11   14 1
    16   12   13 2
    17   14   15 am
    18   14   16 2
    19   17   18 1
    20   17   19 2
    21   18   20 1
    22   19   21 1
    23   20   21 2
    24   20   25 1
    25   21   22 1
    26   22   23 2
    27   23   24 1
    28   24   25 2
    29    2   26 1
    30    6   27 1
    31    7   28 1
    32    7   29 1
    33    9   30 1
    34   10   31 1
    35   12   32 1
    36   13   33 1
    37   15   34 1
    38   15   35 1
    39   19   36 1
    40   22   37 1
    41   23   38 1
    42   24   39 1
    43   25   40 1
@<TRIPOS>PROPERTY_DATA
  Total_Score	| 8.6178
  Crash		| -0.2943
  Polar		| 4.5588
  FragIndex	| 1
  FragRMSD	| 0.114

