@<TRIPOS>MOLECULE
BindingDB_50309190
 45 47 0 0 0
SMALL
NO_CHARGES


@<TRIPOS>ATOM
1    C       -47.3077   14.8241   -9.0264  C     
2    N       -46.0350   14.9558   -9.4002  N     
3    O       -48.1442   14.4176   -9.8247  O     
4    C       -47.7441   16.7508   -5.8361  C     
5    C       -48.5474   15.8192   -5.1379  C     
6    N       -48.9230   14.6545   -5.7148  N     
7    C       -48.5629   14.2902   -6.9678  C     
8    C       -47.7193   15.1379   -7.7327  C     
9    C       -47.3333   16.3672   -7.1394  C     
10   N       -49.0110   13.0953   -7.3917  N     
11   C       -47.3641   18.0126   -5.2732  C     
12   C       -46.2653   20.3172   -4.7772  C     
13   S       -46.1641   19.0610   -5.9412  S     
14   C       -47.2268   19.9276   -3.8471  C     
15   C       -47.8453   18.6806   -4.1233  C     
16   O       -48.7993   18.1657   -3.2737  O     
17   C       -49.4009   19.0953   -2.3437  C     
18   C       -48.3396   20.0590   -1.7477  C     
19   O       -47.5998   20.7313   -2.7935  O     
20   C       -45.5202   14.7294  -10.7219  C     
21   C       -43.9752   14.8962  -10.8049  C     
22   N       -43.3505   15.0203  -12.1702  N     
23   C       -44.2153   14.5671  -13.3017  C     
24   C       -42.7439   16.3529  -12.4377  C     
25   H       -45.4004   15.2189   -8.7077  H     
26   H       -48.8563   15.9833   -4.1827  H     
27   H       -46.7718   17.0142   -7.6976  H     
28   H       -48.7609   12.7592   -8.2684  H     
29   H       -49.5886   12.5639   -6.8197  H     
30   H       -45.7237   21.1860   -4.7695  H     
31   H       -50.1686   19.6730   -2.8648  H     
32   H       -49.8775   18.5243   -1.5436  H     
33   H       -48.8280   20.8115   -1.1255  H     
34   H       -47.6453   19.4926   -1.1204  H     
35   H       -45.7808   13.7191  -11.0420  H     
36   H       -45.9962   15.4331  -11.4085  H     
37   H       -43.7042   15.7620  -10.1879  H     
38   H       -43.5165   14.0329  -10.3185  H     
39   H       -42.5599   14.3686  -12.1858  H     
40   H       -44.6285   13.5789  -13.0988  H     
41   H       -43.6203   14.4822  -14.2249  H     
42   H       -45.0360   15.2646  -13.4836  H     
43   H       -43.4970   17.1440  -12.4170  H     
44   H       -42.2428   16.3651  -13.4104  H     
45   H       -41.9820   16.5717  -11.6878  H     
@<TRIPOS>BOND
     1    1    2 am
     2    1    3 2
     3    1    8 1
     4    2   20 1
     5    4    5 2
     6    4    9 1
     7    4   11 1
     8    5    6 1
     9    6    7 2
    10    7    8 1
    11    7   10 1
    12    8    9 2
    13   11   13 1
    14   11   15 2
    15   12   13 1
    16   12   14 2
    17   14   15 1
    18   14   19 1
    19   15   16 1
    20   16   17 1
    21   17   18 1
    22   18   19 1
    23   20   21 1
    24   21   22 1
    25   22   23 1
    26   22   24 1
    27    2   25 1
    28    5   26 1
    29    9   27 1
    30   10   28 1
    31   10   29 1
    32   12   30 1
    33   17   31 1
    34   17   32 1
    35   18   33 1
    36   18   34 1
    37   20   35 1
    38   20   36 1
    39   21   37 1
    40   21   38 1
    41   22   39 1
    42   23   40 1
    43   23   41 1
    44   23   42 1
    45   24   43 1
    46   24   44 1
    47   24   45 1
@<TRIPOS>PROPERTY_DATA
  Total_Score	| 7.3521
  Crash		| -1.2925
  Polar		| 3.4979
  FragIndex	| 1
  FragRMSD	| 0.236

