@<TRIPOS>MOLECULE
BindingDB_50309184
 34 36 0 0 0
SMALL
NO_CHARGES


@<TRIPOS>ATOM
1    C       -47.8219   16.7771   -5.9978  C     
2    C       -48.5865   15.8624   -5.2407  C     
3    N       -48.9852   14.6946   -5.7896  N     
4    C       -48.6620   14.2880   -7.0447  C     
5    C       -47.7913   15.0943   -7.8510  C     
6    C       -47.4526   16.3654   -7.3027  C     
7    N       -49.2786   13.1274   -7.3672  N     
8    C       -47.2160   14.7021   -9.1329  C     
9    C       -45.8425   14.9355   -9.4388  C     
10   C       -45.2796   14.6267  -10.6942  C     
11   C       -46.0501   14.0155  -11.7142  C     
12   C       -47.3986   13.7160  -11.3966  C     
13   C       -47.9588   14.0549  -10.1488  C     
14   C       -45.5168   13.7149  -12.9714  C     
15   N       -44.3304   14.1534  -13.3727  N     
16   O       -46.1319   13.0212  -13.7760  O     
17   C       -47.4083   18.0360   -5.4603  C     
18   C       -47.9213   18.7082   -4.3343  C     
19   C       -47.3228   19.9440   -4.0379  C     
20   C       -46.3010   20.3154   -4.9148  C     
21   S       -46.1733   19.0637   -6.0869  S     
22   H       -48.8691   16.0634   -4.2826  H     
23   H       -46.9333   17.0255   -7.8729  H     
24   H       -49.3295   12.8064   -8.2752  H     
25   H       -49.8245   12.6874   -6.6924  H     
26   H       -45.2103   15.3206   -8.7339  H     
27   H       -44.2941   14.8601  -10.8490  H     
28   H       -47.9999   13.2564  -12.0888  H     
29   H       -48.9262   13.8128   -9.9996  H     
30   H       -43.9989   13.9122  -14.2568  H     
31   H       -43.7889   14.7187  -12.8074  H     
32   H       -48.6913   18.3449   -3.7637  H     
33   H       -47.6141   20.5211   -3.2486  H     
34   H       -45.7491   21.1749   -4.8770  H     
@<TRIPOS>BOND
     1    1    2 2
     2    1    6 1
     3    1   17 1
     4    2    3 1
     5    3    4 2
     6    4    5 1
     7    4    7 1
     8    5    6 2
     9    5    8 1
    10    8    9 2
    11    8   13 1
    12    9   10 1
    13   10   11 2
    14   11   12 1
    15   11   14 1
    16   12   13 2
    17   14   15 am
    18   14   16 2
    19   17   18 2
    20   17   21 1
    21   18   19 1
    22   19   20 2
    23   20   21 1
    24    2   22 1
    25    6   23 1
    26    7   24 1
    27    7   25 1
    28    9   26 1
    29   10   27 1
    30   12   28 1
    31   13   29 1
    32   15   30 1
    33   15   31 1
    34   18   32 1
    35   19   33 1
    36   20   34 1
@<TRIPOS>PROPERTY_DATA
  Total_Score	| 8.5099
  Crash		| -0.4588
  Polar		| 4.7740
  FragIndex	| 1
  FragRMSD	| 0.151

