@<TRIPOS>MOLECULE
BindingDB_50309199
 33 35 0 0 0
SMALL
NO_CHARGES


@<TRIPOS>ATOM
1    C       -47.7870   16.8064   -5.9057  C     
2    C       -48.6300   15.8989   -5.2297  C     
3    N       -48.9298   14.6986   -5.7718  N     
4    C       -48.4666   14.2837   -6.9744  C     
5    C       -47.6292   15.1337   -7.7446  C     
6    C       -47.3005   16.3924   -7.1735  C     
7    N       -48.8178   13.0310   -7.3109  N     
8    C       -47.1101   14.7703   -9.0339  C     
9    C       -45.7595   15.0146   -9.3683  C     
10   C       -45.2402   14.6963  -10.6381  C     
11   C       -46.0427   14.0947  -11.6377  C     
12   C       -47.4008   13.8491  -11.2964  C     
13   C       -47.9249   14.2053  -10.0382  C     
14   C       -45.5238   13.7470  -12.8968  C     
15   N       -44.3159   14.0804  -13.3048  N     
16   O       -46.1862   13.1199  -13.7140  O     
17   C       -47.4354   18.0656   -5.3311  C     
18   C       -47.9637   18.7081   -4.1931  C     
19   N       -47.4240   19.9123   -3.8689  N     
20   C       -46.4398   20.3298   -4.6880  C     
21   S       -46.2098   19.1367   -5.9012  S     
22   H       -49.0107   16.1069   -4.3114  H     
23   H       -46.7210   17.0300   -7.7174  H     
24   H       -48.4762   12.6204   -8.1200  H     
25   H       -49.3977   12.5272   -6.7149  H     
26   H       -45.1236   15.4301   -8.6803  H     
27   H       -44.2535   14.8912  -10.8099  H     
28   H       -48.0392   13.4220  -11.9757  H     
29   H       -48.9178   14.0567   -9.8593  H     
30   H       -44.0149   13.8440  -14.1989  H     
31   H       -43.7228   14.5762  -12.7224  H     
32   H       -48.7260   18.3250   -3.6309  H     
33   H       -45.9155   21.2005   -4.6027  H     
@<TRIPOS>BOND
     1    1    2 2
     2    1    6 1
     3    1   17 1
     4    2    3 1
     5    3    4 2
     6    4    5 1
     7    4    7 1
     8    5    6 2
     9    5    8 1
    10    8    9 2
    11    8   13 1
    12    9   10 1
    13   10   11 2
    14   11   12 1
    15   11   14 1
    16   12   13 2
    17   14   15 am
    18   14   16 2
    19   17   18 2
    20   17   21 1
    21   18   19 1
    22   19   20 2
    23   20   21 1
    24    2   22 1
    25    6   23 1
    26    7   24 1
    27    7   25 1
    28    9   26 1
    29   10   27 1
    30   12   28 1
    31   13   29 1
    32   15   30 1
    33   15   31 1
    34   18   32 1
    35   20   33 1
@<TRIPOS>PROPERTY_DATA
  Total_Score	| 8.1541
  Crash		| -0.5289
  Polar		| 4.5235
  FragIndex	| 1
  FragRMSD	| 0.086

