@<TRIPOS>MOLECULE
BindingDB_50385915
 60 62 0 0 0
SMALL
NO_CHARGES


@<TRIPOS>ATOM
1    C       -48.4235   13.7911   -8.6399  C     
2    C       -47.3536   14.6049   -9.0355  C     
3    C       -47.0145   15.6668   -8.1654  C     
4    C       -47.7655   15.9932   -6.9887  C     
5    C       -48.7827   15.0499   -6.6505  C     
6    N       -49.0723   14.0350   -7.4839  N     
7    N       -49.5513   14.9921   -5.5539  N     
8    C       -47.5219   17.2472   -6.2673  C     
9    C       -47.8041   17.4994   -4.8925  C     
10   C       -47.4722   18.6957   -4.2273  C     
11   C       -46.7709   19.7140   -4.9174  C     
12   C       -46.5928   19.5438   -6.3086  C     
13   C       -46.9849   18.3622   -6.9584  C     
14   C       -46.2586   20.8438   -4.2715  C     
15   O       -45.7072   20.7426   -3.1882  O     
16   N       -46.2629   22.0493   -4.7963  N     
17   O       -47.7592   18.7695   -2.8864  O     
18   C       -48.9148   19.5579   -2.4841  C     
19   C       -49.4180   18.9944   -1.2328  C     
20   C       -48.5122   21.0411   -2.2533  C     
21   C       -46.7004   14.3750  -10.2709  C     
22   C       -45.4204   14.7485  -10.7142  C     
23   C       -45.0668   14.3030  -12.0090  C     
24   C       -46.0888   13.5780  -12.6404  C     
25   S       -47.4195   13.5133  -11.5713  S     
26   C       -43.6919   14.4116  -12.5893  C     
27   N       -43.5177   15.1753  -13.8814  N     
28   C       -44.7675   15.7114  -14.4984  C     
29   C       -42.4338   16.2100  -13.8085  C     
30   C       -50.6823   18.9990   -0.7659  C     
31   C       -51.8512   19.6156   -1.3693  C     
32   F       -52.9669   19.4235   -0.5881  F     
33   F       -51.6927   20.9726   -1.4988  F     
34   F       -52.1388   19.0814   -2.5983  F     
35   H       -48.7431   12.9941   -9.1874  H     
36   H       -46.2093   16.2271   -8.4258  H     
37   H       -50.2252   14.3006   -5.4918  H     
38   H       -49.3794   15.5540   -4.7974  H     
39   H       -48.2501   16.8129   -4.3012  H     
40   H       -46.1453   20.2732   -6.8734  H     
41   H       -46.8491   18.3473   -7.9668  H     
42   H       -45.8276   22.7739   -4.3233  H     
43   H       -46.6929   22.2199   -5.6453  H     
44   H       -49.6936   19.5208   -3.2510  H     
45   H       -48.7302   18.5931   -0.6327  H     
46   H       -47.6554   21.1077   -1.5756  H     
47   H       -49.3347   21.6108   -1.8210  H     
48   H       -48.2482   21.5229   -3.1951  H     
49   H       -44.7605   15.2407  -10.1123  H     
50   H       -46.0568   13.1268  -13.5505  H     
51   H       -43.0136   14.8324  -11.8356  H     
52   H       -43.3308   13.3976  -12.7720  H     
53   H       -43.2049   14.4732  -14.5706  H     
54   H       -45.5187   14.9205  -14.5343  H     
55   H       -44.5863   16.0103  -15.5326  H     
56   H       -45.1430   16.5640  -13.9301  H     
57   H       -42.6553   16.9503  -13.0319  H     
58   H       -42.3256   16.7210  -14.7717  H     
59   H       -41.4760   15.7276  -13.5774  H     
60   H       -50.8197   18.5598    0.1134  H     
@<TRIPOS>BOND
     1    1    2 2
     2    1    6 1
     3    2    3 1
     4    2   21 1
     5    3    4 2
     6    4    5 1
     7    4    8 1
     8    5    6 2
     9    5    7 1
    10    8    9 2
    11    8   13 1
    12    9   10 1
    13   10   11 2
    14   10   17 1
    15   11   12 1
    16   11   14 1
    17   12   13 2
    18   14   15 2
    19   14   16 am
    20   17   18 1
    21   18   19 1
    22   18   20 1
    23   19   30 2
    24   21   22 2
    25   21   25 1
    26   22   23 1
    27   23   24 2
    28   23   26 1
    29   24   25 1
    30   26   27 1
    31   27   28 1
    32   27   29 1
    33   30   31 1
    34   31   32 1
    35   31   33 1
    36   31   34 1
    37    1   35 1
    38    3   36 1
    39    7   37 1
    40    7   38 1
    41    9   39 1
    42   12   40 1
    43   13   41 1
    44   16   42 1
    45   16   43 1
    46   18   44 1
    47   19   45 1
    48   20   46 1
    49   20   47 1
    50   20   48 1
    51   22   49 1
    52   24   50 1
    53   26   51 1
    54   26   52 1
    55   27   53 1
    56   28   54 1
    57   28   55 1
    58   28   56 1
    59   29   57 1
    60   29   58 1
    61   29   59 1
    62   30   60 1
@<TRIPOS>PROPERTY_DATA
  Total_Score	| 4.9984
  Crash		| -4.0639
  Polar		| 3.3164
  FragIndex	| 1
  FragRMSD	| 1.345

