@<TRIPOS>MOLECULE
BindingDB_50309210
 41 43 0 0 0
SMALL
NO_CHARGES


@<TRIPOS>ATOM
1    C       -47.7934   16.9199   -5.9899  C     
2    C       -48.5136   15.9456   -5.2416  C     
3    N       -48.8084   14.7248   -5.7369  N     
4    C       -48.4379   14.3105   -6.9674  C     
5    C       -47.6960   15.1874   -7.8010  C     
6    C       -47.4260   16.4870   -7.2975  C     
7    N       -48.7596   13.0427   -7.2658  N     
8    C       -47.1641   14.7926   -9.0673  C     
9    C       -47.9609   14.1887  -10.0636  C     
10   C       -47.4080   13.8198  -11.3048  C     
11   C       -46.0405   14.0507  -11.6149  C     
12   C       -45.2474   14.6473  -10.5967  C     
13   C       -45.7948   15.0160   -9.3624  C     
14   C       -45.5030   13.7136  -12.8654  C     
15   N       -44.2765   14.0152  -13.2408  N     
16   O       -46.1728   13.1339  -13.7114  O     
17   C       -47.4506   18.2290   -5.4358  C     
18   C       -48.0119   18.7204   -4.2194  C     
19   C       -47.6433   19.9546   -3.6414  C     
20   C       -46.7374   20.7893   -4.3133  C     
21   C       -46.1726   20.3668   -5.5257  C     
22   C       -46.5145   19.1117   -6.0605  C     
23   O       -48.2100   20.3924   -2.4739  O     
24   C       -47.7070   19.7046   -1.3174  C     
25   H       -48.8137   16.0943   -4.2860  H     
26   H       -46.9554   17.1255   -7.9328  H     
27   H       -48.4886   12.6602   -8.1130  H     
28   H       -49.2649   12.5044   -6.6282  H     
29   H       -48.9582   14.0184   -9.8959  H     
30   H       -48.0340   13.3825  -11.9883  H     
31   H       -44.2474   14.8126  -10.7382  H     
32   H       -45.1804   15.4406   -8.6601  H     
33   H       -43.9667   13.7849  -14.1312  H     
34   H       -43.6793   14.4832  -12.6413  H     
35   H       -48.7261   18.2059   -3.7131  H     
36   H       -46.4821   21.6988   -3.9182  H     
37   H       -45.5014   20.9706   -6.0080  H     
38   H       -46.0336   18.8696   -6.9251  H     
39   H       -47.9586   18.6398   -1.3481  H     
40   H       -48.1803   20.1354   -0.4337  H     
41   H       -46.6263   19.8213   -1.2187  H     
@<TRIPOS>BOND
     1    1    2 2
     2    1    6 1
     3    1   17 1
     4    2    3 1
     5    3    4 2
     6    4    5 1
     7    4    7 1
     8    5    6 2
     9    5    8 1
    10    8    9 2
    11    8   13 1
    12    9   10 1
    13   10   11 2
    14   11   12 1
    15   11   14 1
    16   12   13 2
    17   14   15 am
    18   14   16 2
    19   17   18 2
    20   17   22 1
    21   18   19 1
    22   19   20 2
    23   19   23 1
    24   20   21 1
    25   21   22 2
    26   23   24 1
    27    2   25 1
    28    6   26 1
    29    7   27 1
    30    7   28 1
    31    9   29 1
    32   10   30 1
    33   12   31 1
    34   13   32 1
    35   15   33 1
    36   15   34 1
    37   18   35 1
    38   20   36 1
    39   21   37 1
    40   22   38 1
    41   24   39 1
    42   24   40 1
    43   24   41 1
@<TRIPOS>PROPERTY_DATA
  Total_Score	| 8.6136
  Crash		| -0.6326
  Polar		| 4.5332
  FragIndex	| 1
  FragRMSD	| 0.246

