@<TRIPOS>MOLECULE
BindingDB_50309206
 42 44 0 0 0
SMALL
NO_CHARGES


@<TRIPOS>ATOM
1    C       -47.7833   16.9823   -5.9563  C     
2    C       -48.5451   16.0476   -5.1860  C     
3    N       -48.8551   14.8278   -5.6691  N     
4    C       -48.4915   14.3723   -6.8862  C     
5    C       -47.7361   15.2125   -7.7390  C     
6    C       -47.4304   16.5150   -7.2556  C     
7    N       -48.8235   13.0974   -7.1321  N     
8    C       -47.2125   14.7968   -9.0016  C     
9    C       -45.8545   15.0250   -9.3085  C     
10   C       -45.3289   14.6756  -10.5622  C     
11   C       -46.1336   14.0619  -11.5580  C     
12   C       -47.4968   13.8322  -11.2337  C     
13   C       -48.0290   14.1906   -9.9836  C     
14   C       -45.6062   13.7055  -12.8104  C     
15   N       -44.3890   14.0135  -13.1964  N     
16   O       -46.2728   13.0852  -13.6313  O     
17   C       -47.4116   18.3116   -5.4365  C     
18   C       -46.4313   19.1421   -6.0825  C     
19   C       -46.1171   20.4571   -5.6541  C     
20   C       -46.7411   20.9514   -4.4922  C     
21   C       -47.6621   20.1496   -3.7859  C     
22   C       -47.9993   18.8677   -4.2598  C     
23   O       -45.2184   21.3047   -6.2710  O     
24   C       -44.7954   21.1187   -7.6450  C     
25   O       -46.4764   22.1823   -4.0261  O     
26   H       -48.8456   16.2575   -4.2344  H     
27   H       -46.9278   17.1490   -7.8961  H     
28   H       -48.5386   12.6763   -7.9477  H     
29   H       -49.3324   12.6037   -6.4695  H     
30   H       -45.2251   15.4471   -8.6177  H     
31   H       -44.3331   14.8667  -10.7243  H     
32   H       -48.1253   13.4047  -11.9150  H     
33   H       -49.0186   14.0239   -9.7996  H     
34   H       -44.0693   13.7522  -14.0769  H     
35   H       -43.7968   14.4980  -12.6024  H     
36   H       -45.9149   18.8015   -6.9195  H     
37   H       -48.1276   20.5090   -2.9535  H     
38   H       -48.7164   18.3552   -3.7325  H     
39   H       -44.1151   20.2743   -7.7221  H     
40   H       -44.2782   22.0347   -7.9838  H     
41   H       -45.6465   20.9590   -8.3124  H     
42   H       -47.1963   22.7325   -4.4155  H     
@<TRIPOS>BOND
     1    1    2 2
     2    1    6 1
     3    1   17 1
     4    2    3 1
     5    3    4 2
     6    4    5 1
     7    4    7 1
     8    5    6 2
     9    5    8 1
    10    8    9 2
    11    8   13 1
    12    9   10 1
    13   10   11 2
    14   11   12 1
    15   11   14 1
    16   12   13 2
    17   14   15 am
    18   14   16 2
    19   17   18 2
    20   17   22 1
    21   18   19 1
    22   19   20 2
    23   19   23 1
    24   20   21 1
    25   20   25 1
    26   21   22 2
    27   23   24 1
    28    2   26 1
    29    6   27 1
    30    7   28 1
    31    7   29 1
    32    9   30 1
    33   10   31 1
    34   12   32 1
    35   13   33 1
    36   15   34 1
    37   15   35 1
    38   18   36 1
    39   21   37 1
    40   22   38 1
    41   24   39 1
    42   24   40 1
    43   24   41 1
    44   25   42 1
@<TRIPOS>PROPERTY_DATA
  Total_Score	| 8.9647
  Crash		| -0.5836
  Polar		| 4.4789
  FragIndex	| 1
  FragRMSD	| 0.137

