@<TRIPOS>MOLECULE
BindingDB_50309197
 43 46 0 0 0
SMALL
NO_CHARGES


@<TRIPOS>ATOM
1    C       -47.8060   16.8700   -5.9801  C     
2    C       -48.3767   15.8724   -5.1447  C     
3    N       -48.7230   14.6593   -5.6388  N     
4    C       -48.5065   14.2695   -6.9232  C     
5    C       -47.8811   15.1730   -7.8257  C     
6    C       -47.6023   16.4767   -7.3396  C     
7    N       -48.8426   13.0114   -7.2217  N     
8    C       -47.3759   14.7604   -9.1048  C     
9    C       -46.0080   14.9758   -9.3854  C     
10   C       -45.4493   14.5921  -10.6154  C     
11   C       -46.2192   13.9683  -11.6223  C     
12   C       -47.5931   13.7398  -11.3325  C     
13   C       -48.1645   14.1321  -10.0984  C     
14   C       -45.6429   13.6179  -12.8541  C     
15   N       -44.4369   13.9975  -13.2334  N     
16   O       -46.2528   12.9439  -13.6706  O     
17   C       -47.4035   18.1700   -5.4522  C     
18   C       -46.4595   20.7031   -4.4725  C     
19   C       -45.8952   20.1370   -5.6221  C     
20   C       -46.3413   18.8856   -6.0890  C     
21   C       -47.4710   20.0165   -3.7780  C     
22   C       -47.9684   18.7712   -4.2699  C     
23   O       -48.9578   18.1052   -3.5446  O     
24   C       -49.5182   18.7961   -2.3811  C     
25   C       -48.4784   19.6973   -1.6696  C     
26   O       -47.9617   20.6193   -2.6356  O     
27   H       -48.5009   16.0433   -4.1365  H     
28   H       -47.2214   17.1700   -7.9972  H     
29   H       -48.6765   12.6665   -8.1132  H     
30   H       -49.3041   12.4681   -6.5558  H     
31   H       -45.3908   15.4057   -8.6882  H     
32   H       -44.4586   14.7754  -10.7557  H     
33   H       -48.2071   13.3093  -12.0283  H     
34   H       -49.1640   13.9654   -9.9393  H     
35   H       -44.1099   13.7547  -14.1165  H     
36   H       -43.8699   14.5216  -12.6464  H     
37   H       -46.1284   21.6181   -4.1390  H     
38   H       -45.1396   20.6283   -6.1197  H     
39   H       -45.8482   18.5032   -6.8990  H     
40   H       -50.3659   19.4137   -2.6932  H     
41   H       -49.8858   18.0503   -1.6740  H     
42   H       -48.9465   20.2722   -0.8680  H     
43   H       -47.6653   19.0982   -1.2461  H     
@<TRIPOS>BOND
     1    1    2 2
     2    1    6 1
     3    1   17 1
     4    2    3 1
     5    3    4 2
     6    4    5 1
     7    4    7 1
     8    5    6 2
     9    5    8 1
    10    8    9 2
    11    8   13 1
    12    9   10 1
    13   10   11 2
    14   11   12 1
    15   11   14 1
    16   12   13 2
    17   14   15 am
    18   14   16 2
    19   17   20 1
    20   17   22 2
    21   18   19 1
    22   18   21 2
    23   19   20 2
    24   21   22 1
    25   21   26 1
    26   22   23 1
    27   23   24 1
    28   24   25 1
    29   25   26 1
    30    2   27 1
    31    6   28 1
    32    7   29 1
    33    7   30 1
    34    9   31 1
    35   10   32 1
    36   12   33 1
    37   13   34 1
    38   15   35 1
    39   15   36 1
    40   18   37 1
    41   19   38 1
    42   20   39 1
    43   24   40 1
    44   24   41 1
    45   25   42 1
    46   25   43 1
@<TRIPOS>PROPERTY_DATA
  Total_Score	| 9.5969
  Crash		| -0.9057
  Polar		| 4.5016
  FragIndex	| 1
  FragRMSD	| 0.231

