@<TRIPOS>MOLECULE
BindingDB_50017858
 18 18 0 0 0
SMALL
NO_CHARGES


@<TRIPOS>ATOM
1    C       -11.7640   38.7913   62.7165  C     
2    N       -12.0235   40.0706   63.1232  N     
3    C       -10.5922   38.0908   63.1131  C     
4    C       -12.6876   38.1101   61.8807  C     
5    C       -12.4730   36.7813   61.4390  C     
6    C       -10.3632   36.7694   62.6878  C     
7    C       -13.4157   36.1251   60.6063  C     
8    C       -11.2909   36.1247   61.8559  C     
9    O       -13.0968   40.7197   62.7746  O     
10   O       -11.2929   40.7087   63.8337  O     
11   O       -14.5637   36.7168   60.2046  O     
12   O        -9.6430   38.6585   63.8891  O     
13   O        -9.2406   36.1322   63.1064  O     
14   O       -13.2108   34.8684   60.1551  O     
15   H       -13.5362   38.5946   61.5830  H     
16   H       -11.0975   35.1655   61.5528  H     
17   H        -9.7428   38.2236   64.7651  H     
18   H        -9.4308   35.1768   63.0341  H     
@<TRIPOS>BOND
     1    1    2 am
     2    1    3 1
     3    1    4 2
     4    2    9 1
     5    2   10 2
     6    3    6 2
     7    3   12 1
     8    4    5 1
     9    5    7 1
    10    5    8 2
    11    6    8 1
    12    6   13 1
    13    7   11 2
    14    7   14 1
    15    4   15 1
    16    8   16 1
    17   12   17 1
    18   13   18 1
@<TRIPOS>PROPERTY_DATA
  Total_Score	| 4.2388
  Crash		| -0.4175
  Polar		| 4.4611
  FragIndex	| 1
  FragRMSD	| 1.034

