@<TRIPOS>MOLECULE
BindingDB_50017853
 30 30 0 0 0
SMALL
NO_CHARGES


@<TRIPOS>ATOM
1    C       -11.7806   38.7946   62.7384  C     
2    N       -12.0286   40.0786   63.1424  N     
3    C       -10.5980   38.0904   63.0914  C     
4    C       -10.3809   36.7652   62.6595  C     
5    C       -12.7334   38.1037   61.9445  C     
6    O       -13.1204   40.7156   62.8259  O     
7    O       -11.2791   40.7203   63.8309  O     
8    C       -11.3625   36.1080   61.8935  C     
9    C       -17.5110   35.4960   63.6959  C     
10   C       -12.5725   36.7516   61.5540  C     
11   O       -18.1360   36.6236   64.1017  O     
12   O        -9.6415   38.6480   63.8724  O     
13   O        -9.2426   36.1258   63.0175  O     
14   O       -17.7729   34.3549   64.3891  O     
15   C       -16.8559   35.4366   62.3799  C     
16   C       -13.6022   35.9826   60.7840  C     
17   C       -15.7757   36.5387   62.1843  C     
18   C       -15.0651   36.5062   60.7876  C     
19   H       -13.5758   38.5972   61.6447  H     
20   H       -11.1908   35.1452   61.5976  H     
21   H        -9.9776   38.5349   64.7891  H     
22   H        -9.4057   35.1712   62.8690  H     
23   H       -16.4017   34.4492   62.2423  H     
24   H       -17.6286   35.5610   61.6155  H     
25   H       -13.2589   35.9392   59.7455  H     
26   H       -13.6311   34.9517   61.1568  H     
27   H       -16.2741   37.5051   62.2865  H     
28   H       -15.0439   36.4609   62.9919  H     
29   H       -15.0650   37.5122   60.3651  H     
30   H       -15.6481   35.8933   60.0915  H     
@<TRIPOS>BOND
     1    1    2 am
     2    1    3 1
     3    1    5 2
     4    2    6 1
     5    2    7 2
     6    3    4 2
     7    3   12 1
     8    4    8 1
     9    4   13 1
    10    5   10 1
    11    8   10 2
    12    9   11 2
    13    9   14 1
    14    9   15 1
    15   10   16 1
    16   15   17 1
    17   16   18 1
    18   17   18 1
    19    5   19 1
    20    8   20 1
    21   12   21 1
    22   13   22 1
    23   15   23 1
    24   15   24 1
    25   16   25 1
    26   16   26 1
    27   17   27 1
    28   17   28 1
    29   18   29 1
    30   18   30 1
@<TRIPOS>PROPERTY_DATA
  Total_Score	| 4.4689
  Crash		| -0.4236
  Polar		| 4.3911
  FragIndex	| 1
  FragRMSD	| 0.931

