@<TRIPOS>MOLECULE
BindingDB_50017871
 22 22 0 0 0
SMALL
NO_CHARGES


@<TRIPOS>ATOM
1    C       -11.8487   38.8037   62.7237  C     
2    N       -12.0827   40.0885   63.1363  N     
3    C       -10.6655   38.1041   63.0771  C     
4    C       -10.4323   36.7859   62.6395  C     
5    C       -14.7518   35.9115   60.8377  C     
6    C       -12.5617   36.8101   61.4457  C     
7    N       -16.0957   34.7622   59.1774  N     
8    N       -15.8143   36.2707   62.9893  N     
9    C       -15.4638   35.3072   59.9697  C     
10   C       -15.3130   36.1111   61.9701  C     
11   C       -12.7962   38.1289   61.9090  C     
12   C       -13.4523   36.1741   60.5861  C     
13   O       -13.1517   40.7534   62.8144  O     
14   O       -11.3222   40.7169   63.8219  O     
15   C       -11.3688   36.1521   61.8060  C     
16   O        -9.7067   38.6670   63.8432  O     
17   O        -9.2951   36.1568   63.0332  O     
18   H       -13.6556   38.6053   61.6229  H     
19   H       -13.0480   35.8350   59.7359  H     
20   H       -11.1795   35.2006   61.4792  H     
21   H        -9.9750   38.4425   64.7590  H     
22   H        -9.4837   35.1975   63.0032  H     
@<TRIPOS>BOND
     1    1    2 am
     2    1    3 1
     3    1   11 2
     4    2   13 1
     5    2   14 2
     6    3    4 2
     7    3   16 1
     8    4   15 1
     9    4   17 1
    10    5    9 1
    11    5   10 1
    12    5   12 2
    13    6   11 1
    14    6   12 1
    15    6   15 2
    16    7    9 3
    17    8   10 3
    18   11   18 1
    19   12   19 1
    20   15   20 1
    21   16   21 1
    22   17   22 1
@<TRIPOS>PROPERTY_DATA
  Total_Score	| 4.7697
  Crash		| -0.2880
  Polar		| 4.4500
  FragIndex	| 1
  FragRMSD	| 0.987

