@<TRIPOS>MOLECULE
BindingDB_50017856
 17 17 0 0 0
SMALL
NO_CHARGES


@<TRIPOS>ATOM
1    C       -11.9255   38.6421   62.5678  C     
2    N       -12.2450   39.9182   62.9398  N     
3    C       -10.7165   38.0107   62.9781  C     
4    C       -10.4137   36.6957   62.5700  C     
5    N       -14.0865   35.3365   59.9243  N     
6    C       -12.8135   37.8976   61.7436  C     
7    C       -13.3515   35.9181   60.5883  C     
8    O       -13.3471   40.4997   62.5737  O     
9    O       -11.5565   40.6159   63.6331  O     
10   C       -12.5202   36.5787   61.3415  C     
11   C       -11.3157   35.9812   61.7587  C     
12   O        -9.7889   38.6326   63.7505  O     
13   O        -9.2611   36.1070   62.9924  O     
14   H       -13.6899   38.3259   61.4328  H     
15   H       -11.0845   35.0229   61.4759  H     
16   H       -10.1872   38.6415   64.6514  H     
17   H        -9.4055   35.1434   62.9061  H     
@<TRIPOS>BOND
     1    1    2 am
     2    1    3 1
     3    1    6 2
     4    2    8 1
     5    2    9 2
     6    3    4 2
     7    3   12 1
     8    4   11 1
     9    4   13 1
    10    5    7 3
    11    6   10 1
    12    7   10 1
    13   10   11 2
    14    6   14 1
    15   11   15 1
    16   12   16 1
    17   13   17 1
@<TRIPOS>PROPERTY_DATA
  Total_Score	| 4.5751
  Crash		| -0.1984
  Polar		| 4.3819
  FragIndex	| 1
  FragRMSD	| 1.230

