@<TRIPOS>MOLECULE
BindingDB_50108877
 31 32 0 0 0
SMALL
NO_CHARGES


@<TRIPOS>ATOM
1    C       -11.7884   38.9398   62.8846  C     
2    N       -11.9489   40.2287   63.3127  N     
3    C       -10.6251   38.1785   63.1740  C     
4    C       -12.6861   36.9814   61.6423  C     
5    C       -12.8088   38.3068   62.1282  C     
6    C       -10.4816   36.8510   62.7217  C     
7    C       -13.7030   36.3990   60.8746  C     
8    C       -11.4986   36.2705   61.9407  C     
9    O       -13.0265   40.9242   63.0778  O     
10   O       -11.1181   40.8276   63.9445  O     
11   C       -15.0690   36.5973   61.1067  C     
12   O       -13.3804   35.6898   59.9295  O     
13   C       -15.6056   36.5299   62.4171  C     
14   C       -15.9596   36.8566   60.0372  C     
15   O        -9.6067   38.6935   63.9014  O     
16   O        -9.3526   36.1603   63.0531  O     
17   C       -17.3321   37.0517   60.2698  C     
18   C       -16.9812   36.7041   62.6472  C     
19   C       -17.8603   36.9759   61.5753  C     
20   C       -19.3127   37.1687   61.7898  C     
21   H       -13.6583   38.8316   61.9082  H     
22   H       -11.3735   35.3080   61.6103  H     
23   H       -14.9995   36.3239   63.2164  H     
24   H       -15.6132   36.9208   59.0746  H     
25   H        -9.7067   38.2932   64.7924  H     
26   H        -9.5550   35.2107   62.9255  H     
27   H       -17.9512   37.2428   59.4768  H     
28   H       -17.3393   36.6214   63.6017  H     
29   H       -19.6060   38.1637   61.4482  H     
30   H       -19.5910   37.0698   62.8408  H     
31   H       -19.8665   36.4218   61.2176  H     
@<TRIPOS>BOND
     1    1    2 am
     2    1    3 1
     3    1    5 2
     4    2    9 1
     5    2   10 2
     6    3    6 2
     7    3   15 1
     8    4    5 1
     9    4    7 1
    10    4    8 2
    11    6    8 1
    12    6   16 1
    13    7   11 1
    14    7   12 2
    15   11   13 2
    16   11   14 1
    17   13   18 1
    18   14   17 2
    19   17   19 1
    20   18   19 2
    21   19   20 1
    22    5   21 1
    23    8   22 1
    24   13   23 1
    25   14   24 1
    26   15   25 1
    27   16   26 1
    28   17   27 1
    29   18   28 1
    30   20   29 1
    31   20   30 1
    32   20   31 1
@<TRIPOS>PROPERTY_DATA
  Total_Score	| 4.2265
  Crash		| -0.3510
  Polar		| 4.2765
  FragIndex	| 1
  FragRMSD	| 0.809

