@<TRIPOS>MOLECULE
BindingDB_50178792
 40 41 0 0 0
SMALL
NO_CHARGES


@<TRIPOS>ATOM
1    C       -10.5629   38.0847   63.0627  C     
2    C       -10.2624   36.7796   62.6376  C     
3    C       -11.1177   36.1350   61.7406  C     
4    C       -12.2936   36.7693   61.3198  C     
5    C       -12.6752   38.0434   61.8217  C     
6    C       -11.7701   38.7478   62.6858  C     
7    O        -9.6428   38.6491   63.8855  O     
8    O        -9.1445   36.1518   63.0811  O     
9    N       -12.0361   39.9938   63.2022  N     
10   O       -13.0971   40.5572   63.1270  O     
11   O       -11.1518   40.7087   63.8477  O     
12   C       -13.9148   38.5485   61.4121  C     
13   C       -15.0870   37.7421   61.0881  C     
14   O       -13.9066   39.6781   60.9378  O     
15   C       -15.4942   36.6080   62.0839  C     
16   C       -16.1365   35.3529   61.4151  C     
17   C       -15.1264   34.2310   60.9775  C     
18   C       -15.0996   33.8823   59.5243  C     
19   C       -14.7589   34.8476   58.5442  C     
20   C       -14.6787   34.5041   57.1793  C     
21   C       -14.8727   33.1715   56.7748  C     
22   C       -15.1858   32.1946   57.7343  C     
23   C       -15.3235   32.5477   59.0958  C     
24   H       -10.8896   35.1948   61.3995  H     
25   H       -12.8679   36.2747   60.6338  H     
26   H        -9.9092   38.3738   64.7894  H     
27   H        -9.3229   35.1900   63.0223  H     
28   H       -15.9473   38.4184   61.0153  H     
29   H       -14.9249   37.3409   60.0907  H     
30   H       -14.6423   36.2829   62.6821  H     
31   H       -16.2221   37.0318   62.7902  H     
32   H       -16.8336   34.9209   62.1400  H     
33   H       -16.7598   35.6592   60.5735  H     
34   H       -14.1065   34.4981   61.2634  H     
35   H       -15.3693   33.3338   61.5602  H     
36   H       -14.5517   35.8085   58.8031  H     
37   H       -14.4687   35.2275   56.4783  H     
38   H       -14.7795   32.9165   55.7857  H     
39   H       -15.3129   31.2183   57.4452  H     
40   H       -15.5621   31.8190   59.7737  H     
@<TRIPOS>BOND
     1    1    2 1
     2    1    6 2
     3    1    7 1
     4    2    3 2
     5    2    8 1
     6    3    4 1
     7    4    5 2
     8    5    6 1
     9    5   12 1
    10    6    9 am
    11    9   10 2
    12    9   11 1
    13   12   13 1
    14   12   14 2
    15   13   15 1
    16   15   16 1
    17   16   17 1
    18   17   18 1
    19   18   19 2
    20   18   23 1
    21   19   20 1
    22   20   21 2
    23   21   22 1
    24   22   23 2
    25    3   24 1
    26    4   25 1
    27    7   26 1
    28    8   27 1
    29   13   28 1
    30   13   29 1
    31   15   30 1
    32   15   31 1
    33   16   32 1
    34   16   33 1
    35   17   34 1
    36   17   35 1
    37   19   36 1
    38   20   37 1
    39   21   38 1
    40   22   39 1
    41   23   40 1
@<TRIPOS>PROPERTY_DATA
  Total_Score	| 6.3266
  Crash		| -0.9948
  Polar		| 4.5522
  FragIndex	| 1
  FragRMSD	| 0.961

