@<TRIPOS>MOLECULE
BindingDB_50017845
 44 45 0 0 0
SMALL
NO_CHARGES


@<TRIPOS>ATOM
1    C       -11.7382   38.9178   63.0388  C     
2    N       -11.8824   40.2180   63.4403  N     
3    C       -10.5544   38.1689   63.2765  C     
4    C       -20.0219   36.9175   60.8752  C     
5    C       -17.3611   35.9299   61.2406  C     
6    C       -10.4272   36.8404   62.8280  C     
7    C       -19.7873   35.5298   60.9916  C     
8    C       -18.9359   37.8151   60.9440  C     
9    C       -15.0242   36.1787   61.9054  C     
10   C       -18.4701   35.0507   61.1357  C     
11   C       -17.6303   37.3203   61.1443  C     
12   C       -16.0566   35.4293   61.4255  C     
13   C       -12.8002   38.2598   62.3679  C     
14   O       -12.9782   40.8993   63.2483  O     
15   C       -13.7901   36.2327   61.3647  C     
16   O       -11.0173   40.8426   63.9930  O     
17   C       -12.7126   36.9111   61.9405  C     
18   C       -11.4946   36.2242   62.1490  C     
19   O       -15.8476   34.2277   61.2942  O     
20   O        -9.5139   38.6900   63.9704  O     
21   O       -21.3010   37.4071   60.8156  O     
22   O        -9.2852   36.1547   63.1069  O     
23   O       -19.1733   39.1651   60.9147  O     
24   O       -20.8225   34.6350   60.9256  O     
25   C       -21.8865   37.4050   59.5024  C     
26   C       -18.8122   39.8074   59.6788  C     
27   C       -21.3932   34.3253   62.2095  C     
28   H       -15.1895   36.6639   62.7577  H     
29   H       -18.3363   34.0386   61.1989  H     
30   H       -16.8691   37.9997   61.2100  H     
31   H       -13.6620   38.7779   62.1810  H     
32   H       -13.6026   35.6652   60.5677  H     
33   H       -11.3933   35.2475   61.8557  H     
34   H        -9.6691   38.4107   64.8974  H     
35   H        -9.5003   35.2055   63.0093  H     
36   H       -21.3080   38.0099   58.8022  H     
37   H       -22.8845   37.8339   59.5779  H     
38   H       -21.9859   36.3911   59.1105  H     
39   H       -17.7319   39.7748   59.5166  H     
40   H       -19.1142   40.8539   59.7398  H     
41   H       -19.3202   39.3544   58.8233  H     
42   H       -20.6606   33.8491   62.8652  H     
43   H       -22.2155   33.6261   62.0541  H     
44   H       -21.7933   35.2178   62.6977  H     
@<TRIPOS>BOND
     1    1    2 am
     2    1    3 1
     3    1   13 2
     4    2   14 1
     5    2   16 2
     6    3    6 2
     7    3   20 1
     8    4    7 2
     9    4    8 1
    10    4   21 1
    11    5   10 2
    12    5   11 1
    13    5   12 1
    14    6   18 1
    15    6   22 1
    16    7   10 1
    17    7   24 1
    18    8   11 2
    19    8   23 1
    20    9   12 1
    21    9   15 2
    22   12   19 2
    23   13   17 1
    24   15   17 1
    25   17   18 2
    26   21   25 1
    27   23   26 1
    28   24   27 1
    29    9   28 1
    30   10   29 1
    31   11   30 1
    32   13   31 1
    33   15   32 1
    34   18   33 1
    35   20   34 1
    36   22   35 1
    37   25   36 1
    38   25   37 1
    39   25   38 1
    40   26   39 1
    41   26   40 1
    42   26   41 1
    43   27   42 1
    44   27   43 1
    45   27   44 1
@<TRIPOS>PROPERTY_DATA
  Total_Score	| 2.9742
  Crash		| -0.4275
  Polar		| 4.4608
  FragIndex	| 1
  FragRMSD	| 1.151

