@<TRIPOS>MOLECULE
BindingDB_50178793
 31 32 0 0 0
SMALL
NO_CHARGES


@<TRIPOS>ATOM
1    C       -10.6009   38.0050   63.0610  C     
2    C       -10.3217   36.7030   62.6157  C     
3    C       -11.2376   36.0406   61.7861  C     
4    C       -12.4426   36.6623   61.4381  C     
5    C       -12.7547   37.9657   61.9062  C     
6    C       -11.8165   38.6748   62.7334  C     
7    O        -9.6448   38.5654   63.8360  O     
8    O        -9.1601   36.1217   63.0220  O     
9    N       -12.0476   39.9411   63.2217  N     
10   O       -13.0458   40.5817   63.0048  O     
11   O       -11.1978   40.5968   63.9796  O     
12   C       -13.9750   38.4757   61.4987  C     
13   C       -15.1267   38.4593   62.3777  C     
14   O       -13.9719   39.2505   60.5504  O     
15   C       -16.0867   37.4208   61.9497  C     
16   C       -16.3075   36.2775   62.7524  C     
17   C       -17.2655   35.3260   62.3793  C     
18   C       -18.0072   35.4954   61.1965  C     
19   C       -17.7697   36.6100   60.3675  C     
20   C       -16.8046   37.5629   60.7430  C     
21   H       -11.0400   35.0978   61.4492  H     
22   H       -13.1001   36.1456   60.8496  H     
23   H        -9.8431   38.2177   64.7416  H     
24   H        -9.3000   35.1459   62.9976  H     
25   H       -14.7867   38.3137   63.4154  H     
26   H       -15.6547   39.4299   62.3795  H     
27   H       -15.7732   36.1388   63.6152  H     
28   H       -17.4177   34.4991   62.9593  H     
29   H       -18.7007   34.7957   60.9229  H     
30   H       -18.3164   36.7321   59.5075  H     
31   H       -16.6627   38.3829   60.1424  H     
@<TRIPOS>BOND
     1    1    2 1
     2    1    6 2
     3    1    7 1
     4    2    3 2
     5    2    8 1
     6    3    4 1
     7    4    5 2
     8    5    6 1
     9    5   12 1
    10    6    9 am
    11    9   10 2
    12    9   11 1
    13   12   13 1
    14   12   14 2
    15   13   15 1
    16   15   16 2
    17   15   20 1
    18   16   17 1
    19   17   18 2
    20   18   19 1
    21   19   20 2
    22    3   21 1
    23    4   22 1
    24    7   23 1
    25    8   24 1
    26   13   25 1
    27   13   26 1
    28   16   27 1
    29   17   28 1
    30   18   29 1
    31   19   30 1
    32   20   31 1
@<TRIPOS>PROPERTY_DATA
  Total_Score	| 3.7228
  Crash		| -0.7522
  Polar		| 4.5824
  FragIndex	| 1
  FragRMSD	| 1.141

