@<TRIPOS>MOLECULE
BindingDB_50178791
 34 35 0 0 0
SMALL
NO_CHARGES


@<TRIPOS>ATOM
1    C       -10.5596   37.8567   63.1120  C     
2    C       -10.1529   36.5372   62.8674  C     
3    C       -10.9817   35.6850   62.1351  C     
4    C       -12.2064   36.1485   61.6451  C     
5    C       -12.6519   37.4823   61.8498  C     
6    C       -11.8290   38.3411   62.6659  C     
7    O        -9.7013   38.5880   63.8700  O     
8    O        -8.9728   36.0969   63.3692  O     
9    N       -12.2244   39.5704   63.1147  N     
10   O       -13.3964   39.9077   63.0988  O     
11   O       -11.4369   40.4394   63.6967  O     
12   C       -13.8367   37.8668   61.1593  C     
13   C       -14.7818   36.9663   60.4765  C     
14   O       -14.0452   39.0963   61.0384  O     
15   C       -15.5792   35.9849   61.3929  C     
16   C       -17.0388   36.2454   61.3844  C     
17   C       -17.8211   35.7876   60.3000  C     
18   C       -19.1897   36.0911   60.2173  C     
19   C       -19.7914   36.8710   61.2232  C     
20   C       -19.0288   37.3374   62.3033  C     
21   C       -17.6577   37.0319   62.3911  C     
22   H       -10.6826   34.7341   61.9363  H     
23   H       -12.7486   35.4773   61.1120  H     
24   H        -9.9775   38.3971   64.7914  H     
25   H        -9.0088   35.1207   63.3695  H     
26   H       -15.4880   37.5452   59.8617  H     
27   H       -14.2385   36.3744   59.7341  H     
28   H       -15.4262   34.9475   61.0561  H     
29   H       -15.1896   36.0180   62.4157  H     
30   H       -17.3910   35.2410   59.5478  H     
31   H       -19.7404   35.7603   59.4245  H     
32   H       -20.7877   37.0957   61.1604  H     
33   H       -19.4681   37.9136   63.0267  H     
34   H       -17.1079   37.4037   63.1663  H     
@<TRIPOS>BOND
     1    1    2 1
     2    1    6 2
     3    1    7 1
     4    2    3 2
     5    2    8 1
     6    3    4 1
     7    4    5 2
     8    5    6 1
     9    5   12 1
    10    6    9 am
    11    9   10 2
    12    9   11 1
    13   12   13 1
    14   12   14 2
    15   13   15 1
    16   15   16 1
    17   16   17 2
    18   16   21 1
    19   17   18 1
    20   18   19 2
    21   19   20 1
    22   20   21 2
    23    3   22 1
    24    4   23 1
    25    7   24 1
    26    8   25 1
    27   13   26 1
    28   13   27 1
    29   15   28 1
    30   15   29 1
    31   17   30 1
    32   18   31 1
    33   19   32 1
    34   20   33 1
    35   21   34 1
@<TRIPOS>PROPERTY_DATA
  Total_Score	| 3.6121
  Crash		| -0.8157
  Polar		| 4.5964
  FragIndex	| 1
  FragRMSD	| 1.025

