@<TRIPOS>MOLECULE
BindingDB_50017869
 20 20 0 0 0
SMALL
NO_CHARGES


@<TRIPOS>ATOM
1    C       -11.8642   38.7585   62.6654  C     
2    N       -12.1249   40.0384   63.0750  N     
3    C       -10.6771   38.0617   63.0249  C     
4    C       -10.4421   36.7450   62.5872  C     
5    C       -12.7963   38.0853   61.8350  C     
6    O       -13.2135   40.6795   62.7363  O     
7    O       -11.3759   40.6760   63.7626  O     
8    C       -11.3957   36.1000   61.7736  C     
9    C       -12.5718   36.7677   61.3767  C     
10   O        -9.7181   38.6287   63.7969  O     
11   O        -9.2928   36.1192   62.9738  O     
12   O       -14.0903   34.9330   61.0679  O     
13   C       -13.5390   36.1008   60.4667  C     
14   H       -13.6599   38.5585   61.5453  H     
15   H       -11.2236   35.1408   61.4669  H     
16   H       -10.0611   38.5419   64.7273  H     
17   H        -9.4609   35.1584   62.8845  H     
18   H       -13.3498   34.2870   61.1067  H     
19   H       -14.3740   36.7533   60.1988  H     
20   H       -13.0355   35.8219   59.5396  H     
@<TRIPOS>BOND
     1    1    2 am
     2    1    3 1
     3    1    5 2
     4    2    6 1
     5    2    7 2
     6    3    4 2
     7    3   10 1
     8    4    8 1
     9    4   11 1
    10    5    9 1
    11    8    9 2
    12    9   13 1
    13   12   13 1
    14    5   14 1
    15    8   15 1
    16   10   16 1
    17   11   17 1
    18   12   18 1
    19   13   19 1
    20   13   20 1
@<TRIPOS>PROPERTY_DATA
  Total_Score	| 4.7341
  Crash		| -0.2668
  Polar		| 4.3368
  FragIndex	| 1
  FragRMSD	| 0.480

