@<TRIPOS>MOLECULE
BindingDB_50004043
 18 18 0 0 0
SMALL
NO_CHARGES


@<TRIPOS>ATOM
1    C       -11.8805   38.7142   62.6732  C     
2    N       -12.1516   39.9890   63.0664  N     
3    C       -10.6740   38.0499   63.0322  C     
4    C       -10.4251   36.7122   62.6910  C     
5    C       -12.8142   37.9691   61.9096  C     
6    O       -13.2717   40.5853   62.7921  O     
7    O       -11.4092   40.6553   63.7306  O     
8    C       -11.4008   35.9912   61.9770  C     
9    C       -12.6051   36.6167   61.5719  C     
10   O       -13.9952   36.2317   59.8250  O     
11   O        -9.6998   38.6593   63.7587  O     
12   C       -13.5117   35.8436   60.8856  C     
13   O        -9.2405   36.1493   63.0737  O     
14   H       -13.6992   38.4111   61.6280  H     
15   H       -11.2058   35.0119   61.7286  H     
16   H        -9.9555   38.4855   64.6691  H     
17   H       -13.6523   34.8800   61.1320  H     
18   H        -9.3516   35.1801   62.9979  H     
@<TRIPOS>BOND
     1    1    2 am
     2    1    3 1
     3    1    5 2
     4    2    6 1
     5    2    7 2
     6    3    4 2
     7    3   11 1
     8    4    8 1
     9    4   13 1
    10    5    9 1
    11    8    9 2
    12    9   12 1
    13   10   12 2
    14    5   14 1
    15    8   15 1
    16   11   16 1
    17   12   17 1
    18   13   18 1
@<TRIPOS>PROPERTY_DATA
  Total_Score	| 4.6488
  Crash		| -0.2842
  Polar		| 4.5660
  FragIndex	| 1
  FragRMSD	| 0.988

