@<TRIPOS>MOLECULE
BindingDB_50108878
 31 32 0 0 0
SMALL
NO_CHARGES


@<TRIPOS>ATOM
1    C       -11.7847   38.8818   62.8461  C     
2    N       -11.9679   40.1686   63.2667  N     
3    C       -10.6152   38.1453   63.1727  C     
4    C       -12.7634   38.2397   62.0406  C     
5    C       -12.6063   36.9193   61.5440  C     
6    C       -10.4429   36.8252   62.7250  C     
7    C       -13.5527   36.3027   60.6914  C     
8    C       -11.4305   36.2210   61.9263  C     
9    O       -13.0465   40.8518   62.9880  O     
10   O       -11.1654   40.7799   63.9143  O     
11   C       -14.8674   36.8272   60.3230  C     
12   O       -13.2534   35.2413   60.1374  O     
13   O        -9.5992   38.6737   63.9086  O     
14   O        -9.2971   36.1528   63.0410  O     
15   C       -15.9362   36.5973   61.3367  C     
16   C       -16.8939   37.6049   61.6024  C     
17   C       -16.1344   35.3084   61.8970  C     
18   C       -17.2748   35.0346   62.6689  C     
19   C       -18.0432   37.3283   62.3650  C     
20   C       -18.2383   36.0369   62.8891  C     
21   H       -13.6076   38.7584   61.7964  H     
22   H       -11.2663   35.2653   61.6059  H     
23   H       -14.7855   37.8884   60.0729  H     
24   H       -15.2201   36.3405   59.4057  H     
25   H        -9.6916   38.2580   64.8081  H     
26   H        -9.4923   35.1956   62.9049  H     
27   H       -16.7919   38.5373   61.1951  H     
28   H       -15.4720   34.5602   61.7017  H     
29   H       -17.4261   34.0999   63.0569  H     
30   H       -18.7470   38.0550   62.5162  H     
31   H       -19.0909   35.8277   63.4258  H     
@<TRIPOS>BOND
     1    1    2 am
     2    1    3 1
     3    1    4 2
     4    2    9 1
     5    2   10 2
     6    3    6 2
     7    3   13 1
     8    4    5 1
     9    5    7 1
    10    5    8 2
    11    6    8 1
    12    6   14 1
    13    7   11 1
    14    7   12 2
    15   11   15 1
    16   15   16 2
    17   15   17 1
    18   16   19 1
    19   17   18 2
    20   18   20 1
    21   19   20 2
    22    4   21 1
    23    8   22 1
    24   11   23 1
    25   11   24 1
    26   13   25 1
    27   14   26 1
    28   16   27 1
    29   17   28 1
    30   18   29 1
    31   19   30 1
    32   20   31 1
@<TRIPOS>PROPERTY_DATA
  Total_Score	| 4.2925
  Crash		| -0.4974
  Polar		| 4.3751
  FragIndex	| 1
  FragRMSD	| 1.177

