@<TRIPOS>MOLECULE
BindingDB_50017844
 21 21 0 0 0
SMALL
NO_CHARGES


@<TRIPOS>ATOM
1    C       -11.8072   38.8473   62.8069  C     
2    N       -11.9997   40.1329   63.2355  N     
3    C       -10.6273   38.1141   63.1228  C     
4    C       -12.7989   38.1993   62.0190  C     
5    C       -12.6411   36.8799   61.5347  C     
6    C       -10.4495   36.7992   62.6474  C     
7    C       -11.4425   36.1963   61.8494  C     
8    O       -13.0735   40.8160   62.9511  O     
9    O       -11.2172   40.7437   63.9089  O     
10   C       -13.6178   36.2693   60.7387  C     
11   O       -13.2505   35.6525   59.7442  O     
12   O        -9.6248   38.6361   63.8730  O     
13   O        -9.3272   36.1196   62.9953  O     
14   C       -15.0318   36.2518   61.0746  C     
15   H       -13.6410   38.7140   61.7559  H     
16   H       -11.3056   35.2327   61.5346  H     
17   H        -9.8064   38.3431   64.7872  H     
18   H        -9.5492   35.1716   62.9050  H     
19   H       -15.1776   35.7619   62.0399  H     
20   H       -15.6144   35.6963   60.3323  H     
21   H       -15.4361   37.2616   61.1220  H     
@<TRIPOS>BOND
     1    1    2 am
     2    1    3 1
     3    1    4 2
     4    2    8 1
     5    2    9 2
     6    3    6 2
     7    3   12 1
     8    4    5 1
     9    5    7 2
    10    5   10 1
    11    6    7 1
    12    6   13 1
    13   10   11 2
    14   10   14 1
    15    4   15 1
    16    7   16 1
    17   12   17 1
    18   13   18 1
    19   14   19 1
    20   14   20 1
    21   14   21 1
@<TRIPOS>PROPERTY_DATA
  Total_Score	| 4.2941
  Crash		| -0.2573
  Polar		| 4.2644
  FragIndex	| 1
  FragRMSD	| 0.926

