@<TRIPOS>MOLECULE
BindingDB_50178790
 37 38 0 0 0
SMALL
NO_CHARGES


@<TRIPOS>ATOM
1    C       -10.9137   37.9753   62.9113  C     
2    C       -10.5304   36.6730   62.5474  C     
3    C       -11.3863   35.9008   61.7490  C     
4    C       -12.6142   36.4218   61.3297  C     
5    C       -13.0531   37.6995   61.7455  C     
6    C       -12.1785   38.5300   62.5354  C     
7    O        -9.9956   38.6570   63.6456  O     
8    O        -9.3472   36.1589   62.9825  O     
9    N       -12.4931   39.8100   62.9290  N     
10   O       -13.5418   40.3484   62.6991  O     
11   O       -11.6944   40.5863   63.6125  O     
12   C       -14.2946   38.0834   61.2472  C     
13   C       -15.5546   37.5293   61.7429  C     
14   O       -14.3435   39.1995   60.7333  O     
15   C       -15.5324   36.1341   62.4295  C     
16   C       -15.6602   34.8968   61.4809  C     
17   C       -16.4120   33.6836   61.9192  C     
18   C       -15.9256   32.4255   61.4790  C     
19   C       -16.5775   31.2258   61.8274  C     
20   C       -17.7161   31.2637   62.6583  C     
21   C       -18.1940   32.4946   63.1338  C     
22   C       -17.5587   33.6967   62.7565  C     
23   H       -11.1000   34.9643   61.4532  H     
24   H       -13.1751   35.8487   60.6963  H     
25   H       -10.2720   38.5434   64.5751  H     
26   H        -9.4299   35.1864   62.9360  H     
27   H       -15.9860   38.2406   62.4560  H     
28   H       -16.2656   37.4593   60.9059  H     
29   H       -14.6216   36.0615   63.0253  H     
30   H       -16.3789   36.1465   63.1176  H     
31   H       -16.1125   35.2376   60.5454  H     
32   H       -14.6516   34.5495   61.2360  H     
33   H       -15.0977   32.3724   60.8733  H     
34   H       -16.2249   30.3301   61.4850  H     
35   H       -18.1860   30.3928   62.9255  H     
36   H       -19.0140   32.5173   63.7436  H     
37   H       -17.9242   34.5660   63.1359  H     
@<TRIPOS>BOND
     1    1    2 1
     2    1    6 2
     3    1    7 1
     4    2    3 2
     5    2    8 1
     6    3    4 1
     7    4    5 2
     8    5    6 1
     9    5   12 1
    10    6    9 am
    11    9   10 2
    12    9   11 1
    13   12   13 1
    14   12   14 2
    15   13   15 1
    16   15   16 1
    17   16   17 1
    18   17   18 2
    19   17   22 1
    20   18   19 1
    21   19   20 2
    22   20   21 1
    23   21   22 2
    24    3   23 1
    25    4   24 1
    26    7   25 1
    27    8   26 1
    28   13   27 1
    29   13   28 1
    30   15   29 1
    31   15   30 1
    32   16   31 1
    33   16   32 1
    34   18   33 1
    35   19   34 1
    36   20   35 1
    37   21   36 1
    38   22   37 1
@<TRIPOS>PROPERTY_DATA
  Total_Score	| 5.8301
  Crash		| -1.0980
  Polar		| 4.2947
  FragIndex	| 1
  FragRMSD	| 0.994

