@<TRIPOS>MOLECULE
BindingDB_50017857
 32 33 0 0 0
SMALL
NO_CHARGES


@<TRIPOS>ATOM
1    C       -11.9043   38.7888   62.7797  C     
2    N       -11.9163   40.0296   63.3549  N     
3    C       -10.7739   37.9263   62.8155  C     
4    C       -10.8201   36.6532   62.2115  C     
5    C       -15.2553   37.3136   60.3373  C     
6    C       -13.0699   38.3105   62.1297  C     
7    C       -16.5305   36.9464   59.9923  C     
8    O       -12.9460   40.8286   63.2827  O     
9    C       -14.3216   36.5482   60.9507  C     
10   O       -10.9911   40.4839   63.9719  O     
11   C       -13.1405   37.0320   61.5262  C     
12   C       -11.9989   36.2030   61.5919  C     
13   O       -16.8431   37.0915   58.8133  O     
14   C       -17.5537   36.6002   60.8749  C     
15   O        -9.6317   38.2911   63.4516  O     
16   O        -9.7239   35.8549   62.2166  O     
17   C       -18.5482   37.5503   61.2260  C     
18   C       -17.6533   35.2884   61.4002  C     
19   C       -18.7061   34.9413   62.2712  C     
20   C       -19.5960   37.2068   62.1008  C     
21   C       -19.6701   35.9036   62.6246  C     
22   H       -15.0047   38.2665   60.1556  H     
23   H       -13.9140   38.8828   62.1431  H     
24   H       -14.4842   35.5652   61.0167  H     
25   H       -12.0162   35.2646   61.1779  H     
26   H        -9.5828   37.7199   64.2463  H     
27   H        -9.8331   35.2327   62.9649  H     
28   H       -18.5101   38.5048   60.8598  H     
29   H       -16.9642   34.5734   61.1492  H     
30   H       -18.7660   33.9925   62.6446  H     
31   H       -20.2981   37.9041   62.3618  H     
32   H       -20.4215   35.6564   63.2704  H     
@<TRIPOS>BOND
     1    1    2 am
     2    1    3 1
     3    1    6 2
     4    2    8 1
     5    2   10 2
     6    3    4 2
     7    3   15 1
     8    4   12 1
     9    4   16 1
    10    5    7 1
    11    5    9 2
    12    6   11 1
    13    7   13 2
    14    7   14 1
    15    9   11 1
    16   11   12 2
    17   14   17 2
    18   14   18 1
    19   17   20 1
    20   18   19 2
    21   19   21 1
    22   20   21 2
    23    5   22 1
    24    6   23 1
    25    9   24 1
    26   12   25 1
    27   15   26 1
    28   16   27 1
    29   17   28 1
    30   18   29 1
    31   19   30 1
    32   20   31 1
    33   21   32 1
@<TRIPOS>PROPERTY_DATA
  Total_Score	| 2.8045
  Crash		| -0.1802
  Polar		| 3.5732
  FragIndex	| 1
  FragRMSD	| 0.814

