@<TRIPOS>MOLECULE
BindingDB_50225216
 28 29 0 0 0
SMALL
NO_CHARGES


@<TRIPOS>ATOM
1    C        -0.7309   -0.7172   -2.1362  C     
2    C        -2.0305   -1.2481   -2.0145  C     
3    C        -3.0574   -0.7734   -2.8477  C     
4    C        -2.7770    0.1993   -3.8304  C     
5    C        -1.4628    0.6814   -4.0084  C     
6    C        -0.4485    0.2548   -3.1174  C     
7    O        -1.1784    1.6079   -4.9844  O     
8    C        -1.2570    1.1263   -6.2694  C     
9    C        -2.3186    1.5693   -7.0823  C     
10   C        -2.4149    1.1410   -8.4215  C     
11   C        -1.4648    0.2530   -8.9747  C     
12   C        -0.3987   -0.1862   -8.1545  C     
13   C        -0.2784    0.2653   -6.8265  C     
14   Cl        1.1087    0.9252   -3.1630  Cl    
15   Cl       -2.3601   -2.4065   -0.8215  Cl    
16   O         0.7959   -0.1255   -6.1071  O     
17   C        -1.5511   -0.1276  -10.4067  C     
18   O        -2.8532   -0.5801  -10.7762  O     
19   H         0.0048   -1.0274   -1.4987  H     
20   H        -4.0104   -1.1162   -2.7366  H     
21   H        -3.5342    0.5630   -4.3968  H     
22   H        -3.0264    2.1978   -6.7022  H     
23   H        -3.1835    1.4859   -8.9979  H     
24   H         0.3180   -0.8049   -8.5375  H     
25   H         1.2431    0.7115   -5.8536  H     
26   H        -1.3203    0.7619  -11.0009  H     
27   H        -0.8249   -0.8997  -10.6710  H     
28   H        -2.9156   -1.5182  -10.4890  H     
@<TRIPOS>BOND
     1    1    2 2
     2    1    6 1
     3    2    3 1
     4    2   15 1
     5    3    4 2
     6    4    5 1
     7    5    6 2
     8    5    7 1
     9    6   14 1
    10    7    8 1
    11    8    9 2
    12    8   13 1
    13    9   10 1
    14   10   11 2
    15   11   12 1
    16   11   17 1
    17   12   13 2
    18   13   16 1
    19   17   18 1
    20    1   19 1
    21    3   20 1
    22    4   21 1
    23    9   22 1
    24   10   23 1
    25   12   24 1
    26   16   25 1
    27   17   26 1
    28   17   27 1
    29   18   28 1
@<TRIPOS>PROPERTY_DATA
  Total_Score	| 3.0316
  Crash		| -1.1540
  Polar		| 1.1296
  FragIndex	| 1
  FragRMSD	| 0.073

