@<TRIPOS>MOLECULE
BindingDB_50225218
 30 31 0 0 0
SMALL
NO_CHARGES


@<TRIPOS>ATOM
1    C        -0.7604   -0.7878   -2.1566  C     
2    C        -2.0822   -1.2480   -2.0223  C     
3    C        -3.0961   -0.7367   -2.8576  C     
4    C        -2.7823    0.2286   -3.8328  C     
5    C        -1.4474    0.6627   -4.0017  C     
6    C        -0.4441    0.1631   -3.1445  C     
7    O        -1.1212    1.6127   -4.9353  O     
8    C        -1.1883    1.1776   -6.2368  C     
9    C        -2.2266    1.6753   -7.0443  C     
10   C        -2.3423    1.2662   -8.3796  C     
11   C        -1.4085    0.3624   -8.9391  C     
12   C        -0.3484   -0.1106   -8.1323  C     
13   C        -0.2172    0.3166   -6.7972  C     
14   O         0.8096   -0.1100   -5.9961  O     
15   C        -1.5159   -0.0191  -10.3709  C     
16   Cl       -3.1292   -0.6237  -10.7703  Cl    
17   C         2.0831    0.4990   -6.2954  C     
18   H        -0.0239   -1.1286   -1.5354  H     
19   H        -2.3024   -1.9387   -1.3007  H     
20   H        -4.0604   -1.0520   -2.7246  H     
21   H        -3.5344    0.6259   -4.3969  H     
22   H         0.5148    0.5028   -3.2398  H     
23   H        -2.9002    2.3392   -6.6586  H     
24   H        -3.1013    1.6319   -8.9530  H     
25   H         0.3524   -0.7547   -8.5124  H     
26   H        -1.3115    0.8574  -10.9922  H     
27   H        -0.7938   -0.7954  -10.6509  H     
28   H         2.4487    0.1359   -7.2723  H     
29   H         2.7922    0.2196   -5.5176  H     
30   H         2.0120    1.5940   -6.3165  H     
@<TRIPOS>BOND
     1    1    2 2
     2    1    6 1
     3    2    3 1
     4    3    4 2
     5    4    5 1
     6    5    6 2
     7    5    7 1
     8    7    8 1
     9    8    9 2
    10    8   13 1
    11    9   10 1
    12   10   11 2
    13   11   12 1
    14   11   15 1
    15   12   13 2
    16   13   14 1
    17   14   17 1
    18   15   16 1
    19    1   18 1
    20    2   19 1
    21    3   20 1
    22    4   21 1
    23    6   22 1
    24    9   23 1
    25   10   24 1
    26   12   25 1
    27   15   26 1
    28   15   27 1
    29   17   28 1
    30   17   29 1
    31   17   30 1
@<TRIPOS>PROPERTY_DATA
  Total_Score	| 2.3389
  Crash		| -1.2886
  Polar		| 0.0001
  FragIndex	| 1
  FragRMSD	| 0.087

