@<TRIPOS>MOLECULE
BindingDB_50225226
 29 30 0 0 0
SMALL
NO_CHARGES


@<TRIPOS>ATOM
1    C        -0.7043   -0.7815   -2.1870  C     
2    C        -2.0058   -1.3009   -2.0467  C     
3    C        -3.0479   -0.7969   -2.8472  C     
4    C        -2.7804    0.2019   -3.8000  C     
5    C        -1.4649    0.6822   -3.9975  C     
6    C        -0.4347    0.2165   -3.1461  C     
7    O        -1.1934    1.6364   -4.9514  O     
8    C        -1.2552    1.1704   -6.2438  C     
9    C        -2.3295    1.5833   -7.0564  C     
10   C        -2.4654    1.0886   -8.3663  C     
11   C        -1.5187    0.1878   -8.9076  C     
12   C        -0.4105   -0.1727   -8.1052  C     
13   C        -0.2604    0.3289   -6.7949  C     
14   Cl        1.1279    0.8679   -3.2178  Cl    
15   Cl       -2.3267   -2.4932   -0.8889  Cl    
16   O         0.8178   -0.0568   -6.0462  O     
17   C        -1.6843   -0.3493  -10.2109  C     
18   O        -0.7390   -1.1267  -10.7875  O     
19   C         2.0214    0.6622   -6.3708  C     
20   O        -2.8293   -0.1783  -10.9118  O     
21   H         0.0455   -1.1235   -1.5807  H     
22   H        -4.0037   -1.1422   -2.7324  H     
23   H        -3.5507    0.5861   -4.3486  H     
24   H        -3.0369    2.2209   -6.6820  H     
25   H        -3.2730    1.3833   -8.9170  H     
26   H         0.2996   -0.8160   -8.4638  H     
27   H         2.3261    0.4876   -7.4057  H     
28   H         2.8175    0.3024   -5.7190  H     
29   H         1.9019    1.7355   -6.2024  H     
@<TRIPOS>BOND
     1    1    2 2
     2    1    6 1
     3    2    3 1
     4    2   15 1
     5    3    4 2
     6    4    5 1
     7    5    6 2
     8    5    7 1
     9    6   14 1
    10    7    8 1
    11    8    9 2
    12    8   13 1
    13    9   10 1
    14   10   11 2
    15   11   12 1
    16   11   17 1
    17   12   13 2
    18   13   16 1
    19   16   19 1
    20   17   18 2
    21   17   20 1
    22    1   21 1
    23    3   22 1
    24    4   23 1
    25    9   24 1
    26   10   25 1
    27   12   26 1
    28   19   27 1
    29   19   28 1
    30   19   29 1
@<TRIPOS>PROPERTY_DATA
  Total_Score	| 1.7926
  Crash		| -1.0767
  Polar		| 0.0013
  FragIndex	| 1
  FragRMSD	| 0.175

