@<TRIPOS>MOLECULE
BindingDB_50225224
 26 27 0 0 0
SMALL
NO_CHARGES


@<TRIPOS>ATOM
1    C        -0.7103   -0.7062   -2.1586  C     
2    C        -2.0004   -1.2718   -2.0527  C     
3    C        -3.0361   -0.7950   -2.8780  C     
4    C        -2.7792    0.2028   -3.8249  C     
5    C        -1.4664    0.6945   -4.0254  C     
6    C        -0.4473    0.2787   -3.1300  C     
7    O        -1.2024    1.6327   -5.0003  O     
8    C        -1.2960    1.1505   -6.2861  C     
9    C        -2.3773    1.5789   -7.0910  C     
10   C        -2.5134    1.0753   -8.3906  C     
11   C        -1.5065    0.2699   -8.9434  C     
12   C        -0.3846   -0.1274   -8.1638  C     
13   C        -0.2970    0.3192   -6.8216  C     
14   Cl        1.0684    1.0509   -3.1339  Cl    
15   Cl       -2.3304   -2.4019   -0.8458  Cl    
16   O         0.7918   -0.0485   -6.1117  O     
17   C        -1.6180   -0.2003  -10.2314  C     
18   O        -0.8637    0.2934  -11.0879  O     
19   H         0.0192   -0.9840   -1.5085  H     
20   H        -3.9885   -1.1492   -2.7663  H     
21   H        -3.5602    0.6083   -4.3553  H     
22   H        -3.0886    2.2128   -6.7348  H     
23   H        -3.3064    1.3870   -8.9669  H     
24   H         0.3719   -0.6883   -8.5697  H     
25   H         1.1406    0.8114   -5.7709  H     
26   H        -2.5007   -0.6264  -10.4862  H     
@<TRIPOS>BOND
     1    1    2 2
     2    1    6 1
     3    2    3 1
     4    2   15 1
     5    3    4 2
     6    4    5 1
     7    5    6 2
     8    5    7 1
     9    6   14 1
    10    7    8 1
    11    8    9 2
    12    8   13 1
    13    9   10 1
    14   10   11 2
    15   11   12 1
    16   11   17 1
    17   12   13 2
    18   13   16 1
    19   17   18 2
    20    1   19 1
    21    3   20 1
    22    4   21 1
    23    9   22 1
    24   10   23 1
    25   12   24 1
    26   16   25 1
    27   17   26 1
@<TRIPOS>PROPERTY_DATA
  Total_Score	| 1.8899
  Crash		| -1.1076
  Polar		| 0.0179
  FragIndex	| 1
  FragRMSD	| 0.530

