@<TRIPOS>MOLECULE
BindingDB_25406
 26 27 0 0 0
SMALL
NO_CHARGES


@<TRIPOS>ATOM
1    C        -0.2734    0.4196   -6.7534  C     
2    C        -0.3684   -0.0593   -8.0731  C     
3    C        -1.4768    0.2693   -8.8891  C     
4    C        -2.4679    1.1290   -8.3495  C     
5    C        -2.3678    1.6193   -7.0329  C     
6    C        -1.2956    1.2299   -6.2070  C     
7    O         0.8221    0.0857   -6.0239  O     
8    O        -1.2634    1.6751   -4.9047  O     
9    C        -1.5390    0.6911   -3.9762  C     
10   C        -0.5243    0.2288   -3.1051  C     
11   C        -2.8554    0.1898   -3.8116  C     
12   C        -3.1443   -0.8229   -2.8785  C     
13   C        -2.1104   -1.3280   -2.0657  C     
14   C        -0.8098   -0.7891   -2.1688  C     
15   Cl        1.0226    0.9153   -3.1302  Cl    
16   Cl       -2.4474   -2.5321   -0.9173  Cl    
17   C        -1.5976   -0.2545  -10.2033  C     
18   O        -0.6694   -1.0741  -10.7444  O     
19   O        -2.7199   -0.0714  -10.9381  O     
20   H         0.3774   -0.6598   -8.4314  H     
21   H        -3.2820    1.3957   -8.9113  H     
22   H        -3.0974    2.2298   -6.6622  H     
23   H         1.0897    0.9218   -5.5744  H     
24   H        -3.6154    0.5845   -4.3662  H     
25   H        -4.0975   -1.1824   -2.7860  H     
26   H        -0.0750   -1.1237   -1.5411  H     
@<TRIPOS>BOND
     1    1    2 2
     2    1    6 1
     3    1    7 1
     4    2    3 1
     5    3    4 2
     6    3   17 1
     7    4    5 1
     8    5    6 2
     9    6    8 1
    10    8    9 1
    11    9   10 2
    12    9   11 1
    13   10   14 1
    14   10   15 1
    15   11   12 2
    16   12   13 1
    17   13   14 2
    18   13   16 1
    19   17   18 2
    20   17   19 1
    21    2   20 1
    22    4   21 1
    23    5   22 1
    24    7   23 1
    25   11   24 1
    26   12   25 1
    27   14   26 1
@<TRIPOS>PROPERTY_DATA
  Total_Score	| 1.7044
  Crash		| -1.2605
  Polar		| 0.0017
  FragIndex	| 1
  FragRMSD	| 0.201

