@<TRIPOS>MOLECULE
BindingDB_50225227
 30 31 0 0 0
SMALL
NO_CHARGES


@<TRIPOS>ATOM
1    C        -0.7319   -0.8642   -2.1557  C     
2    C        -2.0334   -1.4081   -2.0841  C     
3    C        -3.0552   -0.8916   -2.9048  C     
4    C        -2.7696    0.1567   -3.8041  C     
5    C        -1.4555    0.6782   -3.9263  C     
6    C        -0.4571    0.1972   -3.0452  C     
7    O        -1.1896    1.6852   -4.8270  O     
8    C        -1.2025    1.2991   -6.1520  C     
9    C        -2.2741    1.7303   -6.9688  C     
10   C        -2.3482    1.3450   -8.3152  C     
11   C        -1.3284    0.5460   -8.8858  C     
12   C        -0.2333    0.1506   -8.0732  C     
13   C        -0.1370    0.5565   -6.7239  C     
14   Cl        1.0960    0.8766   -3.0129  Cl    
15   Cl       -2.3865   -2.6528   -0.9940  Cl    
16   O         0.9170    0.2184   -5.9051  O     
17   C        -1.3538    0.1955  -10.3236  C     
18   Cl       -1.0463   -1.5242  -10.5955  Cl    
19   C         2.1897    0.8233   -6.2601  C     
20   H         0.0003   -1.2368   -1.5509  H     
21   H        -4.0041   -1.2690   -2.8493  H     
22   H        -3.5238    0.5355   -4.3689  H     
23   H        -3.0166    2.3156   -6.5755  H     
24   H        -3.1313    1.6579   -8.8849  H     
25   H         0.5312   -0.4289   -8.4528  H     
26   H        -2.3107    0.4323  -10.8046  H     
27   H        -0.5767    0.7734  -10.8449  H     
28   H         2.5759    0.3758   -7.1870  H     
29   H         2.9149    0.6722   -5.4556  H     
30   H         2.1033    1.9069   -6.4072  H     
@<TRIPOS>BOND
     1    1    2 2
     2    1    6 1
     3    2    3 1
     4    2   15 1
     5    3    4 2
     6    4    5 1
     7    5    6 2
     8    5    7 1
     9    6   14 1
    10    7    8 1
    11    8    9 2
    12    8   13 1
    13    9   10 1
    14   10   11 2
    15   11   12 1
    16   11   17 1
    17   12   13 2
    18   13   16 1
    19   16   19 1
    20   17   18 1
    21    1   20 1
    22    3   21 1
    23    4   22 1
    24    9   23 1
    25   10   24 1
    26   12   25 1
    27   17   26 1
    28   17   27 1
    29   19   28 1
    30   19   29 1
    31   19   30 1
@<TRIPOS>PROPERTY_DATA
  Total_Score	| 2.4837
  Crash		| -1.2020
  Polar		| 0.0000
  FragIndex	| 1
  FragRMSD	| 0.222

