@<TRIPOS>MOLECULE
BindingDB_8726
 24 25 0 0 0
SMALL
NO_CHARGES


@<TRIPOS>ATOM
1    C        -0.1765    0.4883   -6.7824  C     
2    C        -0.1532    0.0878   -8.1279  C     
3    C        -1.2048    0.4590   -8.9846  C     
4    C        -2.2626    1.2432   -8.4943  C     
5    C        -2.2699    1.6442   -7.1429  C     
6    C        -1.2534    1.2257   -6.2534  C     
7    O         0.9086    0.1484   -6.0433  O     
8    Cl       -1.1495   -0.0124  -10.6100  Cl    
9    O        -1.2657    1.6754   -4.9470  O     
10   C        -1.5108    0.6851   -4.0258  C     
11   C        -0.4877    0.2145   -3.1584  C     
12   C        -2.8230    0.1934   -3.8374  C     
13   C        -3.0978   -0.8061   -2.8913  C     
14   C        -2.0530   -1.3406   -2.1137  C     
15   C        -0.7549   -0.8272   -2.2441  C     
16   Cl        1.0372    0.9480   -3.0638  Cl    
17   Cl       -2.3672   -2.5323   -0.9506  Cl    
18   H         0.6361   -0.4553   -8.4898  H     
19   H        -3.0205    1.5235   -9.1126  H     
20   H        -3.0352    2.2257   -6.8013  H     
21   H         1.2505    0.9931   -5.6892  H     
22   H        -3.5956    0.6011   -4.3747  H     
23   H        -4.0566   -1.1282   -2.7556  H     
24   H         0.0007   -1.1903   -1.6582  H     
@<TRIPOS>BOND
     1    1    2 1
     2    1    6 2
     3    1    7 1
     4    2    3 2
     5    3    4 1
     6    3    8 1
     7    4    5 2
     8    5    6 1
     9    6    9 1
    10    9   10 1
    11   10   11 2
    12   10   12 1
    13   11   15 1
    14   11   16 1
    15   12   13 2
    16   13   14 1
    17   14   15 2
    18   14   17 1
    19    2   18 1
    20    4   19 1
    21    5   20 1
    22    7   21 1
    23   12   22 1
    24   13   23 1
    25   15   24 1
@<TRIPOS>PROPERTY_DATA
  Total_Score	| 2.0101
  Crash		| -0.9329
  Polar		| 0.0008
  FragIndex	| 1
  FragRMSD	| 0.182

