@<TRIPOS>MOLECULE
BindingDB_50225219
 29 30 0 0 0
SMALL
NO_CHARGES


@<TRIPOS>ATOM
1    C        -0.6604   -0.8354   -2.2260  C     
2    C        -1.9716   -1.3028   -2.0249  C     
3    C        -3.0200   -0.8043   -2.8114  C     
4    C        -2.7464    0.1428   -3.8215  C     
5    C        -1.4181    0.5815   -4.0671  C     
6    C        -0.3864    0.1109   -3.2306  C     
7    O        -1.1158    1.5486   -5.0166  O     
8    C        -1.2098    1.1260   -6.3143  C     
9    C        -2.3014    1.5634   -7.0994  C     
10   C        -2.4453    1.1232   -8.4257  C     
11   C        -1.4519    0.2925   -8.9909  C     
12   C        -0.3544   -0.1289   -8.2215  C     
13   C        -0.2090    0.3087   -6.8969  C     
14   O         0.8436   -0.2030   -6.1777  O     
15   C        -1.5527   -0.1502  -10.2906  C     
16   O        -0.7338    0.2786  -11.1049  O     
17   C         2.0622    0.5665   -6.3209  C     
18   H         0.0967   -1.1723   -1.6169  H     
19   H        -2.1673   -1.9784   -1.2911  H     
20   H        -3.9704   -1.0993   -2.6499  H     
21   H        -3.5227    0.5515   -4.3547  H     
22   H         0.5601    0.4795   -3.3336  H     
23   H        -3.0378    2.1500   -6.7173  H     
24   H        -3.2578    1.4108   -8.9756  H     
25   H         0.3562   -0.7638   -8.6233  H     
26   H        -2.4870   -0.4416  -10.6248  H     
27   H         2.4656    0.5678   -7.3345  H     
28   H         2.8026    0.1024   -5.6624  H     
29   H         1.9008    1.5789   -5.9865  H     
@<TRIPOS>BOND
     1    1    2 2
     2    1    6 1
     3    2    3 1
     4    3    4 2
     5    4    5 1
     6    5    6 2
     7    5    7 1
     8    7    8 1
     9    8    9 2
    10    8   13 1
    11    9   10 1
    12   10   11 2
    13   11   12 1
    14   11   15 1
    15   12   13 2
    16   13   14 1
    17   14   17 1
    18   15   16 2
    19    1   18 1
    20    2   19 1
    21    3   20 1
    22    4   21 1
    23    6   22 1
    24    9   23 1
    25   10   24 1
    26   12   25 1
    27   15   26 1
    28   17   27 1
    29   17   28 1
    30   17   29 1
@<TRIPOS>PROPERTY_DATA
  Total_Score	| 1.8361
  Crash		| -0.9295
  Polar		| 0.0259
  FragIndex	| 1
  FragRMSD	| 0.592

