@<TRIPOS>MOLECULE
BindingDB_50225228
 26 27 0 0 0
SMALL
NO_CHARGES


@<TRIPOS>ATOM
1    C        -3.0732   -0.7528   -2.8755  C     
2    C        -2.0323   -1.2772   -2.0874  C     
3    C        -0.7222   -0.7997   -2.2630  C     
4    C        -0.4492    0.1826   -3.2347  C     
5    C        -1.4791    0.6844   -4.0555  C     
6    C        -2.8025    0.2405   -3.8372  C     
7    O        -1.1735    1.6475   -4.9841  O     
8    C        -1.2201    1.1762   -6.2786  C     
9    C        -2.2925    1.5748   -7.1000  C     
10   C        -2.4275    1.0574   -8.3981  C     
11   C        -1.4699    0.1569   -8.9190  C     
12   C        -0.3464   -0.1696   -8.1229  C     
13   C        -0.2146    0.3371   -6.8181  C     
14   O         0.8662   -0.0346   -6.0923  O     
15   C        -1.6329   -0.4137  -10.2074  C     
16   O        -0.6734   -1.1914  -10.7745  O     
17   O        -2.7843   -0.2663  -10.9173  O     
18   H        -4.0293   -1.0821   -2.7347  H     
19   H        -2.2262   -1.9926   -1.3852  H     
20   H         0.0360   -1.1604   -1.6796  H     
21   H         0.5084    0.5258   -3.3503  H     
22   H        -3.5704    0.6404   -4.3771  H     
23   H        -3.0023    2.2137   -6.7346  H     
24   H        -3.2411    1.3320   -8.9503  H     
25   H         0.3751   -0.8000   -8.4789  H     
26   H         1.1316    0.7740   -5.5845  H     
@<TRIPOS>BOND
     1    1    2 2
     2    1    6 1
     3    2    3 1
     4    3    4 2
     5    4    5 1
     6    5    6 2
     7    5    7 1
     8    7    8 1
     9    8    9 2
    10    8   13 1
    11    9   10 1
    12   10   11 2
    13   11   12 1
    14   11   15 1
    15   12   13 2
    16   13   14 1
    17   15   16 2
    18   15   17 1
    19    1   18 1
    20    2   19 1
    21    3   20 1
    22    4   21 1
    23    6   22 1
    24    9   23 1
    25   10   24 1
    26   12   25 1
    27   14   26 1
@<TRIPOS>PROPERTY_DATA
  Total_Score	| 1.4703
  Crash		| -1.0079
  Polar		| 0.0007
  FragIndex	| 1
  FragRMSD	| 0.185

