@<TRIPOS>MOLECULE
BindingDB_50225217
 27 28 0 0 0
SMALL
NO_CHARGES


@<TRIPOS>ATOM
1    C        -0.7906   -0.8495   -2.2087  C     
2    C        -2.1045   -1.3372   -2.0907  C     
3    C        -3.1252   -0.7927   -2.8924  C     
4    C        -2.8222    0.2136   -3.8296  C     
5    C        -1.4941    0.6771   -3.9923  C     
6    C        -0.4869    0.1759   -3.1291  C     
7    O        -1.2113    1.6704   -4.9018  O     
8    C        -1.2396    1.2656   -6.2167  C     
9    C        -2.3157    1.6485   -7.0428  C     
10   C        -2.3636    1.2436   -8.3925  C     
11   C        -1.3183    0.4712   -8.9545  C     
12   C        -0.2080    0.1500   -8.1421  C     
13   C        -0.1701    0.5405   -6.7901  C     
14   Cl        1.0752    0.8322   -3.1048  Cl    
15   Cl       -2.4571   -2.5198   -0.9347  Cl    
16   O         0.9335    0.2103   -6.0731  O     
17   C        -1.3577    0.0348  -10.3737  C     
18   Cl       -0.8252   -1.6333  -10.6050  Cl    
19   H        -0.0579   -1.2233   -1.6007  H     
20   H        -4.0942   -1.1053   -2.7848  H     
21   H        -3.5780    0.6292   -4.3790  H     
22   H        -3.0698    2.2280   -6.6680  H     
23   H        -3.1609    1.5232   -8.9680  H     
24   H         0.5890   -0.3567   -8.5385  H     
25   H         1.1582    0.9990   -5.5460  H     
26   H        -2.3703    0.1041  -10.7823  H     
27   H        -0.7088    0.6877  -10.9647  H     
@<TRIPOS>BOND
     1    1    2 2
     2    1    6 1
     3    2    3 1
     4    2   15 1
     5    3    4 2
     6    4    5 1
     7    5    6 2
     8    5    7 1
     9    6   14 1
    10    7    8 1
    11    8    9 2
    12    8   13 1
    13    9   10 1
    14   10   11 2
    15   11   12 1
    16   11   17 1
    17   12   13 2
    18   13   16 1
    19   17   18 1
    20    1   19 1
    21    3   20 1
    22    4   21 1
    23    9   22 1
    24   10   23 1
    25   12   24 1
    26   16   25 1
    27   17   26 1
    28   17   27 1
@<TRIPOS>PROPERTY_DATA
  Total_Score	| 2.3501
  Crash		| -1.1767
  Polar		| 0.0000
  FragIndex	| 1
  FragRMSD	| 0.188

