@<TRIPOS>MOLECULE
BindingDB_50225231
 29 30 0 0 0
SMALL
NO_CHARGES


@<TRIPOS>ATOM
1    C        -0.8122   -0.7653   -2.2064  C     
2    C        -2.1420   -1.2041   -2.0732  C     
3    C        -3.1480   -0.6552   -2.8868  C     
4    C        -2.8185    0.3196   -3.8459  C     
5    C        -1.4785    0.7384   -4.0140  C     
6    C        -0.4847    0.2099   -3.1657  C     
7    O        -1.1302    1.6761   -4.9522  O     
8    C        -1.2266    1.1977   -6.2345  C     
9    C        -2.3133    1.5898   -7.0403  C     
10   C        -2.4579    1.0711   -8.3394  C     
11   C        -1.5001    0.1792   -8.8801  C     
12   C        -0.3730   -0.1491   -8.0881  C     
13   C        -0.2261    0.3654   -6.7837  C     
14   O         0.8809    0.0459   -6.0486  O     
15   C         2.0058    0.9232   -6.2750  C     
16   C        -1.6744   -0.3726  -10.1768  C     
17   O        -0.7465   -1.1819  -10.7388  O     
18   O        -2.8196   -0.1992  -10.8769  O     
19   H        -0.0824   -1.1559   -1.6100  H     
20   H        -2.3796   -1.9125   -1.3778  H     
21   H        -4.1158   -0.9598   -2.7773  H     
22   H        -3.5572    0.7262   -4.4218  H     
23   H         0.4851    0.5240   -3.2559  H     
24   H        -3.0190    2.2310   -6.6676  H     
25   H        -3.2776    1.3454   -8.8836  H     
26   H         0.3519   -0.7728   -8.4512  H     
27   H         1.8189    1.7624   -6.9548  H     
28   H         2.8329    0.3330   -6.6741  H     
29   H         2.3118    1.3338   -5.3101  H     
@<TRIPOS>BOND
     1    1    2 2
     2    1    6 1
     3    2    3 1
     4    3    4 2
     5    4    5 1
     6    5    6 2
     7    5    7 1
     8    7    8 1
     9    8    9 2
    10    8   13 1
    11    9   10 1
    12   10   11 2
    13   11   12 1
    14   11   16 1
    15   12   13 2
    16   13   14 1
    17   14   15 1
    18   16   17 1
    19   16   18 2
    20    1   19 1
    21    2   20 1
    22    3   21 1
    23    4   22 1
    24    6   23 1
    25    9   24 1
    26   10   25 1
    27   12   26 1
    28   15   27 1
    29   15   28 1
    30   15   29 1
@<TRIPOS>PROPERTY_DATA
  Total_Score	| 1.7610
  Crash		| -1.2538
  Polar		| 0.0009
  FragIndex	| 1
  FragRMSD	| 0.199

