@<TRIPOS>MOLECULE
BindingDB_50225225
 28 29 0 0 0
SMALL
NO_CHARGES


@<TRIPOS>ATOM
1    C        -0.7030   -0.6798   -2.2396  C     
2    C        -1.9884   -1.2270   -2.0733  C     
3    C        -3.0567   -0.7620   -2.8631  C     
4    C        -2.8275    0.2343   -3.8343  C     
5    C        -1.5262    0.7401   -4.0574  C     
6    C        -0.4711    0.2928   -3.2386  C     
7    O        -1.2822    1.7053   -4.9887  O     
8    C        -1.2938    1.2468   -6.2779  C     
9    C        -2.3526    1.6130   -7.1285  C     
10   C        -2.4014    1.1535   -8.4566  C     
11   C        -1.3731    0.3432   -8.9774  C     
12   C        -0.2950   -0.0067   -8.1374  C     
13   C        -0.2524    0.4499   -6.7995  C     
14   O         0.8054    0.1385   -6.0076  O     
15   C        -1.4262   -0.0682  -10.4014  C     
16   O        -2.7083   -0.5681  -10.7645  O     
17   H         0.0594   -0.9737   -1.6291  H     
18   H        -2.1518   -1.9407   -1.3568  H     
19   H        -3.9989   -1.1156   -2.7041  H     
20   H        -3.6178    0.5995   -4.3695  H     
21   H         0.4598    0.6950   -3.3378  H     
22   H        -3.0935    2.2305   -6.7799  H     
23   H        -3.1857    1.4284   -9.0441  H     
24   H         0.4752   -0.5729   -8.4947  H     
25   H         1.2950    0.9958   -5.9043  H     
26   H        -1.2173    0.8112  -11.0272  H     
27   H        -0.6776   -0.8338  -10.6425  H     
28   H        -2.6953   -1.5286  -10.5436  H     
@<TRIPOS>BOND
     1    1    2 2
     2    1    6 1
     3    2    3 1
     4    3    4 2
     5    4    5 1
     6    5    6 2
     7    5    7 1
     8    7    8 1
     9    8    9 2
    10    8   13 1
    11    9   10 1
    12   10   11 2
    13   11   12 1
    14   11   15 1
    15   12   13 2
    16   13   14 1
    17   15   16 1
    18    1   17 1
    19    2   18 1
    20    3   19 1
    21    4   20 1
    22    6   21 1
    23    9   22 1
    24   10   23 1
    25   12   24 1
    26   14   25 1
    27   15   26 1
    28   15   27 1
    29   16   28 1
@<TRIPOS>PROPERTY_DATA
  Total_Score	| 3.0329
  Crash		| -1.1611
  Polar		| 1.1163
  FragIndex	| 1
  FragRMSD	| 0.149

