@<TRIPOS>MOLECULE
BindingDB_50053068
 43 44 0 0 0
SMALL
NO_CHARGES


@<TRIPOS>ATOM
1    C       -10.0531    1.6155  -25.8138  C     
2    C       -11.4948    2.0689  -26.2165  C     
3    N       -11.4940    1.2447  -23.9133  N     
4    C       -10.1018    1.6011  -24.2507  C     
5    C       -11.8679    2.0069  -27.6697  C     
6    C       -12.3163    1.3019  -25.1302  C     
7    C        -9.7397    2.8716  -23.5668  C     
8    C        -9.6267    0.2718  -26.4703  C     
9    C       -11.2504    2.8779  -28.6363  C     
10   C        -8.2217   -0.1376  -26.2504  C     
11   C        -9.3154    5.3928  -31.5265  C     
12   C        -9.9502    4.5875  -30.5958  C     
13   C       -12.8040    1.1020  -28.0611  C     
14   O        -9.9079    3.0144  -22.2338  O     
15   O        -7.4580    0.3831  -25.2704  O     
16   C       -11.7083    2.9890  -29.9878  C     
17   C       -10.1687    3.7523  -28.2983  C     
18   C        -9.5264    4.5633  -29.2490  C     
19   C       -11.0783    3.8135  -30.9442  C     
20   C        -8.0692    5.0920  -31.9356  C     
21   O        -9.1241    3.9023  -24.2079  O     
22   O        -7.6021   -0.8865  -27.1975  O     
23   C       -10.0271    6.5553  -32.0328  C     
24   H        -9.2869    2.3038  -26.0893  H     
25   H       -11.6022    3.1235  -25.9450  H     
26   H       -11.5126    0.2926  -23.5432  H     
27   H       -11.8784    1.8778  -23.2046  H     
28   H        -9.4425    0.8266  -23.8496  H     
29   H       -13.2677    1.7933  -24.9216  H     
30   H       -12.5141    0.2650  -25.4025  H     
31   H       -10.2768   -0.5357  -26.1224  H     
32   H        -9.7595    0.3818  -27.5502  H     
33   H       -13.0075    0.9174  -29.0116  H     
34   H       -13.3077    0.5487  -27.4211  H     
35   H       -12.5458    2.5083  -30.3137  H     
36   H        -9.8857    3.9225  -27.3537  H     
37   H        -8.7449    5.1475  -28.9469  H     
38   H       -11.4580    3.8459  -31.9012  H     
39   H        -7.5908    5.6485  -32.5959  H     
40   H        -7.5879    4.3055  -31.5737  H     
41   H       -10.9641    6.2316  -32.4919  H     
42   H        -9.4507    7.0988  -32.7797  H     
43   H       -10.2610    7.2521  -31.2248  H     
@<TRIPOS>BOND
     1    1    2 1
     2    1    4 1
     3    1    8 1
     4    2    5 1
     5    2    6 1
     6    3    4 1
     7    3    6 1
     8    4    7 1
     9    5    9 1
    10    5   13 2
    11    7   14 2
    12    7   21 1
    13    8   10 1
    14    9   16 1
    15    9   17 2
    16   10   15 2
    17   10   22 1
    18   11   12 1
    19   11   20 2
    20   11   23 1
    21   12   18 2
    22   12   19 1
    23   16   19 2
    24   17   18 1
    25    1   24 1
    26    2   25 1
    27    3   26 1
    28    3   27 1
    29    4   28 1
    30    6   29 1
    31    6   30 1
    32    8   31 1
    33    8   32 1
    34   13   33 1
    35   13   34 1
    36   16   35 1
    37   17   36 1
    38   18   37 1
    39   19   38 1
    40   20   39 1
    41   20   40 1
    42   23   41 1
    43   23   42 1
    44   23   43 1
@<TRIPOS>PROPERTY_DATA
  Total_Score	| 15.8553
  Crash		| -1.1893
  Polar		| 11.0053
  FragIndex	| 1
  FragRMSD	| 0.924

