@<TRIPOS>MOLECULE
BindingDB_50053069
 36 37 0 0 0
SMALL
NO_CHARGES


@<TRIPOS>ATOM
1    C       -10.3276    1.8807  -25.8328  C     
2    C       -11.6092    1.1700  -26.3191  C     
3    N       -11.4641    1.1898  -23.8257  N     
4    C       -10.1656    1.6782  -24.2974  C     
5    C       -12.3378    1.7850  -27.4853  C     
6    C       -12.3902    1.1049  -24.9620  C     
7    C        -9.6854    2.8702  -23.5459  C     
8    C        -9.0263    1.5438  -26.6468  C     
9    C        -8.3577    0.2740  -26.3053  C     
10   C       -11.7539    2.5633  -28.5574  C     
11   C       -13.6626    1.5010  -27.5829  C     
12   O        -9.9316    3.0040  -22.2248  O     
13   O        -8.3811   -0.7684  -27.1648  O     
14   O        -9.0714    3.9179  -24.1365  O     
15   O        -7.4327    0.2587  -25.3216  O     
16   C       -12.3065    2.4290  -29.8694  C     
17   C       -10.7005    3.5332  -28.4506  C     
18   C       -10.3023    4.3380  -29.5335  C     
19   C       -11.9390    3.2585  -30.9440  C     
20   C       -10.9356    4.2205  -30.7746  C     
21   H       -10.6194    2.9287  -25.9472  H     
22   H       -11.3537    0.1413  -26.5949  H     
23   H       -11.3349    0.2571  -23.4297  H     
24   H       -11.8498    1.8068  -23.1066  H     
25   H        -9.4585    0.8760  -24.0825  H     
26   H       -13.0792    1.9451  -24.8673  H     
27   H       -12.9653    0.1783  -24.8848  H     
28   H        -9.2336    1.5054  -27.7143  H     
29   H        -8.3209    2.3595  -26.4874  H     
30   H       -14.2400    1.9443  -28.2560  H     
31   H       -14.1172    0.8675  -26.9743  H     
32   H       -13.0230    1.7259  -30.0627  H     
33   H       -10.1572    3.7028  -27.5989  H     
34   H        -9.5517    5.0268  -29.4114  H     
35   H       -12.4011    3.1618  -31.8476  H     
36   H       -10.6557    4.8135  -31.5569  H     
@<TRIPOS>BOND
     1    1    2 1
     2    1    4 1
     3    1    8 1
     4    2    5 1
     5    2    6 1
     6    3    4 1
     7    3    6 1
     8    4    7 1
     9    5   10 1
    10    5   11 2
    11    7   12 2
    12    7   14 1
    13    8    9 1
    14    9   13 2
    15    9   15 1
    16   10   16 2
    17   10   17 1
    18   16   19 1
    19   17   18 2
    20   18   20 1
    21   19   20 2
    22    1   21 1
    23    2   22 1
    24    3   23 1
    25    3   24 1
    26    4   25 1
    27    6   26 1
    28    6   27 1
    29    8   28 1
    30    8   29 1
    31   11   30 1
    32   11   31 1
    33   16   32 1
    34   17   33 1
    35   18   34 1
    36   19   35 1
    37   20   36 1
@<TRIPOS>PROPERTY_DATA
  Total_Score	| 14.6056
  Crash		| -1.6376
  Polar		| 11.2859
  FragIndex	| 1
  FragRMSD	| 0.688

