@<TRIPOS>MOLECULE
BindingDB_50053060
 48 49 0 0 0
SMALL
NO_CHARGES


@<TRIPOS>ATOM
1    C       -10.0203    1.5482  -25.7039  C     
2    C       -11.4187    2.0962  -26.1363  C     
3    N       -11.5452    1.2018  -23.8702  N     
4    C       -10.1412    1.5515  -24.1463  C     
5    C       -11.6924    2.1375  -27.6095  C     
6    C       -12.3392    1.3736  -25.1049  C     
7    C        -9.8067    2.8314  -23.4658  C     
8    C        -9.6702    0.1341  -26.2874  C     
9    C       -10.9942    3.0617  -28.4692  C     
10   C        -8.2450   -0.2717  -26.1459  C     
11   C        -8.6294    5.7377  -31.1696  C     
12   C        -9.4762    4.8854  -30.2275  C     
13   C       -12.5899    1.2580  -28.1101  C     
14   O        -9.3183    3.9143  -24.1193  O     
15   O        -7.6446   -0.8969  -27.1842  O     
16   C       -11.2864    3.2329  -29.8568  C     
17   C        -9.9514    3.9189  -28.0024  C     
18   C        -9.2243    4.7842  -28.8388  C     
19   C       -10.5602    4.1086  -30.7008  C     
20   O       -10.0268    2.9601  -22.1391  O     
21   O        -7.4274    0.3186  -25.2411  O     
22   C        -7.6712    6.7489  -30.4396  C     
23   C        -7.7218    4.7840  -32.0180  C     
24   C        -9.5212    6.5819  -32.1432  C     
25   H        -9.2168    2.2217  -26.0147  H     
26   H       -11.4922    3.1363  -25.8020  H     
27   H       -11.5658    0.2163  -23.5911  H     
28   H       -11.9420    1.7724  -23.1119  H     
29   H        -9.5041    0.7846  -23.6953  H     
30   H       -13.2430    1.9509  -24.8913  H     
31   H       -12.6391    0.3702  -25.4136  H     
32   H       -10.2959   -0.6397  -25.8267  H     
33   H        -9.8993    0.1376  -27.3553  H     
34   H       -12.7753    1.1837  -29.0701  H     
35   H       -13.0801    0.6153  -27.5434  H     
36   H       -12.0498    2.7250  -30.3028  H     
37   H        -9.7005    3.9420  -27.0070  H     
38   H        -8.4805    5.3302  -28.3909  H     
39   H       -10.8166    4.1565  -31.6868  H     
40   H        -8.2425    7.4218  -29.7833  H     
41   H        -7.1171    7.3573  -31.1574  H     
42   H        -6.9326    6.2110  -29.8299  H     
43   H        -7.0065    4.2597  -31.3763  H     
44   H        -7.1635    5.3390  -32.7747  H     
45   H        -8.3196    4.0244  -32.5346  H     
46   H       -10.0523    5.9356  -32.8486  H     
47   H        -8.9012    7.2730  -32.7383  H     
48   H       -10.2540    7.1755  -31.5848  H     
@<TRIPOS>BOND
     1    1    2 1
     2    1    4 1
     3    1    8 1
     4    2    5 1
     5    2    6 1
     6    3    4 1
     7    3    6 1
     8    4    7 1
     9    5    9 1
    10    5   13 2
    11    7   14 2
    12    7   20 1
    13    8   10 1
    14    9   16 1
    15    9   17 2
    16   10   15 2
    17   10   21 1
    18   11   12 1
    19   11   22 1
    20   11   23 1
    21   11   24 1
    22   12   18 2
    23   12   19 1
    24   16   19 2
    25   17   18 1
    26    1   25 1
    27    2   26 1
    28    3   27 1
    29    3   28 1
    30    4   29 1
    31    6   30 1
    32    6   31 1
    33    8   32 1
    34    8   33 1
    35   13   34 1
    36   13   35 1
    37   16   36 1
    38   17   37 1
    39   18   38 1
    40   19   39 1
    41   22   40 1
    42   22   41 1
    43   22   42 1
    44   23   43 1
    45   23   44 1
    46   23   45 1
    47   24   46 1
    48   24   47 1
    49   24   48 1
@<TRIPOS>PROPERTY_DATA
  Total_Score	| 16.5037
  Crash		| -2.0605
  Polar		| 10.9976
  FragIndex	| 1
  FragRMSD	| 0.941

