@<TRIPOS>MOLECULE
BindingDB_50053083
 39 40 0 0 0
SMALL
NO_CHARGES


@<TRIPOS>ATOM
1    C       -10.0245    1.5720  -25.7455  C     
2    C       -11.4495    2.0505  -26.1745  C     
3    N       -11.5183    1.2503  -23.8751  N     
4    C       -11.7957    2.0124  -27.6295  C     
5    C       -10.1131    1.5679  -24.1857  C     
6    C       -12.3049    1.2908  -25.1151  C     
7    C       -11.1450    2.8924  -28.5813  C     
8    C        -9.6992    2.8531  -23.5708  C     
9    C        -9.6082    0.2238  -26.4323  C     
10   C        -8.2411   -0.2524  -26.1545  C     
11   C       -10.0375    3.7164  -28.2295  C     
12   C       -12.7876    1.1631  -28.0073  C     
13   O        -8.5631    3.4558  -23.9918  O     
14   O        -7.5632   -0.8894  -27.1370  O     
15   O       -10.0911    3.2116  -22.3338  O     
16   O        -7.5092    0.3509  -25.1901  O     
17   C        -9.3610    4.5544  -29.1440  C     
18   C       -11.5881    3.0433  -29.9343  C     
19   C       -10.9635    3.8922  -30.8596  C     
20   C        -9.8457    4.6339  -30.4662  C     
21   C        -8.1511    5.2989  -28.7379  C     
22   H        -9.2556    2.2909  -26.0293  H     
23   H       -11.5517    3.1011  -25.8977  H     
24   H       -11.5527    0.3102  -23.4830  H     
25   H       -11.9223    1.8886  -23.1872  H     
26   H        -9.4849    0.8022  -23.7232  H     
27   H       -13.2768    1.7534  -24.9316  H     
28   H       -12.4669    0.2473  -25.3941  H     
29   H       -10.3104   -0.5822  -26.1740  H     
30   H        -9.6656    0.3663  -27.5244  H     
31   H        -9.7045    3.7580  -27.2708  H     
32   H       -13.0366    0.9972  -28.9399  H     
33   H       -13.3252    0.6400  -27.3609  H     
34   H       -12.3917    2.5543  -30.3040  H     
35   H       -11.3097    3.9545  -31.8223  H     
36   H        -9.3729    5.2248  -31.1618  H     
37   H        -8.3760    5.9272  -27.8722  H     
38   H        -7.7630    5.9408  -29.5355  H     
39   H        -7.3705    4.5837  -28.4645  H     
@<TRIPOS>BOND
     1    1    2 1
     2    1    5 1
     3    1    9 1
     4    2    4 1
     5    2    6 1
     6    3    5 1
     7    3    6 1
     8    4    7 1
     9    4   12 2
    10    5    8 1
    11    7   11 2
    12    7   18 1
    13    8   13 2
    14    8   15 1
    15    9   10 1
    16   10   14 2
    17   10   16 1
    18   11   17 1
    19   17   20 2
    20   17   21 1
    21   18   19 2
    22   19   20 1
    23    1   22 1
    24    2   23 1
    25    3   24 1
    26    3   25 1
    27    5   26 1
    28    6   27 1
    29    6   28 1
    30    9   29 1
    31    9   30 1
    32   11   31 1
    33   12   32 1
    34   12   33 1
    35   18   34 1
    36   19   35 1
    37   20   36 1
    38   21   37 1
    39   21   38 1
    40   21   39 1
@<TRIPOS>PROPERTY_DATA
  Total_Score	| 15.6886
  Crash		| -0.8060
  Polar		| 11.0324
  FragIndex	| 1
  FragRMSD	| 0.902

