@<TRIPOS>MOLECULE
BindingDB_50053061
 36 37 0 0 0
SMALL
NO_CHARGES


@<TRIPOS>ATOM
1    C       -10.0556    1.5992  -25.7948  C     
2    C       -11.4865    2.0502  -26.2266  C     
3    N       -11.5648    1.2309  -23.9263  N     
4    C       -10.1696    1.5876  -24.2336  C     
5    C       -11.8361    2.0397  -27.6891  C     
6    C       -12.3398    1.2668  -25.1759  C     
7    C        -9.8102    2.8728  -23.5771  C     
8    C        -9.6104    0.2602  -26.4763  C     
9    C       -11.1468    2.8861  -28.6384  C     
10   C        -8.2053   -0.1541  -26.2643  C     
11   C       -12.9018    1.2888  -28.0808  C     
12   O        -9.9302    3.0016  -22.2396  O     
13   O        -7.5474   -0.8651  -27.2198  O     
14   C       -11.4452    2.9195  -30.0382  C     
15   C       -10.1293    3.8003  -28.2314  C     
16   O        -8.9163    3.7022  -24.1627  O     
17   C        -9.7944    4.6474  -30.4959  C     
18   O        -7.4545    0.4095  -25.2752  O     
19   C       -10.8081    3.8009  -30.9382  C     
20   C        -9.4499    4.6339  -29.1364  C     
21   Cl       -8.9762    5.6854  -31.5698  Cl    
22   H        -9.3119    2.3395  -26.1006  H     
23   H       -11.6108    3.1007  -25.9257  H     
24   H       -11.5752    0.2864  -23.5412  H     
25   H       -11.9785    1.8773  -23.2368  H     
26   H        -9.5383    0.8190  -23.7945  H     
27   H       -13.3111    1.7470  -24.9898  H     
28   H       -12.5037    0.2220  -25.4672  H     
29   H       -10.2804   -0.5670  -26.1807  H     
30   H        -9.7153    0.4062  -27.5648  H     
31   H       -13.1854    1.2211  -29.0173  H     
32   H       -13.4422    0.7646  -27.4389  H     
33   H       -12.1219    2.2973  -30.4656  H     
34   H        -9.8429    3.9031  -27.2573  H     
35   H       -11.0423    3.7808  -31.9381  H     
36   H        -8.7114    5.2599  -28.8050  H     
@<TRIPOS>BOND
     1    1    2 1
     2    1    4 1
     3    1    8 1
     4    2    5 1
     5    2    6 1
     6    3    4 1
     7    3    6 1
     8    4    7 1
     9    5    9 1
    10    5   11 2
    11    7   12 2
    12    7   16 1
    13    8   10 1
    14    9   14 2
    15    9   15 1
    16   10   13 2
    17   10   18 1
    18   14   19 1
    19   15   20 2
    20   17   19 2
    21   17   20 1
    22   17   21 1
    23    1   22 1
    24    2   23 1
    25    3   24 1
    26    3   25 1
    27    4   26 1
    28    6   27 1
    29    6   28 1
    30    8   29 1
    31    8   30 1
    32   11   31 1
    33   11   32 1
    34   14   33 1
    35   15   34 1
    36   19   35 1
    37   20   36 1
@<TRIPOS>PROPERTY_DATA
  Total_Score	| 14.7640
  Crash		| -1.0243
  Polar		| 11.4728
  FragIndex	| 1
  FragRMSD	| 0.358

