@<TRIPOS>MOLECULE
BindingDB_50053082
 48 49 0 0 0
SMALL
NO_CHARGES


@<TRIPOS>ATOM
1    C       -10.0495    1.5051  -25.7121  C     
2    C       -11.4660    2.0275  -26.1208  C     
3    N       -11.5121    1.2084  -23.8179  N     
4    C       -10.1187    1.5488  -24.1511  C     
5    C       -11.8312    1.9653  -27.5724  C     
6    C       -12.3513    1.3755  -25.0117  C     
7    C        -9.7633    2.8396  -23.5069  C     
8    C        -9.6688    0.0911  -26.2763  C     
9    C       -11.2967    2.9024  -28.5335  C     
10   C        -8.2339   -0.2664  -26.1424  C     
11   C       -12.6321    0.9531  -27.9811  C     
12   O        -9.9746    2.9983  -22.1801  O     
13   O        -7.6089   -0.8952  -27.1648  O     
14   C       -11.8163    3.0472  -29.8581  C     
15   C       -10.2263    3.7902  -28.2249  C     
16   O        -9.3092    3.9128  -24.1979  O     
17   O        -7.4371    0.3539  -25.2414  O     
18   C        -9.6426    4.6472  -29.1720  C     
19   C       -11.2401    3.9028  -30.8174  C     
20   C       -10.1171    4.6930  -30.4975  C     
21   C        -9.4743    5.5932  -31.4973  C     
22   C        -8.0386    5.1323  -31.8938  C     
23   C        -7.3409    6.0508  -32.9479  C     
24   C        -5.9662    6.6078  -32.5010  C     
25   H        -9.2696    2.1815  -26.0557  H     
26   H       -11.5004    3.0915  -25.8638  H     
27   H       -11.5362    0.2264  -23.5351  H     
28   H       -11.8813    1.7790  -23.0506  H     
29   H        -9.4697    0.7919  -23.7085  H     
30   H       -13.2257    1.9923  -24.7777  H     
31   H       -12.6983    0.3714  -25.2492  H     
32   H       -10.2580   -0.6828  -25.7789  H     
33   H        -9.9106    0.0541  -27.3393  H     
34   H       -12.8026    0.7562  -28.9344  H     
35   H       -13.0303    0.3064  -27.3544  H     
36   H       -12.6508    2.5417  -30.1596  H     
37   H        -9.8420    3.8572  -27.2929  H     
38   H        -8.8673    5.2495  -28.8856  H     
39   H       -11.6484    3.9409  -31.7549  H     
40   H       -10.0797    5.6485  -32.4102  H     
41   H        -9.4312    6.6050  -31.0802  H     
42   H        -7.4247    5.0610  -30.9938  H     
43   H        -8.1103    4.1224  -32.3054  H     
44   H        -7.1842    5.4825  -33.8693  H     
45   H        -7.9830    6.8980  -33.2093  H     
46   H        -6.0679    7.1821  -31.5780  H     
47   H        -5.5627    7.2639  -33.2792  H     
48   H        -5.2599    5.7942  -32.3397  H     
@<TRIPOS>BOND
     1    1    2 1
     2    1    4 1
     3    1    8 1
     4    2    5 1
     5    2    6 1
     6    3    4 1
     7    3    6 1
     8    4    7 1
     9    5    9 1
    10    5   11 2
    11    7   12 2
    12    7   16 1
    13    8   10 1
    14    9   14 2
    15    9   15 1
    16   10   13 2
    17   10   17 1
    18   14   19 1
    19   15   18 2
    20   18   20 1
    21   19   20 2
    22   20   21 1
    23   21   22 1
    24   22   23 1
    25   23   24 1
    26    1   25 1
    27    2   26 1
    28    3   27 1
    29    3   28 1
    30    4   29 1
    31    6   30 1
    32    6   31 1
    33    8   32 1
    34    8   33 1
    35   11   34 1
    36   11   35 1
    37   14   36 1
    38   15   37 1
    39   18   38 1
    40   19   39 1
    41   21   40 1
    42   21   41 1
    43   22   42 1
    44   22   43 1
    45   23   44 1
    46   23   45 1
    47   24   46 1
    48   24   47 1
    49   24   48 1
@<TRIPOS>PROPERTY_DATA
  Total_Score	| 16.7236
  Crash		| -1.8469
  Polar		| 11.0322
  FragIndex	| 1
  FragRMSD	| 0.394

