@<TRIPOS>MOLECULE
BindingDB_50053081
 43 44 0 0 0
SMALL
NO_CHARGES


@<TRIPOS>ATOM
1    C       -10.2751    1.8723  -25.8124  C     
2    C       -11.5330    1.2089  -26.3960  C     
3    N       -11.5506    1.1925  -23.8980  N     
4    C       -10.2023    1.6244  -24.2803  C     
5    C       -12.1478    1.8882  -27.5915  C     
6    C       -12.4045    1.1459  -25.0953  C     
7    C        -9.6981    2.7877  -23.4985  C     
8    C        -8.9269    1.5463  -26.5484  C     
9    C       -11.4663    2.7222  -28.5665  C     
10   C        -8.2847    0.2612  -26.2134  C     
11   C       -10.0642    5.4405  -31.6343  C     
12   C       -10.4889    4.5243  -30.6500  C     
13   C       -13.4657    1.6400  -27.7922  C     
14   O        -8.8962    3.7428  -24.0240  O     
15   O        -8.4067   -0.8153  -27.0211  O     
16   C       -11.9279    2.6748  -29.9151  C     
17   C       -10.3891    3.6504  -28.3465  C     
18   C        -9.9364    4.5274  -29.3504  C     
19   C       -11.4791    3.5543  -30.9149  C     
20   C       -10.9480    6.2179  -32.2893  C     
21   O        -9.9702    2.9177  -22.1854  O     
22   O        -7.4395    0.1892  -25.1634  O     
23   C        -8.6459    5.6024  -31.9617  C     
24   H       -10.5697    2.9225  -25.9096  H     
25   H       -11.2950    0.1803  -26.6841  H     
26   H       -11.4828    0.2537  -23.5001  H     
27   H       -11.9545    1.8230  -23.2006  H     
28   H        -9.5476    0.7808  -24.0509  H     
29   H       -13.0779    2.0011  -25.0352  H     
30   H       -13.0061    0.2332  -25.0710  H     
31   H        -9.0566    1.5373  -27.6295  H     
32   H        -8.2303    2.3529  -26.3150  H     
33   H       -13.9881    2.1110  -28.4926  H     
34   H       -13.9776    0.9960  -27.2373  H     
35   H       -12.6296    1.9846  -30.2000  H     
36   H        -9.8605    3.7461  -27.4633  H     
37   H        -9.2083    5.2045  -29.1023  H     
38   H       -11.8813    3.4656  -31.8499  H     
39   H       -10.6476    6.8655  -32.9790  H     
40   H       -11.9185    6.1900  -32.0827  H     
41   H        -8.0103    4.8773  -31.4526  H     
42   H        -8.3104    6.6022  -31.6781  H     
43   H        -8.4888    5.4700  -33.0348  H     
@<TRIPOS>BOND
     1    1    2 1
     2    1    4 1
     3    1    8 1
     4    2    5 1
     5    2    6 1
     6    3    4 1
     7    3    6 1
     8    4    7 1
     9    5    9 1
    10    5   13 2
    11    7   14 2
    12    7   21 1
    13    8   10 1
    14    9   16 2
    15    9   17 1
    16   10   15 2
    17   10   22 1
    18   11   12 1
    19   11   20 2
    20   11   23 1
    21   12   18 1
    22   12   19 2
    23   16   19 1
    24   17   18 2
    25    1   24 1
    26    2   25 1
    27    3   26 1
    28    3   27 1
    29    4   28 1
    30    6   29 1
    31    6   30 1
    32    8   31 1
    33    8   32 1
    34   13   33 1
    35   13   34 1
    36   16   35 1
    37   17   36 1
    38   18   37 1
    39   19   38 1
    40   20   39 1
    41   20   40 1
    42   23   41 1
    43   23   42 1
    44   23   43 1
@<TRIPOS>PROPERTY_DATA
  Total_Score	| 14.8776
  Crash		| -1.6497
  Polar		| 11.0152
  FragIndex	| 1
  FragRMSD	| 1.064

