@<TRIPOS>MOLECULE
BindingDB_50053067
 36 37 0 0 0
SMALL
NO_CHARGES


@<TRIPOS>ATOM
1    C       -10.0467    1.5487  -25.7731  C     
2    C       -11.4958    1.9970  -26.1435  C     
3    N       -11.4835    1.2208  -23.8525  N     
4    C       -10.0973    1.5898  -24.2093  C     
5    C       -11.8875    1.9828  -27.5836  C     
6    C       -12.3096    1.2248  -25.0681  C     
7    C        -9.7592    2.8928  -23.5793  C     
8    C        -9.6292    0.1596  -26.3672  C     
9    C        -8.1991   -0.1900  -26.2332  C     
10   C       -11.2320    2.8340  -28.5363  C     
11   C       -12.9748    1.2645  -27.9546  C     
12   O        -9.9814    3.0772  -22.2578  O     
13   O        -7.6125   -0.9474  -27.1855  O     
14   O        -9.2318    3.9306  -24.2692  O     
15   O        -7.4057    0.3408  -25.2750  O     
16   C       -10.2045    3.7498  -28.1619  C     
17   C       -11.5854    2.8509  -29.9187  C     
18   C       -11.0246    3.7673  -30.8288  C     
19   C        -9.6141    4.6452  -29.0723  C     
20   C       -10.0357    4.6656  -30.4074  C     
21   H        -9.3195    2.2718  -26.1494  H     
22   H       -11.6038    3.0431  -25.8407  H     
23   H       -11.4737    0.2847  -23.4470  H     
24   H       -11.8843    1.8719  -23.1709  H     
25   H        -9.4246    0.8469  -23.7767  H     
26   H       -13.2712    1.7052  -24.8670  H     
27   H       -12.4836    0.1860  -25.3606  H     
28   H       -10.2085   -0.6389  -25.9012  H     
29   H        -9.8573    0.1555  -27.4356  H     
30   H       -13.3615    1.3209  -28.8633  H     
31   H       -13.4802    0.6987  -27.3212  H     
32   H        -9.8774    3.8180  -27.1999  H     
33   H       -12.2590    2.1856  -30.3001  H     
34   H       -11.3234    3.7689  -31.8043  H     
35   H        -8.8921    5.2981  -28.7569  H     
36   H        -9.6201    5.3243  -31.0705  H     
@<TRIPOS>BOND
     1    1    2 1
     2    1    4 1
     3    1    8 1
     4    2    5 1
     5    2    6 1
     6    3    4 1
     7    3    6 1
     8    4    7 1
     9    5   10 1
    10    5   11 2
    11    7   12 2
    12    7   14 1
    13    8    9 1
    14    9   13 2
    15    9   15 1
    16   10   16 2
    17   10   17 1
    18   16   19 1
    19   17   18 2
    20   18   20 1
    21   19   20 2
    22    1   21 1
    23    2   22 1
    24    3   23 1
    25    3   24 1
    26    4   25 1
    27    6   26 1
    28    6   27 1
    29    8   28 1
    30    8   29 1
    31   11   30 1
    32   11   31 1
    33   16   32 1
    34   17   33 1
    35   18   34 1
    36   19   35 1
    37   20   36 1
@<TRIPOS>PROPERTY_DATA
  Total_Score	| 14.4106
  Crash		| -1.0146
  Polar		| 11.0021
  FragIndex	| 1
  FragRMSD	| 0.324

