@<TRIPOS>MOLECULE
BindingDB_50053089
 42 43 0 0 0
SMALL
NO_CHARGES


@<TRIPOS>ATOM
1    C       -10.0511    1.5213  -25.7012  C     
2    C       -11.4971    2.0068  -26.0646  C     
3    N       -11.4678    1.2007  -23.7762  N     
4    C       -10.0879    1.5970  -24.1377  C     
5    C       -11.8738    2.0229  -27.5138  C     
6    C       -12.3080    1.2234  -24.9810  C     
7    C        -9.7687    2.9077  -23.5205  C     
8    C        -9.6834    0.0867  -26.2294  C     
9    C       -11.2006    2.8836  -28.4624  C     
10   C        -8.2241   -0.1469  -26.3290  C     
11   C       -12.8632    1.1821  -27.9237  C     
12   O       -10.0001    3.0890  -22.1971  O     
13   O        -7.3648    0.3225  -25.4000  O     
14   C       -10.1292    3.7497  -28.0993  C     
15   C       -11.5797    2.9797  -29.8441  C     
16   O        -9.2731    3.9529  -24.2185  O     
17   O        -7.7479   -1.0361  -27.2354  O     
18   C        -9.4180    4.5422  -29.0232  C     
19   C       -10.8974    3.7805  -30.7794  C     
20   C        -9.7732    4.5439  -30.3880  C     
21   C        -9.0206    5.2871  -31.4456  C     
22   C        -7.9997    6.3728  -31.0062  C     
23   H        -9.2965    2.2160  -26.0824  H     
24   H       -11.6061    3.0526  -25.7490  H     
25   H       -11.4433    0.2494  -23.4002  H     
26   H       -11.8852    1.8259  -23.0801  H     
27   H        -9.3934    0.8765  -23.6987  H     
28   H       -13.2706    1.7068  -24.7690  H     
29   H       -12.4806    0.1795  -25.2491  H     
30   H       -10.1062   -0.6762  -25.5667  H     
31   H       -10.1150   -0.0628  -27.2244  H     
32   H       -13.1336    1.0732  -28.8646  H     
33   H       -13.3618    0.6103  -27.3046  H     
34   H        -9.8326    3.8559  -27.1339  H     
35   H       -12.3843    2.4727  -30.2155  H     
36   H        -8.6261    5.1039  -28.6816  H     
37   H       -11.2124    3.7984  -31.7583  H     
38   H        -8.4768    4.5487  -32.0447  H     
39   H        -9.7450    5.7884  -32.1011  H     
40   H        -8.5024    7.1145  -30.3695  H     
41   H        -7.6004    6.8764  -31.8988  H     
42   H        -7.1613    5.9271  -30.4452  H     
@<TRIPOS>BOND
     1    1    2 1
     2    1    4 1
     3    1    8 1
     4    2    5 1
     5    2    6 1
     6    3    4 1
     7    3    6 1
     8    4    7 1
     9    5    9 1
    10    5   11 2
    11    7   12 2
    12    7   16 1
    13    8   10 1
    14    9   14 2
    15    9   15 1
    16   10   13 2
    17   10   17 1
    18   14   18 1
    19   15   19 2
    20   18   20 2
    21   19   20 1
    22   20   21 1
    23   21   22 1
    24    1   23 1
    25    2   24 1
    26    3   25 1
    27    3   26 1
    28    4   27 1
    29    6   28 1
    30    6   29 1
    31    8   30 1
    32    8   31 1
    33   11   32 1
    34   11   33 1
    35   14   34 1
    36   15   35 1
    37   18   36 1
    38   19   37 1
    39   21   38 1
    40   21   39 1
    41   22   40 1
    42   22   41 1
    43   22   42 1
@<TRIPOS>PROPERTY_DATA
  Total_Score	| 15.7268
  Crash		| -1.2196
  Polar		| 11.0716
  FragIndex	| 1
  FragRMSD	| 0.921

