@<TRIPOS>MOLECULE
BindingDB_50252103
 41 41 0 0 0
SMALL
NO_CHARGES


@<TRIPOS>ATOM
1    N       -11.4563    1.2027  -23.8364  N     
2    C       -10.0818    1.6013  -24.2164  C     
3    C       -10.0862    1.6431  -25.7806  C     
4    C       -11.5523    2.0783  -26.0843  C     
5    C       -12.3280    1.2606  -25.0212  C     
6    C        -9.7189    2.8847  -23.5626  C     
7    O        -9.9420    3.0438  -22.2376  O     
8    O        -8.7479    3.6647  -24.0888  O     
9    C       -11.2054    2.7778  -28.3891  C     
10   C       -11.9790    2.0968  -27.5066  C     
11   C       -13.2544    1.5236  -27.9542  C     
12   C        -9.6630    0.2911  -26.4512  C     
13   C        -8.2474   -0.0953  -26.2809  C     
14   O        -7.6701   -0.8972  -27.2018  O     
15   O        -7.4719    0.3800  -25.2818  O     
16   C       -11.4822    2.9951  -29.6995  C     
17   C       -11.7242    4.2254  -30.1844  C     
18   C       -12.0614    4.5115  -31.5789  C     
19   C       -13.5758    4.8252  -31.6941  C     
20   C       -11.2518    5.6205  -32.1463  C     
21   O       -11.5008    6.0622  -33.3995  O     
22   O       -10.2169    6.1954  -31.4891  O     
23   H       -11.4294    0.2460  -23.4820  H     
24   H       -11.8386    1.8133  -23.1077  H     
25   H        -9.3910    0.8436  -23.8409  H     
26   H        -9.4004    2.4093  -26.1555  H     
27   H       -11.6419    3.1208  -25.7558  H     
28   H       -12.5145    0.2353  -25.3500  H     
29   H       -13.2799    1.7359  -24.7651  H     
30   H       -10.3818    3.2248  -28.0549  H     
31   H       -13.8406    1.0565  -27.1681  H     
32   H       -13.0693    0.7650  -28.7174  H     
33   H       -13.8767    2.3109  -28.3837  H     
34   H       -10.2781   -0.5247  -26.0698  H     
35   H        -9.8380    0.3635  -27.5276  H     
36   H       -11.5269    2.2078  -30.3046  H     
37   H       -11.7074    4.9996  -29.5558  H     
38   H       -11.8652    3.6347  -32.2013  H     
39   H       -14.1662    3.9857  -31.3194  H     
40   H       -13.8554    4.9900  -32.7363  H     
41   H       -13.8359    5.7177  -31.1198  H     
@<TRIPOS>BOND
     1    1    2 1
     2    1    5 1
     3    2    3 1
     4    2    6 1
     5    3    4 1
     6    3   12 1
     7    4    5 1
     8    4   10 1
     9    6    7 2
    10    6    8 1
    11    9   10 2
    12    9   16 1
    13   10   11 1
    14   12   13 1
    15   13   14 2
    16   13   15 1
    17   16   17 2
    18   17   18 1
    19   18   19 1
    20   18   20 1
    21   20   21 1
    22   20   22 2
    23    1   23 1
    24    1   24 1
    25    2   25 1
    26    3   26 1
    27    4   27 1
    28    5   28 1
    29    5   29 1
    30    9   30 1
    31   11   31 1
    32   11   32 1
    33   11   33 1
    34   12   34 1
    35   12   35 1
    36   16   36 1
    37   17   37 1
    38   18   38 1
    39   19   39 1
    40   19   40 1
    41   19   41 1
@<TRIPOS>PROPERTY_DATA
  Total_Score	| 14.6018
  Crash		| -0.9007
  Polar		| 11.1092
  FragIndex	| 1
  FragRMSD	| 0.395

