@<TRIPOS>MOLECULE
BindingDB_50053062
 42 43 0 0 0
SMALL
NO_CHARGES


@<TRIPOS>ATOM
1    C       -10.0179    1.4895  -25.7239  C     
2    C       -11.4036    2.0496  -26.1695  C     
3    C       -11.7106    2.0854  -27.6368  C     
4    N       -11.5579    1.2221  -23.8862  N     
5    C       -10.1342    1.5485  -24.1663  C     
6    C       -11.1246    3.0759  -28.5125  C     
7    C       -12.3365    1.3430  -25.1326  C     
8    C        -9.7526    2.8416  -23.5333  C     
9    C        -9.6933    0.0447  -26.2579  C     
10   C        -8.2693   -0.3351  -26.0987  C     
11   C        -9.9119    3.7443  -28.1698  C     
12   C       -11.7323    3.4773  -29.7467  C     
13   C       -12.5952    1.1788  -28.1262  C     
14   O        -9.2362    3.8952  -24.2083  O     
15   O        -7.6266   -0.8830  -27.1643  O     
16   C        -9.2675    4.6312  -29.0607  C     
17   C       -11.1284    4.3909  -30.6397  C     
18   C        -9.8906    4.9432  -30.2807  C     
19   O        -9.9587    3.0286  -22.1993  O     
20   O        -7.4908    0.3566  -25.2172  O     
21   C       -11.7730    4.7761  -31.9235  C     
22   C        -7.9672    5.2489  -28.7025  C     
23   H        -9.2234    2.1416  -26.0832  H     
24   H       -11.4485    3.1011  -25.8464  H     
25   H       -11.6147    0.2485  -23.5637  H     
26   H       -11.9522    1.8364  -23.1510  H     
27   H        -9.5060    0.7820  -23.6970  H     
28   H       -13.2633    1.9099  -24.9575  H     
29   H       -12.6021    0.3224  -25.4231  H     
30   H       -10.2939   -0.7083  -25.7178  H     
31   H        -9.9485   -0.0094  -27.3256  H     
32   H        -9.4642    3.5723  -27.2662  H     
33   H       -12.6520    3.1076  -29.9926  H     
34   H       -12.7405    1.0590  -29.1047  H     
35   H       -13.0929    0.5237  -27.5359  H     
36   H        -9.4264    5.6002  -30.9178  H     
37   H       -11.9460    3.8762  -32.5268  H     
38   H       -11.1507    5.4680  -32.5059  H     
39   H       -12.7257    5.2736  -31.7026  H     
40   H        -8.0766    5.8335  -27.7841  H     
41   H        -7.5818    5.9210  -29.4870  H     
42   H        -7.2242    4.4605  -28.5496  H     
@<TRIPOS>BOND
     1    1    2 1
     2    1    5 1
     3    1    9 1
     4    2    3 1
     5    2    7 1
     6    3    6 1
     7    3   13 2
     8    4    5 1
     9    4    7 1
    10    5    8 1
    11    6   11 1
    12    6   12 2
    13    8   14 2
    14    8   19 1
    15    9   10 1
    16   10   15 2
    17   10   20 1
    18   11   16 2
    19   12   17 1
    20   16   18 1
    21   16   22 1
    22   17   18 2
    23   17   21 1
    24    1   23 1
    25    2   24 1
    26    4   25 1
    27    4   26 1
    28    5   27 1
    29    7   28 1
    30    7   29 1
    31    9   30 1
    32    9   31 1
    33   11   32 1
    34   12   33 1
    35   13   34 1
    36   13   35 1
    37   18   36 1
    38   21   37 1
    39   21   38 1
    40   21   39 1
    41   22   40 1
    42   22   41 1
    43   22   42 1
@<TRIPOS>PROPERTY_DATA
  Total_Score	| 15.7181
  Crash		| -0.8765
  Polar		| 11.0906
  FragIndex	| 1
  FragRMSD	| 0.936

