@<TRIPOS>MOLECULE
BindingDB_50053059
 45 46 0 0 0
SMALL
NO_CHARGES


@<TRIPOS>ATOM
1    C       -10.0478    1.5603  -25.7901  C     
2    C       -11.5056    1.9819  -26.1567  C     
3    N       -11.4722    1.2317  -23.8546  N     
4    C       -10.0893    1.5975  -24.2237  C     
5    C       -11.9050    1.9431  -27.5973  C     
6    C       -12.3004    1.2078  -25.0666  C     
7    C        -9.7434    2.8939  -23.5857  C     
8    C        -9.6147    0.1802  -26.3956  C     
9    C       -11.2550    2.7750  -28.5770  C     
10   C        -8.1866   -0.1669  -26.2508  C     
11   C       -13.0036    1.2280  -27.9392  C     
12   O        -9.9869    3.0807  -22.2684  O     
13   O        -7.5936   -0.9296  -27.1947  O     
14   C       -11.6097    2.7640  -29.9590  C     
15   C       -10.2547    3.7279  -28.2282  C     
16   O        -9.1566    3.9135  -24.2572  O     
17   O        -7.4047    0.3542  -25.2775  O     
18   C        -9.7550    4.6777  -29.1391  C     
19   C       -11.1326    3.7238  -30.8710  C     
20   C       -10.2150    4.7153  -30.4698  C     
21   C        -9.8139    5.8125  -31.3961  C     
22   C        -8.3351    5.7759  -31.8664  C     
23   C        -7.3247    6.4414  -30.9054  C     
24   H        -9.3373    2.2969  -26.1719  H     
25   H       -11.6310    3.0280  -25.8598  H     
26   H       -11.4556    0.3027  -23.4324  H     
27   H       -11.8749    1.8931  -23.1840  H     
28   H        -9.4193    0.8489  -23.7971  H     
29   H       -13.2710    1.6713  -24.8684  H     
30   H       -12.4539    0.1611  -25.3395  H     
31   H       -10.1982   -0.6288  -25.9515  H     
32   H        -9.8241    0.1934  -27.4679  H     
33   H       -13.4010    1.2603  -28.8430  H     
34   H       -13.5067    0.6807  -27.2896  H     
35   H       -12.2478    2.0631  -30.3364  H     
36   H        -9.9047    3.8048  -27.2744  H     
37   H        -9.0950    5.3840  -28.8034  H     
38   H       -11.4806    3.7075  -31.8317  H     
39   H       -10.4386    5.7769  -32.2939  H     
40   H       -10.0237    6.7768  -30.9236  H     
41   H        -8.0346    4.7412  -32.0491  H     
42   H        -8.2744    6.3062  -32.8211  H     
43   H        -7.6663    7.4348  -30.6099  H     
44   H        -6.3587    6.5446  -31.4044  H     
45   H        -7.1896    5.8295  -30.0135  H     
@<TRIPOS>BOND
     1    1    2 1
     2    1    4 1
     3    1    8 1
     4    2    5 1
     5    2    6 1
     6    3    4 1
     7    3    6 1
     8    4    7 1
     9    5    9 1
    10    5   11 2
    11    7   12 2
    12    7   16 1
    13    8   10 1
    14    9   14 2
    15    9   15 1
    16   10   13 2
    17   10   17 1
    18   14   19 1
    19   15   18 2
    20   18   20 1
    21   19   20 2
    22   20   21 1
    23   21   22 1
    24   22   23 1
    25    1   24 1
    26    2   25 1
    27    3   26 1
    28    3   27 1
    29    4   28 1
    30    6   29 1
    31    6   30 1
    32    8   31 1
    33    8   32 1
    34   11   33 1
    35   11   34 1
    36   14   35 1
    37   15   36 1
    38   18   37 1
    39   19   38 1
    40   21   39 1
    41   21   40 1
    42   22   41 1
    43   22   42 1
    44   23   43 1
    45   23   44 1
    46   23   45 1
@<TRIPOS>PROPERTY_DATA
  Total_Score	| 16.4644
  Crash		| -1.1613
  Polar		| 11.0230
  FragIndex	| 1
  FragRMSD	| 0.314

