@<TRIPOS>MOLECULE
BindingDB_50053088
 39 40 0 0 0
SMALL
NO_CHARGES


@<TRIPOS>ATOM
1    C       -10.0315    1.5234  -25.7708  C     
2    C       -11.4637    2.0130  -26.1574  C     
3    N       -11.4805    1.2141  -23.8559  N     
4    C       -10.0841    1.5626  -24.2066  C     
5    C       -11.8249    2.0213  -27.6145  C     
6    C       -12.2917    1.2434  -25.0834  C     
7    C        -9.7281    2.8442  -23.5538  C     
8    C        -9.6440    0.1048  -26.3334  C     
9    C       -11.1809    2.9184  -28.5461  C     
10   C        -8.2093   -0.2176  -26.1988  C     
11   C       -12.8071    1.1787  -28.0132  C     
12   O        -9.1505    3.8785  -24.2128  O     
13   O        -7.4393    0.4035  -25.2771  O     
14   C       -10.1283    3.8022  -28.1656  C     
15   C       -11.5688    3.0416  -29.9196  C     
16   O        -9.9586    3.0182  -22.2360  O     
17   O        -7.5576   -0.8849  -27.1773  O     
18   C        -9.4722    4.6618  -29.0640  C     
19   C       -10.9306    3.9141  -30.8287  C     
20   C        -9.8500    4.7177  -30.4182  C     
21   C        -9.1209    5.6017  -31.3612  C     
22   H        -9.2731    2.2194  -26.1339  H     
23   H       -11.5635    3.0574  -25.8316  H     
24   H       -11.4879    0.2718  -23.4612  H     
25   H       -11.8717    1.8662  -23.1699  H     
26   H        -9.4248    0.8046  -23.7746  H     
27   H       -13.2574    1.7206  -24.8931  H     
28   H       -12.4635    0.1980  -25.3626  H     
29   H       -10.2177   -0.6763  -25.8201  H     
30   H        -9.9003    0.0455  -27.3940  H     
31   H       -13.0605    1.0596  -28.9573  H     
32   H       -13.3190    0.6199  -27.3795  H     
33   H        -9.8160    3.8695  -27.1966  H     
34   H       -12.3394    2.5076  -30.3134  H     
35   H        -8.7137    5.2632  -28.7191  H     
36   H       -11.2601    3.9461  -31.7982  H     
37   H        -9.1548    6.6364  -31.0078  H     
38   H        -9.5462    5.5721  -32.3671  H     
39   H        -8.0746    5.2889  -31.4258  H     
@<TRIPOS>BOND
     1    1    2 1
     2    1    4 1
     3    1    8 1
     4    2    5 1
     5    2    6 1
     6    3    4 1
     7    3    6 1
     8    4    7 1
     9    5    9 1
    10    5   11 2
    11    7   12 2
    12    7   16 1
    13    8   10 1
    14    9   14 2
    15    9   15 1
    16   10   13 2
    17   10   17 1
    18   14   18 1
    19   15   19 2
    20   18   20 2
    21   19   20 1
    22   20   21 1
    23    1   22 1
    24    2   23 1
    25    3   24 1
    26    3   25 1
    27    4   26 1
    28    6   27 1
    29    6   28 1
    30    8   29 1
    31    8   30 1
    32   11   31 1
    33   11   32 1
    34   14   33 1
    35   15   34 1
    36   18   35 1
    37   19   36 1
    38   21   37 1
    39   21   38 1
    40   21   39 1
@<TRIPOS>PROPERTY_DATA
  Total_Score	| 15.3641
  Crash		| -0.8253
  Polar		| 11.0799
  FragIndex	| 1
  FragRMSD	| 1.241

