@<TRIPOS>MOLECULE
BindingDB_50240399
 31 31 0 0 0
SMALL
NO_CHARGES


@<TRIPOS>ATOM
1    C       -10.2055    1.5644  -24.2197  C     
2    C       -10.0600    1.4448  -25.7705  C     
3    C       -11.5046    1.7664  -26.2675  C     
4    C       -12.3781    1.1042  -25.1791  C     
5    N       -11.6067    1.1993  -23.9253  N     
6    C       -11.8707    1.3963  -27.7598  C     
7    C       -13.3826    1.5118  -28.1094  C     
8    C       -11.0599    2.2717  -28.7596  C     
9    C        -9.8710    2.8977  -23.6297  C     
10   O        -9.9990    3.0834  -22.2965  O     
11   O        -9.0481    3.7535  -24.2685  O     
12   C        -9.5335    0.0477  -26.2662  C     
13   C        -8.0759   -0.1815  -26.1825  C     
14   O        -7.3093    0.3859  -25.2285  O     
15   O        -7.4684   -0.8936  -27.1685  O     
16   H        -9.5679    0.8304  -23.7173  H     
17   H        -9.3748    2.1890  -26.1683  H     
18   H       -11.6475    2.8482  -26.1673  H     
19   H       -13.3377    1.6203  -25.0641  H     
20   H       -12.5548    0.0455  -25.4018  H     
21   H       -11.6125    0.2831  -23.4663  H     
22   H       -12.0509    1.8819  -23.2933  H     
23   H       -11.6267    0.3472  -27.9494  H     
24   H       -13.9725    0.8212  -27.4899  H     
25   H       -13.5421    1.2362  -29.1584  H     
26   H       -13.7454    2.5340  -27.9515  H     
27   H       -11.3412    3.3260  -28.6578  H     
28   H       -11.2401    1.9529  -29.7848  H     
29   H        -9.9885    2.1802  -28.5619  H     
30   H       -10.0236   -0.7575  -25.7057  H     
31   H        -9.7633   -0.0854  -27.3297  H     
@<TRIPOS>BOND
     1    1    2 1
     2    1    5 1
     3    1    9 1
     4    2    3 1
     5    2   12 1
     6    3    4 1
     7    3    6 1
     8    4    5 1
     9    6    7 1
    10    6    8 1
    11    9   10 1
    12    9   11 2
    13   12   13 1
    14   13   14 1
    15   13   15 2
    16    1   16 1
    17    2   17 1
    18    3   18 1
    19    4   19 1
    20    4   20 1
    21    5   21 1
    22    5   22 1
    23    6   23 1
    24    7   24 1
    25    7   25 1
    26    7   26 1
    27    8   27 1
    28    8   28 1
    29    8   29 1
    30   12   30 1
    31   12   31 1
@<TRIPOS>PROPERTY_DATA
  Total_Score	| 13.5618
  Crash		| -0.8714
  Polar		| 10.6522
  FragIndex	| 1
  FragRMSD	| 0.845

