@<TRIPOS>MOLECULE
BindingDB_50002369
 29 29 0 0 0
SMALL
NO_CHARGES


@<TRIPOS>ATOM
1    C       -10.0705    1.5290  -25.7505  C     
2    C       -11.5278    1.9082  -26.1480  C     
3    C       -10.1311    1.6101  -24.1830  C     
4    C        -9.6068    0.1672  -26.3882  C     
5    C       -12.3271    1.1277  -25.0610  C     
6    C       -11.8939    1.7913  -27.5770  C     
7    C        -9.8552    2.9563  -23.6212  C     
8    C        -8.1522   -0.0850  -26.3126  C     
9    C       -13.2323    1.4199  -28.0280  C     
10   C       -10.9973    2.1553  -28.5176  C     
11   O        -8.9298    3.7367  -24.2164  O     
12   O        -7.5426   -0.9084  -27.1908  O     
13   N       -11.5046    1.1881  -23.8381  N     
14   O        -9.9899    3.1531  -22.2937  O     
15   O        -7.4740    0.4030  -25.2425  O     
16   H        -9.3812    2.2855  -26.1347  H     
17   H       -11.6591    2.9646  -25.8945  H     
18   H        -9.3906    0.9480  -23.7289  H     
19   H       -10.1284   -0.6868  -25.9228  H     
20   H        -9.8909    0.1846  -27.4506  H     
21   H       -13.3022    1.5816  -24.8800  H     
22   H       -12.4563    0.0677  -25.3049  H     
23   H       -13.7510    0.7655  -27.3340  H     
24   H       -13.1995    0.8971  -28.9834  H     
25   H       -13.8359    2.3162  -28.1526  H     
26   H       -11.2097    2.1073  -29.4824  H     
27   H       -10.1044    2.5139  -28.2707  H     
28   H       -11.4705    0.2643  -23.3967  H     
29   H       -11.9319    1.8477  -23.1804  H     
@<TRIPOS>BOND
     1    1    2 1
     2    1    3 1
     3    1    4 1
     4    2    5 1
     5    2    6 1
     6    3    7 1
     7    3   13 1
     8    4    8 1
     9    5   13 1
    10    6    9 1
    11    6   10 2
    12    7   11 2
    13    7   14 1
    14    8   12 2
    15    8   15 1
    16    1   16 1
    17    2   17 1
    18    3   18 1
    19    4   19 1
    20    4   20 1
    21    5   21 1
    22    5   22 1
    23    9   23 1
    24    9   24 1
    25    9   25 1
    26   10   26 1
    27   10   27 1
    28   13   28 1
    29   13   29 1
@<TRIPOS>PROPERTY_DATA
  Total_Score	| 14.1101
  Crash		| -0.5656
  Polar		| 11.0418
  FragIndex	| 1
  FragRMSD	| 0.865

