@<TRIPOS>MOLECULE
BindingDB_50053070
 46 47 0 0 0
SMALL
NO_CHARGES


@<TRIPOS>ATOM
1    C       -10.0866    1.5529  -25.7685  C     
2    C       -11.5311    2.0283  -26.1414  C     
3    N       -11.5161    1.2367  -23.8361  N     
4    C       -10.1225    1.5656  -24.2016  C     
5    C       -11.9220    1.9870  -27.5864  C     
6    C       -12.3481    1.2750  -25.0456  C     
7    C        -9.7426    2.8440  -23.5374  C     
8    C        -9.6788    0.1638  -26.3699  C     
9    C       -11.2882    2.8325  -28.5721  C     
10   C        -8.2541   -0.2176  -26.1826  C     
11   C        -9.3603    5.3400  -31.4770  C     
12   C        -9.9991    4.5391  -30.5387  C     
13   C       -12.9139    1.1414  -27.9532  C     
14   O        -9.9665    3.0034  -22.2108  O     
15   O        -7.4595    0.4115  -25.2814  O     
16   C       -11.7405    2.9426  -29.9268  C     
17   C       -10.1850    3.6847  -28.2610  C     
18   C        -9.5383    4.4992  -29.2098  C     
19   C       -11.1260    3.7729  -30.8864  C     
20   C        -9.9931    6.4387  -31.9288  C     
21   O        -9.1827    3.8865  -24.2012  O     
22   O        -7.6262   -0.9457  -27.1319  O     
23   C        -8.0236    4.9186  -31.9269  C     
24   C        -7.3258    5.7044  -33.0687  C     
25   H        -9.3348    2.2638  -26.1189  H     
26   H       -11.6243    3.0817  -25.8469  H     
27   H       -11.5207    0.2875  -23.4458  H     
28   H       -11.8982    1.8791  -23.1281  H     
29   H        -9.4760    0.7882  -23.7875  H     
30   H       -13.2983    1.7709  -24.8414  H     
31   H       -12.5344    0.2334  -25.2951  H     
32   H       -10.2882   -0.6367  -25.9489  H     
33   H        -9.8613    0.1721  -27.4445  H     
34   H       -13.1588    0.9672  -28.8948  H     
35   H       -13.4547    0.6472  -27.2918  H     
36   H       -12.5573    2.4372  -30.2622  H     
37   H        -9.8370    3.7766  -27.3084  H     
38   H        -8.7524    5.0821  -28.9119  H     
39   H       -11.5096    3.8089  -31.8398  H     
40   H        -9.5753    7.0441  -32.5952  H     
41   H       -10.8962    6.6841  -31.5961  H     
42   H        -7.3404    4.9318  -31.0696  H     
43   H        -8.0959    3.8826  -32.2674  H     
44   H        -7.9480    5.7294  -33.9649  H     
45   H        -6.3792    5.2182  -33.3223  H     
46   H        -7.1107    6.7224  -32.7450  H     
@<TRIPOS>BOND
     1    1    2 1
     2    1    4 1
     3    1    8 1
     4    2    5 1
     5    2    6 1
     6    3    4 1
     7    3    6 1
     8    4    7 1
     9    5    9 1
    10    5   13 2
    11    7   14 2
    12    7   21 1
    13    8   10 1
    14    9   16 1
    15    9   17 2
    16   10   15 2
    17   10   22 1
    18   11   12 1
    19   11   20 2
    20   11   23 1
    21   12   18 2
    22   12   19 1
    23   16   19 2
    24   17   18 1
    25   23   24 1
    26    1   25 1
    27    2   26 1
    28    3   27 1
    29    3   28 1
    30    4   29 1
    31    6   30 1
    32    6   31 1
    33    8   32 1
    34    8   33 1
    35   13   34 1
    36   13   35 1
    37   16   36 1
    38   17   37 1
    39   18   38 1
    40   19   39 1
    41   20   40 1
    42   20   41 1
    43   23   42 1
    44   23   43 1
    45   24   44 1
    46   24   45 1
    47   24   46 1
@<TRIPOS>PROPERTY_DATA
  Total_Score	| 16.6885
  Crash		| -1.5723
  Polar		| 11.1014
  FragIndex	| 1
  FragRMSD	| 0.911

