@<TRIPOS>MOLECULE
BindingDB_35172
 60 65 0 0 0
SMALL
NO_CHARGES


@<TRIPOS>ATOM
1    C         4.2724   25.9749    7.4765  C     
2    C         3.1951   26.5104    8.2516  C     
3    C         2.8669   27.8711    7.9757  C     
4    C         3.5761   28.6263    7.0370  C     
5    C         4.6507   28.0982    6.3162  C     
6    C         4.9860   26.7549    6.5375  C     
7    N         1.9385   28.7025    8.4960  N     
8    C         2.0399   29.9008    7.8799  C     
9    N         3.0515   29.8535    6.9927  N     
10   C         1.2388   31.0090    8.0900  C     
11   N         2.5362   25.7400    9.1958  N     
12   C         3.2389   24.7949   11.3642  C     
13   N         1.9530   25.2262   11.9952  N     
14   C         1.3039   26.3434   11.2347  C     
15   C         1.2085   26.0430    9.7112  C     
16   C         3.1385   24.5681    9.8310  C     
17   C         1.0263   24.0993   12.3120  C     
18   C         0.1823   31.1443    8.9602  C     
19   C        -0.2496   32.4519    8.7958  C     
20   N         0.5472   32.9850    7.8656  N     
21   N         1.4012   32.1319    7.4800  N     
22   C        -0.4393   30.3129    9.9127  C     
23   C        -1.4975   30.8391   10.6853  C     
24   C        -1.9545   32.1740   10.5130  C     
25   C        -1.3070   32.9914    9.5490  C     
26   C        -2.9894   32.6928   11.3417  C     
27   C        -4.2325   32.0224   11.5206  C     
28   C        -5.2090   32.5684   12.3885  C     
29   C        -4.9397   33.7412   13.1218  C     
30   C        -3.7151   34.4071   12.9501  C     
31   C        -2.7564   33.8963   12.0571  C     
32   O        -4.5303   30.9162   10.7583  O     
33   C        -4.8528   29.7094   11.4816  C     
34   F        -5.8355   34.2227   13.9395  F     
35   H         4.5221   24.9884    7.5434  H     
36   H         5.1521   28.6687    5.6315  H     
37   H         5.7397   26.3328    5.9905  H     
38   H         3.3714   30.5834    6.4304  H     
39   H         3.9766   25.5860   11.5427  H     
40   H         3.6268   23.8909   11.8447  H     
41   H         2.2226   25.6235   12.8951  H     
42   H         0.3073   26.5578   11.6272  H     
43   H         1.9058   27.2461   11.3777  H     
44   H         0.7083   26.8693    9.2079  H     
45   H         0.5570   25.1753    9.5509  H     
46   H         2.5285   23.6826    9.6207  H     
47   H         4.1511   24.3388    9.4902  H     
48   H         0.1504   24.4662   12.8514  H     
49   H         1.5257   23.3751   12.9585  H     
50   H         0.6902   23.5821   11.4121  H     
51   H         0.4975   33.8958    7.5381  H     
52   H        -0.1206   29.3586   10.0608  H     
53   H        -1.9074   30.2390   11.4040  H     
54   H        -1.5805   33.9631    9.4059  H     
55   H        -6.1250   32.1225   12.4765  H     
56   H        -3.5207   35.2593   13.4815  H     
57   H        -1.8688   34.3960   11.9618  H     
58   H        -4.1181   29.4826   12.2575  H     
59   H        -4.8640   28.8801   10.7750  H     
60   H        -5.8430   29.7812   11.9386  H     
@<TRIPOS>BOND
     1    1    2 2
     2    1    6 1
     3    2    3 1
     4    2   11 1
     5    3    4 2
     6    3    7 1
     7    4    5 1
     8    4    9 1
     9    5    6 2
    10    7    8 2
    11    8    9 1
    12    8   10 1
    13   10   18 1
    14   10   21 2
    15   11   15 1
    16   11   16 1
    17   12   13 1
    18   12   16 1
    19   13   14 1
    20   13   17 1
    21   14   15 1
    22   18   19 1
    23   18   22 2
    24   19   20 1
    25   19   25 2
    26   20   21 1
    27   22   23 1
    28   23   24 2
    29   24   25 1
    30   24   26 1
    31   26   27 2
    32   26   31 1
    33   27   28 1
    34   27   32 1
    35   28   29 2
    36   29   30 1
    37   29   34 1
    38   30   31 2
    39   32   33 1
    40    1   35 1
    41    5   36 1
    42    6   37 1
    43    9   38 1
    44   12   39 1
    45   12   40 1
    46   13   41 1
    47   14   42 1
    48   14   43 1
    49   15   44 1
    50   15   45 1
    51   16   46 1
    52   16   47 1
    53   17   48 1
    54   17   49 1
    55   17   50 1
    56   20   51 1
    57   22   52 1
    58   23   53 1
    59   25   54 1
    60   28   55 1
    61   30   56 1
    62   31   57 1
    63   33   58 1
    64   33   59 1
    65   33   60 1
@<TRIPOS>PROPERTY_DATA
  Total_Score	| 11.8778
  Crash		| -1.3440
  Polar		| 3.9241
  FragIndex	| 1
  FragRMSD	| 0.986

