@<TRIPOS>MOLECULE
BindingDB_35181
 62 67 0 0 0
SMALL
NO_CHARGES


@<TRIPOS>ATOM
1    C         4.3855   26.0577    8.7642  C     
2    C         3.1022   26.5906    9.0757  C     
3    C         2.8642   27.9144    8.6284  C     
4    C         3.8145   28.6532    7.9258  C     
5    C         5.0851   28.1265    7.6540  C     
6    C         5.3670   26.8163    8.0868  C     
7    N         1.7696   28.6805    8.7270  N     
8    C         2.0202   29.8629    8.1340  C     
9    N         3.2657   29.8372    7.6267  N     
10   C         1.1617   30.9413    8.1488  C     
11   N         2.1584   25.8741    9.7755  N     
12   C         1.9559   23.5237   10.5079  C     
13   N         1.3674   23.9616   11.8128  N     
14   C         1.7884   25.3541   12.1544  C     
15   C         1.5563   26.3697   11.0003  C     
16   C         1.7220   24.5509    9.3684  C     
17   C        -0.1016   23.7320   11.9298  C     
18   C         0.0518   31.0940    8.9407  C     
19   C        -0.3375   32.4089    8.7649  C     
20   N         0.5165   32.9208    7.8692  N     
21   N         1.3892   32.0563    7.5512  N     
22   C        -0.6272   30.2730    9.8637  C     
23   C        -1.6674   30.8254   10.6321  C     
24   C        -2.0619   32.1798   10.4792  C     
25   C        -1.3896   32.9721    9.5086  C     
26   C        -3.0278   32.7502   11.3658  C     
27   C        -4.2944   32.1459   11.6044  C     
28   C        -5.1903   32.7350   12.5292  C     
29   C        -4.8305   33.8833   13.2569  C     
30   C        -3.5791   34.4794   13.0292  C     
31   C        -2.6925   33.9233   12.0885  C     
32   N        -5.6812   34.4149   14.1569  N     
33   O        -4.6944   31.0535   10.8653  O     
34   C        -4.9694   29.8552   11.6136  C     
35   H         4.6477   25.1243    9.0872  H     
36   H         5.7861   28.6797    7.1566  H     
37   H         6.2923   26.4144    7.9167  H     
38   H         3.7062   30.5554    7.1492  H     
39   H         3.0344   23.3975   10.6419  H     
40   H         1.5584   22.5492   10.2100  H     
41   H         1.7886   23.3590   12.5256  H     
42   H         1.2845   25.7031   13.0611  H     
43   H         2.8583   25.3298   12.3773  H     
44   H         1.9853   27.3151   11.3380  H     
45   H         0.4859   26.5272   10.8468  H     
46   H         0.6535   24.5922    9.1420  H     
47   H         2.2058   24.1909    8.4570  H     
48   H        -0.4411   23.9739   12.9381  H     
49   H        -0.3341   22.6808   11.7517  H     
50   H        -0.6666   24.3369   11.2202  H     
51   H         0.5146   33.8370    7.5613  H     
52   H        -0.3427   29.3149   10.0255  H     
53   H        -2.0841   30.2433   11.3548  H     
54   H        -1.6198   33.9591    9.3755  H     
55   H        -6.1185   32.3268   12.6658  H     
56   H        -3.3075   35.3169   13.5465  H     
57   H        -1.7821   34.3690   11.9613  H     
58   H        -5.4257   35.2089   14.6622  H     
59   H        -6.5506   34.0060   14.3056  H     
60   H        -4.1820   29.6320   12.3353  H     
61   H        -5.0365   29.0217   10.9149  H     
62   H        -5.9226   29.9347   12.1363  H     
@<TRIPOS>BOND
     1    1    2 2
     2    1    6 1
     3    2    3 1
     4    2   11 1
     5    3    4 2
     6    3    7 1
     7    4    5 1
     8    4    9 1
     9    5    6 2
    10    7    8 2
    11    8    9 1
    12    8   10 1
    13   10   18 1
    14   10   21 2
    15   11   15 1
    16   11   16 1
    17   12   13 1
    18   12   16 1
    19   13   14 1
    20   13   17 1
    21   14   15 1
    22   18   19 1
    23   18   22 2
    24   19   20 1
    25   19   25 2
    26   20   21 1
    27   22   23 1
    28   23   24 2
    29   24   25 1
    30   24   26 1
    31   26   27 2
    32   26   31 1
    33   27   28 1
    34   27   33 1
    35   28   29 2
    36   29   30 1
    37   29   32 1
    38   30   31 2
    39   33   34 1
    40    1   35 1
    41    5   36 1
    42    6   37 1
    43    9   38 1
    44   12   39 1
    45   12   40 1
    46   13   41 1
    47   14   42 1
    48   14   43 1
    49   15   44 1
    50   15   45 1
    51   16   46 1
    52   16   47 1
    53   17   48 1
    54   17   49 1
    55   17   50 1
    56   20   51 1
    57   22   52 1
    58   23   53 1
    59   25   54 1
    60   28   55 1
    61   30   56 1
    62   31   57 1
    63   32   58 1
    64   32   59 1
    65   34   60 1
    66   34   61 1
    67   34   62 1
@<TRIPOS>PROPERTY_DATA
  Total_Score	| 11.9364
  Crash		| -1.0920
  Polar		| 2.7731
  FragIndex	| 1
  FragRMSD	| 0.821

