@<TRIPOS>MOLECULE
BindingDB_35171
 60 65 0 0 0
SMALL
NO_CHARGES


@<TRIPOS>ATOM
1    C         4.3728   26.2146    9.1584  C     
2    C         3.0427   26.7136    9.2823  C     
3    C         2.8052   27.9755    8.6731  C     
4    C         3.8062   28.6760    7.9995  C     
5    C         5.1123   28.1795    7.9028  C     
6    C         5.3912   26.9348    8.4939  C     
7    N         1.6926   28.7252    8.5906  N     
8    C         1.9843   29.8566    7.9187  C     
9    N         3.2760   29.8162    7.5473  N     
10   C         1.1584   30.9571    7.8177  C     
11   N         2.0635   26.0199    9.9634  N     
12   C         1.6947   25.3115   12.3046  C     
13   N         1.1560   23.9937   11.8447  N     
14   C         1.6756   23.6372   10.4862  C     
15   C         1.4819   24.7842    9.4613  C     
16   C         1.5458   26.4483   11.2546  C     
17   C        -0.3242   23.8765   11.9861  C     
18   C        -0.0715   31.1161    8.3970  C     
19   C        -0.2669   32.4807    8.4609  C     
20   N         0.7610   33.0226    7.8010  N     
21   N         1.5868   32.1183    7.4706  N     
22   C        -1.0767   30.2574    8.8635  C     
23   C        -2.1895   30.8136    9.5285  C     
24   C        -2.2481   32.1921    9.8970  C     
25   C        -1.3392   33.0333    9.1793  C     
26   C        -3.0854   32.6965   10.9918  C     
27   C        -4.2785   32.0655   11.4916  C     
28   C        -5.0235   32.6362   12.5509  C     
29   C        -4.5703   33.7767   13.2229  C     
30   C        -3.3668   34.3645   12.8288  C     
31   C        -2.6507   33.8349   11.7425  C     
32   O        -4.8253   30.9026   11.0130  O     
33   C        -4.6494   29.7580   11.8805  C     
34   H         4.6419   25.3397    9.6099  H     
35   H         5.8419   28.7106    7.4218  H     
36   H         6.3399   26.5549    8.4495  H     
37   H         3.7552   30.5111    7.0735  H     
38   H         1.2233   25.6182   13.2430  H     
39   H         2.7586   25.1799   12.5177  H     
40   H         1.5416   23.2943   12.4837  H     
41   H         2.7452   23.4221   10.5691  H     
42   H         1.1967   22.7277   10.1132  H     
43   H         0.4114   24.9412    9.3061  H     
44   H         1.8736   24.4679    8.4922  H     
45   H         2.0757   27.3055   11.6716  H     
46   H         0.4945   26.7285   11.1504  H     
47   H        -0.6069   23.9914   13.0345  H     
48   H        -0.6629   22.8902   11.6637  H     
49   H        -0.8491   24.6331   11.4028  H     
50   H         0.8802   33.9705    7.6435  H     
51   H        -1.0032   29.2477    8.7297  H     
52   H        -2.9336   30.1690    9.7699  H     
53   H        -1.3824   34.0476    9.2208  H     
54   H        -5.8911   32.1950   12.8661  H     
55   H        -5.1001   34.1606   14.0088  H     
56   H        -3.0099   35.1808   13.3335  H     
57   H        -1.7688   34.3027   11.5487  H     
58   H        -3.5826   29.4708   11.9570  H     
59   H        -5.1929   28.9209   11.4416  H     
60   H        -5.0659   29.9489   12.8665  H     
@<TRIPOS>BOND
     1    1    2 2
     2    1    6 1
     3    2    3 1
     4    2   11 1
     5    3    4 2
     6    3    7 1
     7    4    5 1
     8    4    9 1
     9    5    6 2
    10    7    8 2
    11    8    9 1
    12    8   10 1
    13   10   18 1
    14   10   21 2
    15   11   15 1
    16   11   16 1
    17   12   13 1
    18   12   16 1
    19   13   14 1
    20   13   17 1
    21   14   15 1
    22   18   19 1
    23   18   22 2
    24   19   20 1
    25   19   25 2
    26   20   21 1
    27   22   23 1
    28   23   24 2
    29   24   25 1
    30   24   26 1
    31   26   27 2
    32   26   31 1
    33   27   28 1
    34   27   32 1
    35   28   29 2
    36   29   30 1
    37   30   31 2
    38   32   33 1
    39    1   34 1
    40    5   35 1
    41    6   36 1
    42    9   37 1
    43   12   38 1
    44   12   39 1
    45   13   40 1
    46   14   41 1
    47   14   42 1
    48   15   43 1
    49   15   44 1
    50   16   45 1
    51   16   46 1
    52   17   47 1
    53   17   48 1
    54   17   49 1
    55   20   50 1
    56   22   51 1
    57   23   52 1
    58   25   53 1
    59   28   54 1
    60   29   55 1
    61   30   56 1
    62   31   57 1
    63   33   58 1
    64   33   59 1
    65   33   60 1
@<TRIPOS>PROPERTY_DATA
  Total_Score	| 12.1452
  Crash		| -1.1975
  Polar		| 2.9150
  FragIndex	| 1
  FragRMSD	| 0.405

