@<TRIPOS>MOLECULE
BindingDB_35168
 57 62 0 0 0
SMALL
NO_CHARGES


@<TRIPOS>ATOM
1    C         4.4784   26.1252    7.6188  C     
2    C         3.3509   26.6139    8.3432  C     
3    C         2.9524   27.9475    8.0285  C     
4    C         3.6523   28.7185    7.0963  C     
5    C         4.7741   28.2375    6.4155  C     
6    C         5.1732   26.9205    6.6797  C     
7    N         1.9783   28.7490    8.5095  N     
8    C         2.0470   29.9420    7.8811  C     
9    N         3.0792   29.9209    7.0200  N     
10   C         1.2199   31.0318    8.0999  C     
11   N         2.7216   25.8278    9.2899  N     
12   C         3.4328   24.9664   11.4858  C     
13   N         2.1106   25.3234   12.0762  N     
14   C         1.4159   26.3935   11.2928  C     
15   C         1.3766   26.0734    9.7734  C     
16   C         3.3791   24.7078    9.9529  C     
17   C         1.2473   24.1469   12.3873  C     
18   C         0.1506   31.1474    8.9475  C     
19   C        -0.2695   32.4680    8.8282  C     
20   N         0.5514   33.0215    7.9310  N     
21   N         1.4021   32.1751    7.5277  N     
22   C        -0.5068   30.2786    9.8434  C     
23   C        -1.5820   30.7703   10.6007  C     
24   C        -2.0126   32.1274   10.4963  C     
25   C        -1.3353   32.9772    9.5812  C     
26   C        -3.0608   32.6226   11.3312  C     
27   C        -2.9568   33.8810   11.9809  C     
28   C        -3.9373   34.3158   12.8878  C     
29   C        -5.0682   33.5121   13.1440  C     
30   C        -5.2025   32.2753   12.4878  C     
31   C        -4.2148   31.8384   11.5905  C     
32   O        -6.0305   33.9330   13.9977  O     
33   H         4.7833   25.1555    7.7100  H     
34   H         5.2763   28.8224    5.7370  H     
35   H         5.9645   26.5226    6.1677  H     
36   H         3.3916   30.6427    6.4588  H     
37   H         4.1097   25.8057   11.6691  H     
38   H         3.8621   24.0997   12.0023  H     
39   H         2.3382   25.7462   12.9719  H     
40   H         0.4002   26.5523   11.6691  H     
41   H         1.9558   27.3355   11.4334  H     
42   H         0.8489   26.8700    9.2519  H     
43   H         0.7697   25.1813    9.5998  H     
44   H         2.8271   23.7887    9.7543  H     
45   H         4.4051   24.5334    9.6382  H     
46   H         0.3525   24.4725   12.9177  H     
47   H         1.7846   23.4552   13.0396  H     
48   H         0.9415   23.6053   11.4861  H     
49   H         0.5181   33.9453    7.6478  H     
50   H        -0.2045   29.3117    9.9486  H     
51   H        -2.0351   30.1409   11.2655  H     
52   H        -1.6045   33.9574    9.4701  H     
53   H        -2.1354   34.4760   11.8232  H     
54   H        -3.8318   35.2170   13.3598  H     
55   H        -6.0177   31.6837   12.6716  H     
56   H        -4.3362   30.9320   11.1297  H     
57   H        -5.6045   33.9559   14.8845  H     
@<TRIPOS>BOND
     1    1    2 2
     2    1    6 1
     3    2    3 1
     4    2   11 1
     5    3    4 2
     6    3    7 1
     7    4    5 1
     8    4    9 1
     9    5    6 2
    10    7    8 2
    11    8    9 1
    12    8   10 1
    13   10   18 1
    14   10   21 2
    15   11   15 1
    16   11   16 1
    17   12   13 1
    18   12   16 1
    19   13   14 1
    20   13   17 1
    21   14   15 1
    22   18   19 1
    23   18   22 2
    24   19   20 1
    25   19   25 2
    26   20   21 1
    27   22   23 1
    28   23   24 2
    29   24   25 1
    30   24   26 1
    31   26   27 2
    32   26   31 1
    33   27   28 1
    34   28   29 2
    35   29   30 1
    36   29   32 1
    37   30   31 2
    38    1   33 1
    39    5   34 1
    40    6   35 1
    41    9   36 1
    42   12   37 1
    43   12   38 1
    44   13   39 1
    45   14   40 1
    46   14   41 1
    47   15   42 1
    48   15   43 1
    49   16   44 1
    50   16   45 1
    51   17   46 1
    52   17   47 1
    53   17   48 1
    54   20   49 1
    55   22   50 1
    56   23   51 1
    57   25   52 1
    58   27   53 1
    59   28   54 1
    60   30   55 1
    61   31   56 1
    62   32   57 1
@<TRIPOS>PROPERTY_DATA
  Total_Score	| 11.0072
  Crash		| -1.1998
  Polar		| 3.8883
  FragIndex	| 1
  FragRMSD	| 0.852

