@<TRIPOS>MOLECULE
BindingDB_35176
 62 67 0 0 0
SMALL
NO_CHARGES


@<TRIPOS>ATOM
1    C         4.5435   26.2187    8.9447  C     
2    C         3.2088   26.6731    9.1629  C     
3    C         2.9181   27.9544    8.6150  C     
4    C         3.8628   28.7008    7.9097  C     
5    C         5.1675   28.2329    7.7115  C     
6    C         5.5050   26.9753    8.2413  C     
7    N         1.8310   28.7337    8.7166  N     
8    C         2.0563   29.8927    8.0709  C     
9    N         3.3010   29.8651    7.5669  N     
10   C         1.1986   30.9728    8.0642  C     
11   N         2.3042   25.9261    9.8973  N     
12   C         1.6940   24.5826   11.9754  C     
13   N         0.9206   25.8083   12.3218  N     
14   C         0.2279   26.4231   11.1387  C     
15   C         0.8637   26.0425    9.7733  C     
16   C         2.7506   24.9485   10.8880  C     
17   C         0.0158   25.6325   13.4884  C     
18   C         0.0383   31.1141    8.7817  C     
19   C        -0.2821   32.4565    8.6791  C     
20   N         0.6395   32.9902    7.8723  N     
21   N         1.4991   32.1128    7.5550  N     
22   C        -0.7520   30.2612    9.5729  C     
23   C        -1.8173   30.8075   10.3181  C     
24   C        -2.1056   32.1972   10.2784  C     
25   C        -1.3455   33.0192    9.4046  C     
26   C        -3.0348   32.7596   11.2049  C     
27   C        -4.2338   32.0962   11.5718  C     
28   C        -5.0927   32.6043   12.5735  C     
29   C        -4.7275   33.8062   13.2242  C     
30   C        -3.5581   34.4977   12.8539  C     
31   C        -2.7224   33.9772   11.8537  C     
32   O        -6.3113   31.9722   12.7293  O     
33   N        -5.4611   34.3049   14.2235  N     
34   C        -6.4468   30.7480   13.4780  C     
35   H         4.8345   25.2982    9.2764  H     
36   H         5.8599   28.7928    7.2095  H     
37   H         6.4519   26.6089    8.1147  H     
38   H         3.7416   30.5830    7.0899  H     
39   H         2.2115   24.1888   12.8557  H     
40   H         1.0240   23.8035   11.6015  H     
41   H         1.6269   26.4841   12.6261  H     
42   H        -0.8313   26.1459   11.1005  H     
43   H         0.2802   27.5081   11.2603  H     
44   H         0.5126   26.7259    9.0045  H     
45   H         0.4789   25.0628    9.4712  H     
46   H         3.0721   24.0339   10.3824  H     
47   H         3.6112   25.3615   11.4263  H     
48   H        -0.4564   26.5840   13.7400  H     
49   H         0.5783   25.3037   14.3632  H     
50   H        -0.7620   24.8959   13.2793  H     
51   H         0.6916   33.9254    7.6322  H     
52   H        -0.5396   29.2681    9.6485  H     
53   H        -2.3354   30.1869   10.9455  H     
54   H        -1.5134   34.0228    9.3438  H     
55   H        -4.5024   31.2348   11.0878  H     
56   H        -3.2908   35.3638   13.3293  H     
57   H        -1.8558   34.4771   11.6391  H     
58   H        -5.2044   35.1212   14.6755  H     
59   H        -6.2011   33.7862   14.5459  H     
60   H        -5.6022   30.0803   13.3123  H     
61   H        -7.3445   30.2405   13.1191  H     
62   H        -6.5847   30.9252   14.5542  H     
@<TRIPOS>BOND
     1    1    2 2
     2    1    6 1
     3    2    3 1
     4    2   11 1
     5    3    4 2
     6    3    7 1
     7    4    5 1
     8    4    9 1
     9    5    6 2
    10    7    8 2
    11    8    9 1
    12    8   10 1
    13   10   18 1
    14   10   21 2
    15   11   15 1
    16   11   16 1
    17   12   13 1
    18   12   16 1
    19   13   14 1
    20   13   17 1
    21   14   15 1
    22   18   19 1
    23   18   22 2
    24   19   20 1
    25   19   25 2
    26   20   21 1
    27   22   23 1
    28   23   24 2
    29   24   25 1
    30   24   26 1
    31   26   27 2
    32   26   31 1
    33   27   28 1
    34   28   29 2
    35   28   32 1
    36   29   30 1
    37   29   33 1
    38   30   31 2
    39   32   34 1
    40    1   35 1
    41    5   36 1
    42    6   37 1
    43    9   38 1
    44   12   39 1
    45   12   40 1
    46   13   41 1
    47   14   42 1
    48   14   43 1
    49   15   44 1
    50   15   45 1
    51   16   46 1
    52   16   47 1
    53   17   48 1
    54   17   49 1
    55   17   50 1
    56   20   51 1
    57   22   52 1
    58   23   53 1
    59   25   54 1
    60   27   55 1
    61   30   56 1
    62   31   57 1
    63   33   58 1
    64   33   59 1
    65   34   60 1
    66   34   61 1
    67   34   62 1
@<TRIPOS>PROPERTY_DATA
  Total_Score	| 13.2235
  Crash		| -1.2816
  Polar		| 4.0673
  FragIndex	| 1
  FragRMSD	| 0.562

