@<TRIPOS>MOLECULE
BindingDB_35177
 62 67 0 0 0
SMALL
NO_CHARGES


@<TRIPOS>ATOM
1    C         4.3546   25.9865    7.6416  C     
2    C         3.2457   26.5278    8.3657  C     
3    C         2.8790   27.8513    7.9802  C     
4    C         3.5489   28.5506    6.9721  C     
5    C         4.6341   28.0011    6.2838  C     
6    C         5.0370   26.7026    6.6313  C     
7    N         1.9597   28.7041    8.4602  N     
8    C         2.0256   29.8598    7.7648  C     
9    N         3.0011   29.7599    6.8500  N     
10   C         1.2555   30.9750    7.9876  C     
11   N         2.5911   25.8007    9.3485  N     
12   C         3.1698   24.8793   11.5792  C     
13   N         1.8290   25.2715   12.1136  N     
14   C         1.2336   26.3931   11.3212  C     
15   C         1.2362   26.0899    9.7975  C     
16   C         3.1853   24.6598   10.0396  C     
17   C         0.8991   24.1211   12.3241  C     
18   C         0.2688   31.1426    8.9214  C     
19   C        -0.1451   32.4526    8.7563  C     
20   N         0.5925   32.9538    7.7636  N     
21   N         1.4035   32.0769    7.3435  N     
22   C        -0.3090   30.3389    9.9234  C     
23   C        -1.3110   30.8918   10.7479  C     
24   C        -1.7405   32.2371   10.5822  C     
25   C        -1.1401   33.0217    9.5626  C     
26   C        -2.7243   32.8115   11.4412  C     
27   C        -2.5005   34.0698   12.0508  C     
28   C        -3.4600   34.6452   12.9039  C     
29   C        -4.6770   33.9801   13.1721  C     
30   C        -4.9037   32.7240   12.5661  C     
31   C        -3.9409   32.1446   11.7193  C     
32   C        -5.7268   34.5515   14.0485  C     
33   N        -5.4509   35.8791   14.6107  N     
34   H         4.6630   25.0240    7.7918  H     
35   H         5.1119   28.5227    5.5451  H     
36   H         5.8152   26.2637    6.1359  H     
37   H         3.3015   30.4540    6.2454  H     
38   H         3.8756   25.6797   11.8198  H     
39   H         3.5387   23.9795   12.0784  H     
40   H         2.0114   25.6501   13.0456  H     
41   H         0.2159   26.6067   11.6548  H     
42   H         1.8232   27.2967   11.5039  H     
43   H         0.7432   26.8990    9.2621  H     
44   H         0.6115   25.2117    9.6079  H     
45   H         2.6190   23.7577    9.7917  H     
46   H         4.2265   24.4709    9.7767  H     
47   H        -0.0309   24.4610   12.7855  H     
48   H         1.3462   23.3924   13.0022  H     
49   H         0.6563   23.6123   11.3901  H     
50   H         0.5297   33.8615    7.4357  H     
51   H         0.0033   29.3790   10.0721  H     
52   H        -1.6978   30.3115   11.4957  H     
53   H        -1.4100   33.9955    9.4077  H     
54   H        -1.6243   34.5729   11.8988  H     
55   H        -3.2543   35.5547   13.3237  H     
56   H        -5.7779   32.2189   12.7384  H     
57   H        -4.1434   31.2344   11.2974  H     
58   H        -6.6547   34.6241   13.4777  H     
59   H        -5.8911   33.8755   14.8895  H     
60   H        -4.5804   35.8674   15.1391  H     
61   H        -6.2120   36.1292   15.2535  H     
62   H        -5.3924   36.5762   13.8667  H     
@<TRIPOS>BOND
     1    1    2 2
     2    1    6 1
     3    2    3 1
     4    2   11 1
     5    3    4 2
     6    3    7 1
     7    4    5 1
     8    4    9 1
     9    5    6 2
    10    7    8 2
    11    8    9 1
    12    8   10 1
    13   10   18 1
    14   10   21 2
    15   11   15 1
    16   11   16 1
    17   12   13 1
    18   12   16 1
    19   13   14 1
    20   13   17 1
    21   14   15 1
    22   18   19 1
    23   18   22 2
    24   19   20 1
    25   19   25 2
    26   20   21 1
    27   22   23 1
    28   23   24 2
    29   24   25 1
    30   24   26 1
    31   26   27 2
    32   26   31 1
    33   27   28 1
    34   28   29 2
    35   29   30 1
    36   29   32 1
    37   30   31 2
    38   32   33 1
    39    1   34 1
    40    5   35 1
    41    6   36 1
    42    9   37 1
    43   12   38 1
    44   12   39 1
    45   13   40 1
    46   14   41 1
    47   14   42 1
    48   15   43 1
    49   15   44 1
    50   16   45 1
    51   16   46 1
    52   17   47 1
    53   17   48 1
    54   17   49 1
    55   20   50 1
    56   22   51 1
    57   23   52 1
    58   25   53 1
    59   27   54 1
    60   28   55 1
    61   30   56 1
    62   31   57 1
    63   32   58 1
    64   32   59 1
    65   33   60 1
    66   33   61 1
    67   33   62 1
@<TRIPOS>PROPERTY_DATA
  Total_Score	| 11.9489
  Crash		| -1.2421
  Polar		| 3.5957
  FragIndex	| 1
  FragRMSD	| 1.019

