@<TRIPOS>MOLECULE
BindingDB_35173
 58 63 0 0 0
SMALL
NO_CHARGES


@<TRIPOS>ATOM
1    C         4.4974   26.0737    8.6848  C     
2    C         3.2123   26.5812    9.0500  C     
3    C         2.9432   27.9014    8.5785  C     
4    C         3.8513   28.6285    7.8030  C     
5    C         5.1082   28.1078    7.4684  C     
6    C         5.4257   26.8095    7.9148  C     
7    N         1.8609   28.6930    8.6945  N     
8    C         2.0775   29.8405    8.0431  C     
9    N         3.3047   29.8093    7.4881  N     
10   C         1.2198   30.9300    8.0366  C     
11   N         2.3091   25.8233    9.7752  N     
12   C         1.8279   25.1986   12.1393  C     
13   N         1.3914   23.8347   11.7171  N     
14   C         2.0148   23.4403   10.4163  C     
15   C         1.8196   24.5241    9.3234  C     
16   C         1.7013   26.2769   11.0250  C     
17   C        -0.0904   23.6419   11.7584  C     
18   C         0.0821   31.0776    8.7952  C     
19   C        -0.2758   32.4101    8.6444  C     
20   N         0.6010   32.9237    7.7755  N     
21   N         1.4719   32.0525    7.4640  N     
22   C        -0.6519   30.2466    9.6609  C     
23   C        -1.6975   30.7973   10.4195  C     
24   C        -2.0354   32.1775   10.3227  C     
25   C        -1.3285   32.9798    9.3865  C     
26   C        -2.9904   32.7439   11.2276  C     
27   C        -4.2024   32.0765   11.5395  C     
28   C        -5.0811   32.5757   12.5141  C     
29   C        -4.7691   33.7703   13.1958  C     
30   C        -3.5834   34.4615   12.8930  C     
31   C        -2.7084   33.9563   11.9158  C     
32   N        -5.6077   34.2430   14.1335  N     
33   H         4.8200   25.1717    9.0322  H     
34   H         5.7763   28.6376    6.9111  H     
35   H         6.3391   26.3989    7.6954  H     
36   H         3.7322   30.5132    6.9707  H     
37   H         1.2694   25.5221   13.0215  H     
38   H         2.8812   25.1268   12.4381  H     
39   H         1.7639   23.1893   12.4178  H     
40   H         3.0894   23.2925   10.5768  H     
41   H         1.6124   22.4846   10.0676  H     
42   H         0.7533   24.6182    9.1038  H     
43   H         2.2646   24.1458    8.4064  H     
44   H         2.1754   27.1603   11.4431  H     
45   H         0.6463   26.5076   10.8427  H     
46   H        -0.4586   23.7648   12.7830  H     
47   H        -0.3538   22.6277   11.4384  H     
48   H        -0.6218   24.3543   11.1188  H     
49   H         0.6079   33.8430    7.4715  H     
50   H        -0.4012   29.2681    9.7857  H     
51   H        -2.1707   30.1894   11.0853  H     
52   H        -1.5308   33.9733    9.2669  H     
53   H        -4.4670   31.2123   11.0619  H     
54   H        -5.9536   32.0809   12.7186  H     
55   H        -3.3455   35.3302   13.3826  H     
56   H        -1.8382   34.4653   11.7467  H     
57   H        -5.3930   35.0597   14.6158  H     
58   H        -6.4269   33.7638   14.3376  H     
@<TRIPOS>BOND
     1    1    2 2
     2    1    6 1
     3    2    3 1
     4    2   11 1
     5    3    4 2
     6    3    7 1
     7    4    5 1
     8    4    9 1
     9    5    6 2
    10    7    8 2
    11    8    9 1
    12    8   10 1
    13   10   18 1
    14   10   21 2
    15   11   15 1
    16   11   16 1
    17   12   13 1
    18   12   16 1
    19   13   14 1
    20   13   17 1
    21   14   15 1
    22   18   19 1
    23   18   22 2
    24   19   20 1
    25   19   25 2
    26   20   21 1
    27   22   23 1
    28   23   24 2
    29   24   25 1
    30   24   26 1
    31   26   27 2
    32   26   31 1
    33   27   28 1
    34   28   29 2
    35   29   30 1
    36   29   32 1
    37   30   31 2
    38    1   33 1
    39    5   34 1
    40    6   35 1
    41    9   36 1
    42   12   37 1
    43   12   38 1
    44   13   39 1
    45   14   40 1
    46   14   41 1
    47   15   42 1
    48   15   43 1
    49   16   44 1
    50   16   45 1
    51   17   46 1
    52   17   47 1
    53   17   48 1
    54   20   49 1
    55   22   50 1
    56   23   51 1
    57   25   52 1
    58   27   53 1
    59   28   54 1
    60   30   55 1
    61   31   56 1
    62   32   57 1
    63   32   58 1
@<TRIPOS>PROPERTY_DATA
  Total_Score	| 11.4726
  Crash		| -0.8076
  Polar		| 2.9451
  FragIndex	| 1
  FragRMSD	| 0.498

