@<TRIPOS>MOLECULE
BindingDB_35178
 63 68 0 0 0
SMALL
NO_CHARGES


@<TRIPOS>ATOM
1    C         4.2546   25.9797    7.4688  C     
2    C         3.2193   26.5293    8.2874  C     
3    C         2.8671   27.8799    7.9857  C     
4    C         3.5430   28.6215    7.0119  C     
5    C         4.5841   28.0805    6.2553  C     
6    C         4.9241   26.7338    6.4756  C     
7    N         1.9522   28.7226    8.5106  N     
8    C         2.0329   29.9174    7.8762  C     
9    N         3.0244   29.8496    6.9678  N     
10   C         1.2521   31.0361    8.1097  C     
11   N         2.6151   25.7657    9.2707  N     
12   C         3.3862   24.8541   11.4380  C     
13   N         2.1114   25.2765   12.0866  N     
14   C         1.4352   26.3772   11.3314  C     
15   C         1.3032   26.0533    9.8235  C     
16   C         3.2588   24.6160    9.9068  C     
17   C         1.2060   24.1498   12.4587  C     
18   C         0.1997   31.1603    8.9760  C     
19   C        -0.1917   32.4902    8.8939  C     
20   N         0.6246   33.0459    7.9932  N     
21   N         1.4504   32.1803    7.5586  N     
22   C        -0.4564   30.2949    9.8698  C     
23   C        -1.5014   30.8007   10.6755  C     
24   C        -1.9204   32.1585   10.5914  C     
25   C        -1.2419   33.0095    9.6776  C     
26   C        -2.9691   32.6528   11.4339  C     
27   C        -4.1372   31.8913   11.6926  C     
28   C        -5.1531   32.3744   12.5396  C     
29   C        -5.0514   33.6469   13.1542  C     
30   C        -3.8614   34.3775   12.9438  C     
31   C        -2.8470   33.9028   12.0904  C     
32   N        -6.0077   34.2315   13.9476  N     
33   C        -7.3120   34.0017   14.0439  C     
34   C        -8.0877   34.7968   14.9745  C     
35   O        -7.9014   33.1801   13.3532  O     
36   H         4.4923   24.9899    7.5401  H     
37   H         5.0668   28.6328    5.5454  H     
38   H         5.6433   26.2927    5.8943  H     
39   H         3.3314   30.5624    6.3952  H     
40   H         4.1103   25.6543   11.5960  H     
41   H         3.7918   23.9596   11.9197  H     
42   H         2.4020   25.6901   12.9691  H     
43   H         0.4488   26.5998   11.7510  H     
44   H         2.0413   27.2816   11.4334  H     
45   H         0.7698   26.8592    9.3229  H     
46   H         0.6676   25.1745    9.6955  H     
47   H         2.6717   23.7133    9.7236  H     
48   H         4.2655   24.4135    9.5420  H     
49   H         0.3482   24.5259   13.0211  H     
50   H         1.7349   23.4456   13.1016  H     
51   H         0.8415   23.6132   11.5798  H     
52   H         0.6108   33.9798    7.7322  H     
53   H        -0.1671   29.3241    9.9608  H     
54   H        -1.9325   30.1674   11.3529  H     
55   H        -1.5031   33.9917    9.5734  H     
56   H        -4.2617   30.9783   11.2499  H     
57   H        -5.9598   31.7750   12.7161  H     
58   H        -3.7360   35.2863   13.3994  H     
59   H        -1.9996   34.4663   11.9811  H     
60   H        -5.6914   34.9776   14.4829  H     
61   H        -7.7420   34.6117   15.9932  H     
62   H        -9.1536   34.5560   14.9299  H     
63   H        -7.9693   35.8585   14.7482  H     
@<TRIPOS>BOND
     1    1    2 2
     2    1    6 1
     3    2    3 1
     4    2   11 1
     5    3    4 2
     6    3    7 1
     7    4    5 1
     8    4    9 1
     9    5    6 2
    10    7    8 2
    11    8    9 1
    12    8   10 1
    13   10   18 1
    14   10   21 2
    15   11   15 1
    16   11   16 1
    17   12   13 1
    18   12   16 1
    19   13   14 1
    20   13   17 1
    21   14   15 1
    22   18   19 1
    23   18   22 2
    24   19   20 1
    25   19   25 2
    26   20   21 1
    27   22   23 1
    28   23   24 2
    29   24   25 1
    30   24   26 1
    31   26   27 2
    32   26   31 1
    33   27   28 1
    34   28   29 2
    35   29   30 1
    36   29   32 1
    37   30   31 2
    38   32   33 am
    39   33   34 1
    40   33   35 2
    41    1   36 1
    42    5   37 1
    43    6   38 1
    44    9   39 1
    45   12   40 1
    46   12   41 1
    47   13   42 1
    48   14   43 1
    49   14   44 1
    50   15   45 1
    51   15   46 1
    52   16   47 1
    53   16   48 1
    54   17   49 1
    55   17   50 1
    56   17   51 1
    57   20   52 1
    58   22   53 1
    59   23   54 1
    60   25   55 1
    61   27   56 1
    62   28   57 1
    63   30   58 1
    64   31   59 1
    65   32   60 1
    66   34   61 1
    67   34   62 1
    68   34   63 1
@<TRIPOS>PROPERTY_DATA
  Total_Score	| 11.5115
  Crash		| -1.3589
  Polar		| 4.0790
  FragIndex	| 1
  FragRMSD	| 0.918

