@<TRIPOS>MOLECULE
BindingDB_35174
 58 63 0 0 0
SMALL
NO_CHARGES


@<TRIPOS>ATOM
1    C         4.4443   26.3000    8.9306  C     
2    C         3.1978   26.8724    9.3074  C     
3    C         2.8523   28.0777    8.6505  C     
4    C         3.6910   28.6896    7.7154  C     
5    C         4.9222   28.1219    7.3653  C     
6    C         5.2960   26.9138    7.9825  C     
7    N         1.8159   28.9034    8.8273  N     
8    C         1.9699   29.9790    8.0282  C     
9    N         3.1113   29.8307    7.3307  N     
10   C         1.1467   31.0846    8.0534  C     
11   N         2.3994   26.2842   10.2632  N     
12   C         0.4829   24.8006    9.9865  C     
13   N         0.9971   23.9232   11.0802  N     
14   C         2.4841   24.0179   11.2351  C     
15   C         2.9231   25.5007   11.3689  C     
16   C         0.9532   26.2670   10.1623  C     
17   C         0.5353   22.5121   10.9364  C     
18   C         0.0433   31.2648    8.8478  C     
19   C        -0.2628   32.6126    8.7435  C     
20   N         0.6236   33.1144    7.8742  N     
21   N         1.4422   32.2104    7.5085  N     
22   C        -0.7176   30.4303    9.6916  C     
23   C        -1.7580   30.9952   10.4565  C     
24   C        -2.0406   32.3856   10.3988  C     
25   C        -1.2853   33.1987    9.5087  C     
26   C        -2.9965   32.9438   11.2911  C     
27   C        -2.7803   34.2236   11.8584  C     
28   C        -3.6474   34.7330   12.8510  C     
29   C        -4.7559   33.9702   13.2714  C     
30   C        -5.0035   32.7155   12.6897  C     
31   C        -4.1276   32.2017   11.7146  C     
32   N        -3.3937   35.9270   13.4115  N     
33   H         4.7322   25.3963    9.3005  H     
34   H         5.5385   28.5800    6.6930  H     
35   H         6.1818   26.4662    7.7384  H     
36   H         3.4968   30.4641    6.7105  H     
37   H         0.8100   24.4359    9.0121  H     
38   H        -0.6115   24.7938   10.0004  H     
39   H         0.5896   24.2743   11.9509  H     
40   H         2.8011   23.4805   12.1360  H     
41   H         3.0003   23.5656   10.3741  H     
42   H         4.0138   25.5579   11.4565  H     
43   H         2.5299   25.8956   12.3107  H     
44   H         0.5106   26.6922   11.0653  H     
45   H         0.5680   26.8325    9.3181  H     
46   H        -0.5589   22.4702   10.8976  H     
47   H         0.8583   21.9186   11.7880  H     
48   H         0.9303   22.0585   10.0268  H     
49   H         0.6767   34.0469    7.6182  H     
50   H        -0.5229   29.4322    9.7684  H     
51   H        -2.2692   30.3862   11.0995  H     
52   H        -1.4502   34.2029    9.4400  H     
53   H        -1.9595   34.7743   11.5919  H     
54   H        -5.3808   34.3239   14.0023  H     
55   H        -5.8143   32.1694   12.9914  H     
56   H        -4.3268   31.2815   11.3147  H     
57   H        -3.9737   36.2699   14.1138  H     
58   H        -2.6157   36.4436   13.1292  H     
@<TRIPOS>BOND
     1    1    2 2
     2    1    6 1
     3    2    3 1
     4    2   11 1
     5    3    4 2
     6    3    7 1
     7    4    5 1
     8    4    9 1
     9    5    6 2
    10    7    8 2
    11    8    9 1
    12    8   10 1
    13   10   18 1
    14   10   21 2
    15   11   15 1
    16   11   16 1
    17   12   13 1
    18   12   16 1
    19   13   14 1
    20   13   17 1
    21   14   15 1
    22   18   19 1
    23   18   22 2
    24   19   20 1
    25   19   25 2
    26   20   21 1
    27   22   23 1
    28   23   24 2
    29   24   25 1
    30   24   26 1
    31   26   27 2
    32   26   31 1
    33   27   28 1
    34   28   29 2
    35   28   32 1
    36   29   30 1
    37   30   31 2
    38    1   33 1
    39    5   34 1
    40    6   35 1
    41    9   36 1
    42   12   37 1
    43   12   38 1
    44   13   39 1
    45   14   40 1
    46   14   41 1
    47   15   42 1
    48   15   43 1
    49   16   44 1
    50   16   45 1
    51   17   46 1
    52   17   47 1
    53   17   48 1
    54   20   49 1
    55   22   50 1
    56   23   51 1
    57   25   52 1
    58   27   53 1
    59   29   54 1
    60   30   55 1
    61   31   56 1
    62   32   57 1
    63   32   58 1
@<TRIPOS>PROPERTY_DATA
  Total_Score	| 10.6237
  Crash		| -1.3970
  Polar		| 3.3015
  FragIndex	| 1
  FragRMSD	| 0.543

