@<TRIPOS>MOLECULE
BindingDB_35179
 61 66 0 0 0
SMALL
NO_CHARGES


@<TRIPOS>ATOM
1    C         4.3329   26.0048    7.5977  C     
2    C         3.2461   26.5284    8.3672  C     
3    C         2.8775   27.8730    8.0513  C     
4    C         3.5627   28.6146    7.0818  C     
5    C         4.6478   28.0899    6.3644  C     
6    C         5.0229   26.7640    6.6287  C     
7    N         1.9410   28.7019    8.5504  N     
8    C         2.0233   29.8891    7.8961  C     
9    N         3.0214   29.8291    6.9985  N     
10   C         1.2406   31.0026    8.1064  C     
11   N         2.6167   25.7603    9.3340  N     
12   C         1.3208   26.3269   11.3491  C     
13   N         1.9942   25.2417   12.1363  N     
14   C         3.3054   24.8504   11.5337  C     
15   C         3.2591   24.6265    9.9953  C     
16   C         1.2700   26.0150    9.8252  C     
17   C         1.1050   24.0870   12.4571  C     
18   C         0.1863   31.1487    8.9728  C     
19   C        -0.1972   32.4722    8.8477  C     
20   N         0.6210   33.0052    7.9378  N     
21   N         1.4483   32.1347    7.5302  N     
22   C        -0.4853   30.3169    9.8849  C     
23   C        -1.5221   30.8640   10.6767  C     
24   C        -1.9139   32.2294   10.5603  C     
25   C        -1.2350   33.0333    9.6062  C     
26   C        -2.9224   32.7857   11.4129  C     
27   C        -2.7434   34.0480   12.0306  C     
28   C        -3.6976   34.5674   12.9250  C     
29   C        -4.8748   33.8547   13.2323  C     
30   C        -5.0782   32.6096   12.5926  C     
31   C        -4.1210   32.0875   11.7020  C     
32   N        -5.7389   34.4165   14.1156  N     
33   C        -6.8230   33.7742   14.7791  C     
34   H         4.6198   25.0305    7.6896  H     
35   H         5.1329   28.6466    5.6504  H     
36   H         5.7795   26.3346    6.0972  H     
37   H         3.3453   30.5370    6.4121  H     
38   H         0.3076   26.5028   11.7235  H     
39   H         1.8762   27.2590   11.4991  H     
40   H         2.2391   25.6659   13.0354  H     
41   H         4.0157   25.6582   11.7382  H     
42   H         3.7091   23.9559   12.0203  H     
43   H         2.6974   23.7112    9.7730  H     
44   H         4.2971   24.4546    9.6957  H     
45   H         0.7468   26.8223    9.3077  H     
46   H         0.6575   25.1144    9.6652  H     
47   H         0.2144   24.4327   12.9849  H     
48   H         1.6220   23.3905   13.1182  H     
49   H         0.7981   23.5505   11.5590  H     
50   H         0.6120   33.9330    7.6545  H     
51   H        -0.2185   29.3363   10.0032  H     
52   H        -1.9682   30.2513   11.3691  H     
53   H        -1.4700   34.0166    9.4618  H     
54   H        -1.8973   34.5989   11.8655  H     
55   H        -3.5292   35.4871   13.3443  H     
56   H        -5.9254   32.0675   12.7691  H     
57   H        -4.3219   31.1920   11.2522  H     
58   H        -5.5885   35.3476   14.3485  H     
59   H        -7.4821   33.2693   14.0671  H     
60   H        -7.3980   34.5320   15.3087  H     
61   H        -6.4449   33.0548   15.5083  H     
@<TRIPOS>BOND
     1    1    2 2
     2    1    6 1
     3    2    3 1
     4    2   11 1
     5    3    4 2
     6    3    7 1
     7    4    5 1
     8    4    9 1
     9    5    6 2
    10    7    8 2
    11    8    9 1
    12    8   10 1
    13   10   18 1
    14   10   21 2
    15   11   15 1
    16   11   16 1
    17   12   13 1
    18   12   16 1
    19   13   14 1
    20   13   17 1
    21   14   15 1
    22   18   19 1
    23   18   22 2
    24   19   20 1
    25   19   25 2
    26   20   21 1
    27   22   23 1
    28   23   24 2
    29   24   25 1
    30   24   26 1
    31   26   27 2
    32   26   31 1
    33   27   28 1
    34   28   29 2
    35   29   30 1
    36   29   32 1
    37   30   31 2
    38   32   33 1
    39    1   34 1
    40    5   35 1
    41    6   36 1
    42    9   37 1
    43   12   38 1
    44   12   39 1
    45   13   40 1
    46   14   41 1
    47   14   42 1
    48   15   43 1
    49   15   44 1
    50   16   45 1
    51   16   46 1
    52   17   47 1
    53   17   48 1
    54   17   49 1
    55   20   50 1
    56   22   51 1
    57   23   52 1
    58   25   53 1
    59   27   54 1
    60   28   55 1
    61   30   56 1
    62   31   57 1
    63   32   58 1
    64   33   59 1
    65   33   60 1
    66   33   61 1
@<TRIPOS>PROPERTY_DATA
  Total_Score	| 11.8502
  Crash		| -1.1580
  Polar		| 3.8753
  FragIndex	| 1
  FragRMSD	| 0.983

