@<TRIPOS>MOLECULE
BindingDB_35170
 64 69 0 0 0
SMALL
NO_CHARGES


@<TRIPOS>ATOM
1    C         4.6180   26.1223    7.6589  C     
2    C         3.4637   26.5677    8.3808  C     
3    C         3.0459   27.9012    8.0835  C     
4    C         3.7478   28.7076    7.1823  C     
5    C         4.8973   28.2662    6.5175  C     
6    C         5.3276   26.9508    6.7563  C     
7    N         2.0416   28.6786    8.5442  N     
8    C         2.0916   29.8807    7.9302  C     
9    N         3.1423   29.8917    7.0991  N     
10   C         1.2452   30.9505    8.1013  C     
11   N         2.8174   25.7431    9.2869  N     
12   C         3.4953   24.8602   11.4858  C     
13   N         2.1562   25.1953   12.0556  N     
14   C         1.4611   26.2639   11.2638  C     
15   C         1.4527   25.9553    9.7454  C     
16   C         3.4783   24.6236    9.9501  C     
17   C         1.3015   24.0048   12.3338  C     
18   C         0.2002   31.0939    8.9728  C     
19   C        -0.2767   32.3793    8.7705  C     
20   N         0.4825   32.8956    7.7987  N     
21   N         1.3610   32.0532    7.4434  N     
22   C        -0.3740   30.2828    9.9701  C     
23   C        -1.4287   30.8019   10.7501  C     
24   C        -1.9279   32.1168   10.5426  C     
25   C        -1.3312   32.9145    9.5282  C     
26   C        -2.9440   32.6458   11.3876  C     
27   C        -4.1853   31.9826   11.5705  C     
28   C        -5.1546   32.5411   12.4359  C     
29   C        -4.9048   33.7330   13.1441  C     
30   C        -3.6715   34.3912   12.9524  C     
31   C        -2.7049   33.8500   12.0835  C     
32   O        -5.9259   34.1743   13.9669  O     
33   C        -5.8920   35.5132   14.4921  C     
34   O        -4.4879   30.8772   10.8071  O     
35   C        -4.7716   29.6717   11.5393  C     
36   H         4.9346   25.1541    7.7307  H     
37   H         5.3978   28.8706    5.8599  H     
38   H         6.1403   26.5829    6.2477  H     
39   H         3.4385   30.6266    6.5452  H     
40   H         4.1586   25.7025   11.6936  H     
41   H         3.9296   23.9887   11.9845  H     
42   H         2.3596   25.6101   12.9667  H     
43   H         0.4355   26.4112   11.6161  H     
44   H         1.9929   27.2051   11.4257  H     
45   H         0.9119   26.7408    9.2208  H     
46   H         0.8757   25.0449    9.5673  H     
47   H         2.9506   23.6952    9.7225  H     
48   H         4.5190   24.4754    9.6665  H     
49   H         1.0432   23.4707   11.4159  H     
50   H         0.3779   24.3059   12.8348  H     
51   H         1.8220   23.3141   13.0009  H     
52   H         0.3914   33.7922    7.4405  H     
53   H        -0.0232   29.3415   10.1501  H     
54   H        -1.8132   30.2179   11.4970  H     
55   H        -1.6472   33.8716    9.3542  H     
56   H        -6.0654   32.0828   12.5376  H     
57   H        -3.4604   35.2588   13.4362  H     
58   H        -1.8175   34.3408   11.9734  H     
59   H        -5.1030   35.6208   15.2388  H     
60   H        -6.8570   35.7288   14.9791  H     
61   H        -5.7451   36.2556   13.6997  H     
62   H        -3.9928   29.4384   12.2712  H     
63   H        -4.8250   28.8519   10.8228  H     
64   H        -5.7351   29.7485   12.0495  H     
@<TRIPOS>BOND
     1    1    2 2
     2    1    6 1
     3    2    3 1
     4    2   11 1
     5    3    4 2
     6    3    7 1
     7    4    5 1
     8    4    9 1
     9    5    6 2
    10    7    8 2
    11    8    9 1
    12    8   10 1
    13   10   18 1
    14   10   21 2
    15   11   15 1
    16   11   16 1
    17   12   13 1
    18   12   16 1
    19   13   14 1
    20   13   17 1
    21   14   15 1
    22   18   19 1
    23   18   22 2
    24   19   20 1
    25   19   25 2
    26   20   21 1
    27   22   23 1
    28   23   24 2
    29   24   25 1
    30   24   26 1
    31   26   27 2
    32   26   31 1
    33   27   28 1
    34   27   34 1
    35   28   29 2
    36   29   30 1
    37   29   32 1
    38   30   31 2
    39   32   33 1
    40   34   35 1
    41    1   36 1
    42    5   37 1
    43    6   38 1
    44    9   39 1
    45   12   40 1
    46   12   41 1
    47   13   42 1
    48   14   43 1
    49   14   44 1
    50   15   45 1
    51   15   46 1
    52   16   47 1
    53   16   48 1
    54   17   49 1
    55   17   50 1
    56   17   51 1
    57   20   52 1
    58   22   53 1
    59   23   54 1
    60   25   55 1
    61   28   56 1
    62   30   57 1
    63   31   58 1
    64   33   59 1
    65   33   60 1
    66   33   61 1
    67   35   62 1
    68   35   63 1
    69   35   64 1
@<TRIPOS>PROPERTY_DATA
  Total_Score	| 12.0358
  Crash		| -1.6482
  Polar		| 3.9070
  FragIndex	| 1
  FragRMSD	| 0.826

