@<TRIPOS>MOLECULE
BindingDB_35166
 61 66 0 0 0
SMALL
NO_CHARGES


@<TRIPOS>ATOM
1    C         4.4409   26.0130    7.6660  C     
2    C         3.3399   26.5202    8.4118  C     
3    C         2.9766   27.8657    8.1277  C     
4    C         3.6854   28.6268    7.1860  C     
5    C         4.7819   28.1282    6.4859  C     
6    C         5.1402   26.7916    6.7133  C     
7    N         1.9985   28.6602    8.6017  N     
8    C         2.0820   29.8526    7.9616  C     
9    N         3.1277   29.8292    7.1169  N     
10   C         1.2239   30.9208    8.0920  C     
11   N         2.6868   25.7345    9.3416  N     
12   C         1.3089   26.2305   11.3152  C     
13   N         1.9556   25.1221   12.0875  N     
14   C         3.2947   24.7551   11.5339  C     
15   C         3.3219   24.5894    9.9837  C     
16   C         1.3250   25.9683    9.7859  C     
17   C         1.0612   23.9538   12.3195  C     
18   C         0.1756   31.0669    8.9658  C     
19   C        -0.3029   32.3388    8.7072  C     
20   N         0.4434   32.8306    7.7140  N     
21   N         1.3360   31.9951    7.3868  N     
22   C        -0.3970   30.2737    9.9729  C     
23   C        -1.4359   30.8275   10.7512  C     
24   C        -1.9213   32.1403   10.5093  C     
25   C        -1.3503   32.9001    9.4563  C     
26   C        -2.9093   32.7263   11.3486  C     
27   C        -4.1711   32.1164   11.5771  C     
28   C        -5.0802   32.7108   12.4693  C     
29   C        -4.7445   33.9198   13.1492  C     
30   C        -3.5013   34.5171   12.9232  C     
31   C        -2.5899   33.9268   12.0296  C     
32   O        -4.4856   30.9784   10.8610  O     
33   O        -5.6390   34.4775   14.0068  O     
34   C        -4.9385   29.8180   11.5970  C     
35   H         4.7179   25.0400    7.7351  H     
36   H         5.2699   28.7074    5.7983  H     
37   H         5.9096   26.3809    6.1786  H     
38   H         3.4246   30.5562    6.5434  H     
39   H         0.2806   26.3922   11.6509  H     
40   H         1.8541   27.1579   11.5103  H     
41   H         2.1603   25.5135   13.0079  H     
42   H         3.9945   25.5516   11.8058  H     
43   H         3.6714   23.8384   12.0063  H     
44   H         2.7957   23.6670    9.7036  H     
45   H         4.3761   24.4597    9.7172  H     
46   H         0.8271   26.7929    9.2731  H     
47   H         0.7237   25.0736    9.5700  H     
48   H         0.1345   24.2741   12.7952  H     
49   H         1.5392   23.2459   12.9933  H     
50   H         0.8162   23.4367   11.3907  H     
51   H         0.3413   33.7129    7.3362  H     
52   H        -0.0489   29.3334   10.1585  H     
53   H        -1.8044   30.2786   11.5268  H     
54   H        -1.6667   33.8515    9.2458  H     
55   H        -6.0086   32.3023   12.6150  H     
56   H        -3.2779   35.3900   13.4109  H     
57   H        -1.6883   34.3851   11.9174  H     
58   H        -6.4403   34.6541   13.4545  H     
59   H        -4.3405   29.6453   12.5002  H     
60   H        -4.8356   28.9325   10.9660  H     
61   H        -5.9958   29.9408   11.8874  H     
@<TRIPOS>BOND
     1    1    2 2
     2    1    6 1
     3    2    3 1
     4    2   11 1
     5    3    4 2
     6    3    7 1
     7    4    5 1
     8    4    9 1
     9    5    6 2
    10    7    8 2
    11    8    9 1
    12    8   10 1
    13   10   18 1
    14   10   21 2
    15   11   15 1
    16   11   16 1
    17   12   13 1
    18   12   16 1
    19   13   14 1
    20   13   17 1
    21   14   15 1
    22   18   19 1
    23   18   22 2
    24   19   20 1
    25   19   25 2
    26   20   21 1
    27   22   23 1
    28   23   24 2
    29   24   25 1
    30   24   26 1
    31   26   27 2
    32   26   31 1
    33   27   28 1
    34   27   32 1
    35   28   29 2
    36   29   30 1
    37   29   33 1
    38   30   31 2
    39   32   34 1
    40    1   35 1
    41    5   36 1
    42    6   37 1
    43    9   38 1
    44   12   39 1
    45   12   40 1
    46   13   41 1
    47   14   42 1
    48   14   43 1
    49   15   44 1
    50   15   45 1
    51   16   46 1
    52   16   47 1
    53   17   48 1
    54   17   49 1
    55   17   50 1
    56   20   51 1
    57   22   52 1
    58   23   53 1
    59   25   54 1
    60   28   55 1
    61   30   56 1
    62   31   57 1
    63   33   58 1
    64   34   59 1
    65   34   60 1
    66   34   61 1
@<TRIPOS>PROPERTY_DATA
  Total_Score	| 11.5984
  Crash		| -1.4079
  Polar		| 3.5828
  FragIndex	| 1
  FragRMSD	| 0.896

