@<TRIPOS>MOLECULE
BindingDB_35167
 61 66 0 0 0
SMALL
NO_CHARGES


@<TRIPOS>ATOM
1    C         4.5503   26.1215    7.7148  C     
2    C         3.3787   26.5891    8.3937  C     
3    C         2.9972   27.9304    8.0893  C     
4    C         3.7479   28.7282    7.2168  C     
5    C         4.9232   28.2677    6.6087  C     
6    C         5.3138   26.9431    6.8582  C     
7    N         1.9904   28.7144    8.5253  N     
8    C         2.0840   29.9098    7.9078  C     
9    N         3.1639   29.9186    7.1093  N     
10   C         1.2556   30.9944    8.0781  C     
11   N         2.6945   25.7806    9.2875  N     
12   C         3.3997   24.9516   11.4829  C     
13   N         2.0797   25.3308   12.0727  N     
14   C         1.3945   26.3941   11.2712  C     
15   C         1.3427   26.0544    9.7569  C     
16   C         3.3206   24.6459    9.9641  C     
17   C         1.2094   24.1630   12.3934  C     
18   C         0.1609   31.1352    8.8967  C     
19   C        -0.1959   32.4684    8.7845  C     
20   N         0.6580   33.0002    7.9036  N     
21   N         1.4921   32.1268    7.5153  N     
22   C        -0.5656   30.2816    9.7516  C     
23   C        -1.6227   30.8252   10.5103  C     
24   C        -1.9770   32.2023   10.4195  C     
25   C        -1.2435   33.0244    9.5254  C     
26   C        -2.9649   32.7691   11.2952  C     
27   C        -2.6777   33.9178   12.0757  C     
28   C        -3.5659   34.4228   13.0478  C     
29   C        -4.7820   33.7332   13.2671  C     
30   C        -5.1071   32.6063   12.4834  C     
31   C        -4.2160   32.1431   11.4995  C     
32   O        -5.6350   34.1264   14.2420  O     
33   O        -3.1040   35.4898   13.7871  O     
34   C        -4.0666   36.4358   14.3044  C     
35   H         4.8464   25.1480    7.7962  H     
36   H         5.4716   28.8680    5.9869  H     
37   H         6.1484   26.5655    6.3998  H     
38   H         3.4822   30.6615    6.5695  H     
39   H         4.0903   25.7849   11.6390  H     
40   H         3.8293   24.0961   12.0075  H     
41   H         2.3094   25.7559   12.9701  H     
42   H         0.3832   26.5675   11.6426  H     
43   H         1.9431   27.3305   11.4004  H     
44   H         0.8272   26.8565    9.2224  H     
45   H         0.7314   25.1567    9.6001  H     
46   H         2.7263   23.7438    9.7890  H     
47   H         4.3385   24.4178    9.6480  H     
48   H         0.3118   24.4912   12.9165  H     
49   H         1.7322   23.4745   13.0573  H     
50   H         0.9057   23.6111   11.5008  H     
51   H         0.6656   33.9259    7.6181  H     
52   H        -0.3290   29.2969    9.8409  H     
53   H        -2.1130   30.2164   11.1668  H     
54   H        -1.4270   34.0196    9.4227  H     
55   H        -1.7647   34.3620   11.9808  H     
56   H        -5.9847   32.0991   12.6435  H     
57   H        -4.4926   31.3276   10.9471  H     
58   H        -6.2819   34.7143   13.7920  H     
59   H        -4.7760   36.7659   13.5441  H     
60   H        -3.5247   37.3087   14.6635  H     
61   H        -4.6116   36.0225   15.1595  H     
@<TRIPOS>BOND
     1    1    2 2
     2    1    6 1
     3    2    3 1
     4    2   11 1
     5    3    4 2
     6    3    7 1
     7    4    5 1
     8    4    9 1
     9    5    6 2
    10    7    8 2
    11    8    9 1
    12    8   10 1
    13   10   18 1
    14   10   21 2
    15   11   15 1
    16   11   16 1
    17   12   13 1
    18   12   16 1
    19   13   14 1
    20   13   17 1
    21   14   15 1
    22   18   19 1
    23   18   22 2
    24   19   20 1
    25   19   25 2
    26   20   21 1
    27   22   23 1
    28   23   24 2
    29   24   25 1
    30   24   26 1
    31   26   27 2
    32   26   31 1
    33   27   28 1
    34   28   29 2
    35   28   33 1
    36   29   30 1
    37   29   32 1
    38   30   31 2
    39   33   34 1
    40    1   35 1
    41    5   36 1
    42    6   37 1
    43    9   38 1
    44   12   39 1
    45   12   40 1
    46   13   41 1
    47   14   42 1
    48   14   43 1
    49   15   44 1
    50   15   45 1
    51   16   46 1
    52   16   47 1
    53   17   48 1
    54   17   49 1
    55   17   50 1
    56   20   51 1
    57   22   52 1
    58   23   53 1
    59   25   54 1
    60   27   55 1
    61   30   56 1
    62   31   57 1
    63   32   58 1
    64   34   59 1
    65   34   60 1
    66   34   61 1
@<TRIPOS>PROPERTY_DATA
  Total_Score	| 12.1517
  Crash		| -1.4677
  Polar		| 3.9885
  FragIndex	| 1
  FragRMSD	| 0.781

