@<TRIPOS>MOLECULE
BindingDB_35169
 60 65 0 0 0
SMALL
NO_CHARGES


@<TRIPOS>ATOM
1    C         4.3209   26.0141    7.8267  C     
2    C         3.1654   26.5464    8.4833  C     
3    C         2.8197   27.8742    8.1044  C     
4    C         3.5707   28.6067    7.1801  C     
5    C         4.7165   28.0757    6.5701  C     
6    C         5.0808   26.7606    6.8947  C     
7    N         1.8524   28.7059    8.5336  N     
8    C         1.9668   29.8802    7.8784  C     
9    N         3.0246   29.8153    7.0515  N     
10   C         1.1727   30.9874    8.0730  C     
11   N         2.4652   25.8141    9.4284  N     
12   C         2.9869   25.2326   11.7619  C     
13   N         1.5891   25.5560   12.1841  N     
14   C         0.9252   26.4906   11.2233  C     
15   C         1.0628   26.0309    9.7491  C     
16   C         3.1013   24.8123   10.2724  C     
17   C         0.7741   24.3553   12.5276  C     
18   C         0.1155   31.1344    8.9332  C     
19   C        -0.2487   32.4648    8.8225  C     
20   N         0.5710   32.9979    7.9134  N     
21   N         1.3911   32.1223    7.5020  N     
22   C        -0.5716   30.2949    9.8345  C     
23   C        -1.6030   30.8433   10.6266  C     
24   C        -1.9618   32.2173   10.5390  C     
25   C        -1.2769   33.0261    9.5908  C     
26   C        -2.9454   32.7854   11.4131  C     
27   C        -4.1793   32.1360   11.6624  C     
28   C        -5.1246   32.6889   12.5502  C     
29   C        -4.8702   33.9075   13.2165  C     
30   C        -3.6348   34.5524   12.9807  C     
31   C        -2.6886   33.9969   12.0952  C     
32   C        -5.9276   34.4744   14.0962  C     
33   O        -5.7658   35.8457   14.4655  O     
34   H         4.6010   25.0431    7.9709  H     
35   H         5.2635   28.6318    5.9036  H     
36   H         5.8961   26.3390    6.4406  H     
37   H         3.3741   30.5277    6.4913  H     
38   H         3.6013   26.1286   11.9005  H     
39   H         3.4234   24.4551   12.3981  H     
40   H         1.6947   26.0775   13.0567  H     
41   H        -0.1318   26.6177   11.4693  H     
42   H         1.3961   27.4703   11.3253  H     
43   H         0.5522   26.7468    9.1061  H     
44   H         0.5219   25.0890    9.6156  H     
45   H         2.6196   23.8413   10.1215  H     
46   H         4.1680   24.6780   10.0840  H     
47   H        -0.2024   24.6586   12.9080  H     
48   H         1.2655   23.7795   13.3134  H     
49   H         0.6262   23.7064   11.6624  H     
50   H         0.5558   33.9270    7.6431  H     
51   H        -0.3208   29.3112    9.9345  H     
52   H        -2.0610   30.2321   11.3091  H     
53   H        -1.5052   34.0138    9.4687  H     
54   H        -4.4122   31.2603   11.1902  H     
55   H        -6.0135   32.1974   12.6910  H     
56   H        -3.4066   35.4350   13.4396  H     
57   H        -1.7962   34.4859   11.9763  H     
58   H        -6.8802   34.4105   13.5697  H     
59   H        -6.0014   33.8744   15.0063  H     
60   H        -5.6333   35.8553   15.4379  H     
@<TRIPOS>BOND
     1    1    2 2
     2    1    6 1
     3    2    3 1
     4    2   11 1
     5    3    4 2
     6    3    7 1
     7    4    5 1
     8    4    9 1
     9    5    6 2
    10    7    8 2
    11    8    9 1
    12    8   10 1
    13   10   18 1
    14   10   21 2
    15   11   15 1
    16   11   16 1
    17   12   13 1
    18   12   16 1
    19   13   14 1
    20   13   17 1
    21   14   15 1
    22   18   19 1
    23   18   22 2
    24   19   20 1
    25   19   25 2
    26   20   21 1
    27   22   23 1
    28   23   24 2
    29   24   25 1
    30   24   26 1
    31   26   27 2
    32   26   31 1
    33   27   28 1
    34   28   29 2
    35   29   30 1
    36   29   32 1
    37   30   31 2
    38   32   33 1
    39    1   34 1
    40    5   35 1
    41    6   36 1
    42    9   37 1
    43   12   38 1
    44   12   39 1
    45   13   40 1
    46   14   41 1
    47   14   42 1
    48   15   43 1
    49   15   44 1
    50   16   45 1
    51   16   46 1
    52   17   47 1
    53   17   48 1
    54   17   49 1
    55   20   50 1
    56   22   51 1
    57   23   52 1
    58   25   53 1
    59   27   54 1
    60   28   55 1
    61   30   56 1
    62   31   57 1
    63   32   58 1
    64   32   59 1
    65   33   60 1
@<TRIPOS>PROPERTY_DATA
  Total_Score	| 12.3047
  Crash		| -1.1379
  Polar		| 4.2822
  FragIndex	| 1
  FragRMSD	| 0.881

