@<TRIPOS>MOLECULE
BindingDB_35175
 58 63 0 0 0
SMALL
NO_CHARGES


@<TRIPOS>ATOM
1    C         4.5225   26.1330    8.6420  C     
2    C         3.3067   26.7132    9.1064  C     
3    C         2.9447   27.9623    8.5425  C     
4    C         3.7240   28.5921    7.5771  C     
5    C         4.9039   27.9960    7.0945  C     
6    C         5.2970   26.7532    7.6414  C     
7    N         1.9238   28.7820    8.8368  N     
8    C         2.0492   29.8822    8.0639  C     
9    N         3.1507   29.7682    7.2923  N     
10   C         1.2067   30.9658    8.1107  C     
11   N         2.5303   26.1076   10.0561  N     
12   C         0.3123   25.9267   11.1918  C     
13   N         0.8201   24.8529   12.1016  N     
14   C         2.3128   24.6801   12.1264  C     
15   C         3.1274   25.7393   11.3286  C     
16   C         1.0952   25.9628    9.8623  C     
17   C         0.1988   24.9249   13.4576  C     
18   C         0.1231   31.1474    8.9322  C     
19   C        -0.2681   32.4629    8.7305  C     
20   N         0.5423   32.9306    7.7764  N     
21   N         1.3965   32.0466    7.4449  N     
22   C        -0.5653   30.3428    9.8604  C     
23   C        -1.6206   30.9074   10.6043  C     
24   C        -1.9834   32.2729   10.4505  C     
25   C        -1.2975   33.0531    9.4819  C     
26   C        -2.9584   32.8451   11.3251  C     
27   C        -4.1643   32.1602   11.6256  C     
28   C        -5.0716   32.6665   12.5787  C     
29   C        -4.7788   33.8639   13.2605  C     
30   C        -3.6022   34.5702   12.9505  C     
31   C        -2.7028   34.0694   11.9874  C     
32   F        -6.1643   31.9970   12.8380  F     
33   N        -5.6031   34.3323   14.2208  N     
34   H         4.8308   25.2267    8.9952  H     
35   H         5.4643   28.4530    6.3620  H     
36   H         6.1415   26.2888    7.2953  H     
37   H         3.5044   30.4246    6.6666  H     
38   H        -0.7438   25.7335   10.9636  H     
39   H         0.3819   26.9146   11.6688  H     
40   H         0.4630   23.9786   11.7036  H     
41   H         2.7116   24.6432   13.1432  H     
42   H         2.5232   23.7015   11.6839  H     
43   H         4.1478   25.3546   11.2200  H     
44   H         3.1848   26.6574   11.9259  H     
45   H         0.6565   26.7511    9.2479  H     
46   H         0.9276   25.0148    9.3326  H     
47   H         0.4380   24.0229   14.0288  H     
48   H        -0.8892   24.9932   13.3866  H     
49   H         0.5662   25.7978   14.0093  H     
50   H         0.5067   33.8218    7.4054  H     
51   H        -0.3012   29.3689   10.0117  H     
52   H        -2.0831   30.3235   11.3051  H     
53   H        -1.5192   34.0379    9.3354  H     
54   H        -4.3797   31.2726   11.1656  H     
55   H        -3.3758   35.4391   13.4466  H     
56   H        -1.8331   34.5783   11.8180  H     
57   H        -5.3807   35.1432   14.7057  H     
58   H        -6.4085   33.8448   14.4505  H     
@<TRIPOS>BOND
     1    1    2 2
     2    1    6 1
     3    2    3 1
     4    2   11 1
     5    3    4 2
     6    3    7 1
     7    4    5 1
     8    4    9 1
     9    5    6 2
    10    7    8 2
    11    8    9 1
    12    8   10 1
    13   10   18 1
    14   10   21 2
    15   11   15 1
    16   11   16 1
    17   12   13 1
    18   12   16 1
    19   13   14 1
    20   13   17 1
    21   14   15 1
    22   18   19 1
    23   18   22 2
    24   19   20 1
    25   19   25 2
    26   20   21 1
    27   22   23 1
    28   23   24 2
    29   24   25 1
    30   24   26 1
    31   26   27 2
    32   26   31 1
    33   27   28 1
    34   28   29 2
    35   28   32 1
    36   29   30 1
    37   29   33 1
    38   30   31 2
    39    1   34 1
    40    5   35 1
    41    6   36 1
    42    9   37 1
    43   12   38 1
    44   12   39 1
    45   13   40 1
    46   14   41 1
    47   14   42 1
    48   15   43 1
    49   15   44 1
    50   16   45 1
    51   16   46 1
    52   17   47 1
    53   17   48 1
    54   17   49 1
    55   20   50 1
    56   22   51 1
    57   23   52 1
    58   25   53 1
    59   27   54 1
    60   30   55 1
    61   31   56 1
    62   33   57 1
    63   33   58 1
@<TRIPOS>PROPERTY_DATA
  Total_Score	| 11.0426
  Crash		| -1.3973
  Polar		| 2.8757
  FragIndex	| 1
  FragRMSD	| 0.643

