@<TRIPOS>MOLECULE
BindingDB_50418584
 62 64 0 0 0
SMALL
NO_CHARGES


@<TRIPOS>ATOM
1    C        19.2985  -11.0385    1.2174  C     
2    C        18.5674  -10.9532    0.0111  C     
3    C        17.2973  -10.3494   -0.0166  C     
4    C        16.7149   -9.8240    1.1558  C     
5    C        17.4498   -9.9180    2.3669  C     
6    C        18.7240  -10.5243    2.3989  C     
7    N        15.4920   -9.2193    1.0400  N     
8    C        14.5714   -9.0092    2.0036  C     
9    N        14.7854   -9.4231    3.2734  N     
10   C        13.9073   -9.2436    4.3040  C     
11   C        12.6693   -8.5776    4.0345  C     
12   C        12.4620   -8.1747    2.6811  C     
13   N        13.3967   -8.3917    1.7226  N     
14   S        20.8959  -11.7467    1.2426  S     
15   C        20.8964  -13.5548    1.3941  C     
16   O        21.5952  -11.4103   -0.2637  O     
17   N        21.8841  -10.9694    2.3236  N     
18   C        11.6120   -8.2869    5.0537  C     
19   F        10.4914   -7.6418    4.5820  F     
20   F        12.1196   -7.4589    6.0238  F     
21   F        11.1429   -9.4566    5.5970  F     
22   N        14.4760   -9.7891    5.4088  N     
23   C        14.0773  -10.0147    6.7619  C     
24   C        15.0759   -9.4372    7.8263  C     
25   C        14.9702  -10.4854    8.9672  C     
26   C        14.8422  -11.8402    8.2599  C     
27   C        13.9847  -11.5446    7.0171  C     
28   N        16.4514   -9.1398    7.2647  N     
29   C        16.5422   -7.9018    6.4338  C     
30   C        17.6522   -9.3146    8.1286  C     
31   C        22.6936  -11.5767    3.2605  C     
32   C        19.5084  -14.1936    1.1901  C     
33   H        18.9590  -11.3246   -0.8618  H     
34   H        16.7933  -10.2951   -0.9077  H     
35   H        17.0602   -9.5299    3.2360  H     
36   H        19.2298  -10.5775    3.2856  H     
37   H        15.2427   -8.9426    0.1469  H     
38   H        11.6038   -7.6982    2.3983  H     
39   H        21.5995  -13.9586    0.6614  H     
40   H        21.2536  -13.8278    2.3872  H     
41   H        21.6973  -10.4347   -0.2772  H     
42   H        15.3557  -10.1399    5.2320  H     
43   H        13.1020   -9.5801    6.9767  H     
44   H        14.6791   -8.4974    8.2338  H     
45   H        15.8147  -10.4756    9.6569  H     
46   H        14.0601  -10.3049    9.5538  H     
47   H        15.8318  -12.1964    7.9603  H     
48   H        14.3730  -12.5878    8.9057  H     
49   H        12.9436  -11.8264    7.2067  H     
50   H        14.3415  -12.1416    6.1706  H     
51   H        15.6723   -7.7845    5.7889  H     
52   H        16.6129   -7.0154    7.0702  H     
53   H        17.4222   -7.9360    5.7851  H     
54   H        18.5753   -9.1131    7.5750  H     
55   H        17.6115   -8.6407    8.9884  H     
56   H        17.7047  -10.3431    8.4884  H     
57   H        22.1024  -12.2101    3.9200  H     
58   H        23.1700  -10.8070    3.8628  H     
59   H        23.4662  -12.1729    2.7741  H     
60   H        19.5999  -15.2801    1.2146  H     
61   H        18.8387  -13.8857    1.9953  H     
62   H        19.0819  -13.8988    0.2300  H     
@<TRIPOS>BOND
     1    1    2 2
     2    1    6 1
     3    1   14 1
     4    2    3 1
     5    3    4 2
     6    4    5 1
     7    4    7 1
     8    5    6 2
     9    7    8 1
    10    8    9 2
    11    8   13 1
    12    9   10 1
    13   10   11 2
    14   10   22 1
    15   11   12 1
    16   11   18 1
    17   12   13 2
    18   14   15 1
    19   14   16 1
    20   14   17 2
    21   15   32 1
    22   17   31 1
    23   18   19 1
    24   18   20 1
    25   18   21 1
    26   22   23 1
    27   23   24 1
    28   23   27 1
    29   24   25 1
    30   24   28 1
    31   25   26 1
    32   26   27 1
    33   28   29 1
    34   28   30 1
    35    2   33 1
    36    3   34 1
    37    5   35 1
    38    6   36 1
    39    7   37 1
    40   12   38 1
    41   15   39 1
    42   15   40 1
    43   16   41 1
    44   22   42 1
    45   23   43 1
    46   24   44 1
    47   25   45 1
    48   25   46 1
    49   26   47 1
    50   26   48 1
    51   27   49 1
    52   27   50 1
    53   29   51 1
    54   29   52 1
    55   29   53 1
    56   30   54 1
    57   30   55 1
    58   30   56 1
    59   31   57 1
    60   31   58 1
    61   31   59 1
    62   32   60 1
    63   32   61 1
    64   32   62 1
@<TRIPOS>PROPERTY_DATA
  Total_Score	| 7.0792
  Crash		| -1.1521
  Polar		| 1.9379
  FragIndex	| 1
  FragRMSD	| 0.564

