@<TRIPOS>MOLECULE
BindingDB_50418579
 62 64 0 0 0
SMALL
NO_CHARGES


@<TRIPOS>ATOM
1    C        18.8658  -11.4446    1.3633  C     
2    C        18.2803  -11.1339    0.1125  C     
3    C        17.1069  -10.3499    0.0425  C     
4    C        16.5144   -9.8396    1.2143  C     
5    C        17.1805  -10.0469    2.4415  C     
6    C        18.2890  -10.9003    2.5275  C     
7    N        15.3152   -9.1879    1.1493  N     
8    C        14.4200   -9.0250    2.1526  C     
9    N        14.6042   -9.5354    3.4055  N     
10   C        13.7235   -9.3486    4.4331  C     
11   C        12.5382   -8.5914    4.1893  C     
12   C        12.3727   -8.0851    2.8736  C     
13   N        13.2999   -8.3070    1.9171  N     
14   S        20.2082  -12.5567    1.5077  S     
15   C        21.4836  -12.1886    0.2876  C     
16   O        19.5722  -14.0780    1.1074  O     
17   N        20.7971  -12.6773    3.0478  N     
18   C        11.4770   -8.2513    5.1977  C     
19   F        11.5596   -8.8806    6.4206  F     
20   F        10.2210   -8.5640    4.7108  F     
21   F        11.5025   -6.8929    5.4525  F     
22   N        14.0391   -9.8649    5.6537  N     
23   C        15.2020  -10.6433    6.0146  C     
24   C        15.9640  -10.0486    7.2352  C     
25   C        15.1220  -10.5522    8.4353  C     
26   C        14.5544  -11.9268    8.0251  C     
27   C        14.7802  -12.0483    6.5040  C     
28   N        16.2104   -8.5648    7.1211  N     
29   C        16.2770   -7.7504    8.3670  C     
30   C        17.3155   -8.2006    6.1834  C     
31   C        21.8392  -11.9601    3.6255  C     
32   C        21.4645  -10.5290    4.0767  C     
33   H        18.6675  -11.5298   -0.7454  H     
34   H        16.6654  -10.1916   -0.8678  H     
35   H        16.8231   -9.6130    3.2913  H     
36   H        18.6497  -11.1333    3.4545  H     
37   H        15.0826   -8.8213    0.2725  H     
38   H        11.5434   -7.5294    2.6180  H     
39   H        22.3078  -12.8875    0.4224  H     
40   H        21.8399  -11.1692    0.4356  H     
41   H        21.0807  -12.2946   -0.7205  H     
42   H        19.2760  -14.4781    1.9593  H     
43   H        13.3957   -9.7567    6.3687  H     
44   H        15.8903  -10.7611    5.1734  H     
45   H        16.9394  -10.5544    7.3198  H     
46   H        15.7298  -10.6318    9.3392  H     
47   H        14.2881   -9.8701    8.6287  H     
48   H        13.4870  -11.9818    8.2573  H     
49   H        15.0686  -12.7358    8.5552  H     
50   H        13.8889  -12.4135    5.9819  H     
51   H        15.5957  -12.7604    6.3141  H     
52   H        16.3802   -6.6899    8.1269  H     
53   H        17.1234   -8.0476    8.9881  H     
54   H        15.3637   -7.8494    8.9482  H     
55   H        17.2762   -8.7782    5.2653  H     
56   H        17.2414   -7.1465    5.9025  H     
57   H        18.2940   -8.3735    6.6449  H     
58   H        22.6815  -11.9180    2.9338  H     
59   H        22.1568  -12.5194    4.5078  H     
60   H        22.3516  -10.0068    4.4418  H     
61   H        21.0488   -9.9589    3.2449  H     
62   H        20.7378  -10.5665    4.8905  H     
@<TRIPOS>BOND
     1    1    2 2
     2    1    6 1
     3    1   14 1
     4    2    3 1
     5    3    4 2
     6    4    5 1
     7    4    7 1
     8    5    6 2
     9    7    8 1
    10    8    9 2
    11    8   13 1
    12    9   10 1
    13   10   11 2
    14   10   22 1
    15   11   12 1
    16   11   18 1
    17   12   13 2
    18   14   15 1
    19   14   16 1
    20   14   17 2
    21   17   31 1
    22   18   19 1
    23   18   20 1
    24   18   21 1
    25   22   23 1
    26   23   24 1
    27   23   27 1
    28   24   25 1
    29   24   28 1
    30   25   26 1
    31   26   27 1
    32   28   29 1
    33   28   30 1
    34   31   32 1
    35    2   33 1
    36    3   34 1
    37    5   35 1
    38    6   36 1
    39    7   37 1
    40   12   38 1
    41   15   39 1
    42   15   40 1
    43   15   41 1
    44   16   42 1
    45   22   43 1
    46   23   44 1
    47   24   45 1
    48   25   46 1
    49   25   47 1
    50   26   48 1
    51   26   49 1
    52   27   50 1
    53   27   51 1
    54   29   52 1
    55   29   53 1
    56   29   54 1
    57   30   55 1
    58   30   56 1
    59   30   57 1
    60   31   58 1
    61   31   59 1
    62   32   60 1
    63   32   61 1
    64   32   62 1
@<TRIPOS>PROPERTY_DATA
  Total_Score	| 8.1151
  Crash		| -1.2995
  Polar		| 2.9036
  FragIndex	| 1
  FragRMSD	| 0.651

