@<TRIPOS>MOLECULE
BindingDB_50246059
 56 59 0 0 0
SMALL
NO_CHARGES


@<TRIPOS>ATOM
1    C        16.8381  -10.3751   -0.0460  C     
2    C        16.4635   -9.7945    1.1777  C     
3    C        17.3562   -9.9119    2.2841  C     
4    C        18.5684  -10.6199    2.1664  C     
5    N        15.2729   -9.1209    1.1831  N     
6    C        14.3484   -8.9587    2.1492  C     
7    N        14.4571   -9.4719    3.3945  N     
8    C        13.5381   -9.2869    4.4003  C     
9    C        12.3906   -8.5086    4.1128  C     
10   C        12.2711   -8.0066    2.7933  C     
11   N        13.2341   -8.2390    1.8685  N     
12   N        13.7761   -9.8253    5.6246  N     
13   C        11.3477   -8.2228    5.1422  C     
14   F        10.2734   -7.4837    4.6945  F     
15   F        10.8147   -9.3900    5.6249  F     
16   F        11.8901   -7.5195    6.1888  F     
17   C        14.3545  -12.0824    6.3773  C     
18   C        14.8773  -10.6639    6.0195  C     
19   C        15.6475  -10.1362    7.2676  C     
20   C        16.1354  -11.4565    7.9147  C     
21   C        14.9927  -12.4664    7.7220  C     
22   N        16.7601   -9.1534    6.9648  N     
23   C        16.2734   -7.8393    6.4456  C     
24   C        17.7097   -8.9200    8.0989  C     
25   C        18.0546  -11.0761   -0.1720  C     
26   C        18.9029  -11.2044    0.9365  C     
27   S        20.2936  -12.1525    0.5856  S     
28   C        20.0152  -12.1333   -1.1933  C     
29   C        18.5231  -11.7575   -1.3957  C     
30   O        20.0966  -13.6294    1.1429  O     
31   O        21.6433  -11.4163    1.0110  O     
32   H        16.2260  -10.3064   -0.8725  H     
33   H        17.1633   -9.4648    3.1753  H     
34   H        19.1924  -10.7025    2.9717  H     
35   H        15.0395   -8.7314    0.3242  H     
36   H        11.4654   -7.4497    2.5035  H     
37   H        13.0976   -9.6757    6.3042  H     
38   H        13.2646  -12.1074    6.4721  H     
39   H        14.6422  -12.7978    5.6010  H     
40   H        15.6054  -10.7738    5.2119  H     
41   H        14.9359   -9.6705    7.9606  H     
42   H        17.0309  -11.8184    7.4042  H     
43   H        16.3563  -11.3326    8.9767  H     
44   H        14.2664  -12.3629    8.5354  H     
45   H        15.3689  -13.4923    7.7159  H     
46   H        17.3162   -9.5723    6.2124  H     
47   H        15.7201   -7.9705    5.5218  H     
48   H        17.1090   -7.1744    6.2116  H     
49   H        15.6254   -7.3389    7.1738  H     
50   H        17.1874   -8.5216    8.9746  H     
51   H        18.4972   -8.2172    7.8132  H     
52   H        18.2150   -9.8443    8.3835  H     
53   H        20.6607  -11.3695   -1.6467  H     
54   H        20.2513  -13.1085   -1.6357  H     
55   H        17.9224  -12.6609   -1.5490  H     
56   H        18.4198  -11.1012   -2.2679  H     
@<TRIPOS>BOND
     1    1    2 2
     2    1   25 1
     3    2    3 1
     4    2    5 1
     5    3    4 2
     6    4   26 1
     7    5    6 1
     8    6    7 2
     9    6   11 1
    10    7    8 1
    11    8    9 2
    12    8   12 1
    13    9   10 1
    14    9   13 1
    15   10   11 2
    16   18   12 1
    17   13   14 1
    18   13   15 1
    19   13   16 1
    20   17   18 1
    21   17   21 1
    22   18   19 1
    23   19   20 1
    24   19   22 1
    25   20   21 1
    26   22   23 1
    27   22   24 1
    28   25   26 2
    29   25   29 1
    30   26   27 1
    31   27   28 1
    32   27   30 2
    33   27   31 2
    34   28   29 1
    35    1   32 1
    36    3   33 1
    37    4   34 1
    38    5   35 1
    39   10   36 1
    40   12   37 1
    41   17   38 1
    42   17   39 1
    43   18   40 1
    44   19   41 1
    45   20   42 1
    46   20   43 1
    47   21   44 1
    48   21   45 1
    49   22   46 1
    50   23   47 1
    51   23   48 1
    52   23   49 1
    53   24   50 1
    54   24   51 1
    55   24   52 1
    56   28   53 1
    57   28   54 1
    58   29   55 1
    59   29   56 1
@<TRIPOS>PROPERTY_DATA
  Total_Score	| 8.1046
  Crash		| -0.7789
  Polar		| 1.9289
  FragIndex	| 1
  FragRMSD	| 0.416

