@<TRIPOS>MOLECULE
BindingDB_50418580
 65 67 0 0 0
SMALL
NO_CHARGES


@<TRIPOS>ATOM
1    C        19.0138  -11.2940    0.9225  C     
2    C        18.6235  -10.7191    2.1484  C     
3    C        17.4237   -9.9913    2.2439  C     
4    C        16.5744   -9.8382    1.1217  C     
5    C        16.9916  -10.3885   -0.1090  C     
6    C        18.1936  -11.1126   -0.2087  C     
7    N        15.3896   -9.1562    1.1228  N     
8    C        14.5086   -8.9881    2.1358  C     
9    N        14.6885   -9.4983    3.3762  N     
10   C        13.8395   -9.3337    4.4201  C     
11   C        12.6273   -8.6089    4.1901  C     
12   C        12.4546   -8.0873    2.8793  C     
13   N        13.3780   -8.2842    1.9069  N     
14   S        20.4513  -12.2737    0.8158  S     
15   C        19.9110  -13.9925    0.8950  C     
16   O        21.1849  -12.0455   -0.6932  O     
17   N        21.5331  -11.9873    2.0299  N     
18   C        11.5445   -8.4056    5.2005  C     
19   F        10.3309   -8.0195    4.6753  F     
20   F        11.2707   -9.5704    5.8730  F     
21   F        11.8999   -7.4097    6.0766  F     
22   N        14.3778   -9.9254    5.5190  N     
23   C        14.1884   -9.7203    6.9238  C     
24   C        15.5514   -9.7205    7.6830  C     
25   C        15.8510  -11.2339    7.8566  C     
26   C        14.4944  -11.9642    7.9156  C     
27   C        13.4315  -10.9099    7.5558  C     
28   N        16.6839   -8.9502    7.0532  N     
29   C        17.8909   -8.7712    7.9160  C     
30   C        16.2949   -7.6671    6.4027  C     
31   C        22.7505  -11.3177    1.9264  C     
32   C        23.5066  -11.4609    3.2706  C     
33   C        22.5578   -9.8248    1.5523  C     
34   H        19.2050  -10.8283    2.9829  H     
35   H        17.1938   -9.5582    3.1389  H     
36   H        16.4060  -10.2886   -0.9433  H     
37   H        18.4531  -11.5224   -1.1095  H     
38   H        15.1283   -8.7863    0.2654  H     
39   H        11.6286   -7.5413    2.6291  H     
40   H        19.2295  -14.2021    0.0703  H     
41   H        19.3969  -14.1734    1.8391  H     
42   H        20.7769  -14.6502    0.8227  H     
43   H        20.6910  -12.6301   -1.3050  H     
44   H        15.0971  -10.5444    5.3159  H     
45   H        13.6640   -8.7836    7.1207  H     
46   H        15.3743   -9.2985    8.6800  H     
47   H        16.4247  -11.6002    6.9998  H     
48   H        16.4277  -11.4194    8.7671  H     
49   H        14.3091  -12.3690    8.9151  H     
50   H        14.4728  -12.7900    7.1981  H     
51   H        12.9350  -10.5686    8.4679  H     
52   H        12.6760  -11.3296    6.8866  H     
53   H        18.2860   -9.7323    8.2450  H     
54   H        18.6938   -8.2752    7.3652  H     
55   H        17.6489   -8.1717    8.7968  H     
56   H        15.9092   -6.9587    7.1407  H     
57   H        15.5317   -7.8361    5.6472  H     
58   H        17.1492   -7.2156    5.8931  H     
59   H        23.3556  -11.7995    1.1523  H     
60   H        22.9556  -10.9747    4.0793  H     
61   H        23.6372  -12.5162    3.5217  H     
62   H        24.4961  -11.0042    3.1991  H     
63   H        23.5242   -9.3179    1.5003  H     
64   H        21.9375   -9.3216    2.2971  H     
65   H        22.0755   -9.7350    0.5776  H     
@<TRIPOS>BOND
     1    1    2 2
     2    1    6 1
     3    1   14 1
     4    2    3 1
     5    3    4 2
     6    4    5 1
     7    4    7 1
     8    5    6 2
     9    7    8 1
    10    8    9 2
    11    8   13 1
    12    9   10 1
    13   10   11 2
    14   10   22 1
    15   11   12 1
    16   11   18 1
    17   12   13 2
    18   14   15 1
    19   14   16 1
    20   14   17 2
    21   17   31 1
    22   18   19 1
    23   18   20 1
    24   18   21 1
    25   22   23 1
    26   23   24 1
    27   23   27 1
    28   24   25 1
    29   24   28 1
    30   25   26 1
    31   26   27 1
    32   28   29 1
    33   28   30 1
    34   31   32 1
    35   31   33 1
    36    2   34 1
    37    3   35 1
    38    5   36 1
    39    6   37 1
    40    7   38 1
    41   12   39 1
    42   15   40 1
    43   15   41 1
    44   15   42 1
    45   16   43 1
    46   22   44 1
    47   23   45 1
    48   24   46 1
    49   25   47 1
    50   25   48 1
    51   26   49 1
    52   26   50 1
    53   27   51 1
    54   27   52 1
    55   29   53 1
    56   29   54 1
    57   29   55 1
    58   30   56 1
    59   30   57 1
    60   30   58 1
    61   31   59 1
    62   32   60 1
    63   32   61 1
    64   32   62 1
    65   33   63 1
    66   33   64 1
    67   33   65 1
@<TRIPOS>PROPERTY_DATA
  Total_Score	| 7.9501
  Crash		| -1.1318
  Polar		| 1.8946
  FragIndex	| 1
  FragRMSD	| 0.431

