@<TRIPOS>MOLECULE
BindingDB_50418578
 59 61 0 0 0
SMALL
NO_CHARGES


@<TRIPOS>ATOM
1    C        18.9954  -11.4318    1.3261  C     
2    C        18.3468  -11.1510    0.1051  C     
3    C        17.1537  -10.4021    0.0730  C     
4    C        16.5847   -9.9097    1.2629  C     
5    C        17.2793  -10.1147    2.4777  C     
6    C        18.4661  -10.8776    2.5129  C     
7    N        15.3993   -9.2232    1.1688  N     
8    C        14.4329   -9.0951    2.1104  C     
9    N        14.5219   -9.7418    3.2917  N     
10   C        13.6207   -9.5744    4.3029  C     
11   C        12.5065   -8.6829    4.1292  C     
12   C        12.4200   -8.0899    2.8411  C     
13   N        13.3613   -8.2948    1.8856  N     
14   S        20.4071  -12.4566    1.4122  S     
15   C        21.9176  -11.4690    1.5018  C     
16   O        20.3600  -13.2765    2.8919  O     
17   N        20.5366  -13.6130    0.2423  N     
18   C        11.3869   -8.4675    5.0960  C     
19   F        11.6026   -8.9370    6.3642  F     
20   F        10.2704   -9.1084    4.6268  F     
21   F        11.0953   -7.1294    5.2152  F     
22   N        13.9012  -10.3724    5.3584  N     
23   C        14.2648   -9.9778    6.6914  C     
24   C        15.5605  -10.7069    7.1725  C     
25   C        16.7221   -9.7723    6.7420  C     
26   C        16.1336   -8.3467    6.6656  C     
27   C        14.6214   -8.4854    6.9285  C     
28   N        15.6568  -12.1715    6.7984  N     
29   C        16.4280  -12.6242    5.5991  C     
30   C        15.7163  -13.1402    7.9324  C     
31   C        19.5516  -14.5320   -0.0713  C     
32   H        18.7314  -11.4972   -0.7740  H     
33   H        16.6963  -10.2472   -0.8305  H     
34   H        16.9176   -9.7142    3.3504  H     
35   H        18.9261  -11.0189    3.4207  H     
36   H        15.2463   -8.7790    0.3261  H     
37   H        11.6304   -7.5005    2.5975  H     
38   H        21.8348  -10.7470    2.3173  H     
39   H        22.7633  -12.1330    1.6919  H     
40   H        22.0713  -10.9436    0.5570  H     
41   H        19.8624  -14.1050    2.7304  H     
42   H        14.3118  -11.2133    5.0827  H     
43   H        13.4404  -10.2700    7.3481  H     
44   H        15.5321  -10.6249    8.2633  H     
45   H        17.5520   -9.8249    7.4572  H     
46   H        17.1203  -10.0458    5.7653  H     
47   H        16.3154   -7.9148    5.6780  H     
48   H        16.5934   -7.6997    7.4159  H     
49   H        14.4183   -8.2258    7.9686  H     
50   H        14.0453   -7.8000    6.3055  H     
51   H        16.0867  -13.6118    5.2734  H     
52   H        16.3041  -11.9550    4.7513  H     
53   H        17.4930  -12.6866    5.8371  H     
54   H        16.6617  -13.0272    8.4651  H     
55   H        14.8876  -12.9597    8.6198  H     
56   H        15.6384  -14.1783    7.5814  H     
57   H        18.7526  -14.0519   -0.6397  H     
58   H        19.9905  -15.3159   -0.6894  H     
59   H        19.1328  -14.9844    0.8308  H     
@<TRIPOS>BOND
     1    1    2 2
     2    1    6 1
     3    1   14 1
     4    2    3 1
     5    3    4 2
     6    4    5 1
     7    4    7 1
     8    5    6 2
     9    7    8 1
    10    8    9 2
    11    8   13 1
    12    9   10 1
    13   10   11 2
    14   10   22 1
    15   11   12 1
    16   11   18 1
    17   12   13 2
    18   14   15 1
    19   14   16 1
    20   14   17 2
    21   17   31 1
    22   18   19 1
    23   18   20 1
    24   18   21 1
    25   22   23 1
    26   23   24 1
    27   23   27 1
    28   24   25 1
    29   24   28 1
    30   25   26 1
    31   26   27 1
    32   28   29 1
    33   28   30 1
    34    2   32 1
    35    3   33 1
    36    5   34 1
    37    6   35 1
    38    7   36 1
    39   12   37 1
    40   15   38 1
    41   15   39 1
    42   15   40 1
    43   16   41 1
    44   22   42 1
    45   23   43 1
    46   24   44 1
    47   25   45 1
    48   25   46 1
    49   26   47 1
    50   26   48 1
    51   27   49 1
    52   27   50 1
    53   29   51 1
    54   29   52 1
    55   29   53 1
    56   30   54 1
    57   30   55 1
    58   30   56 1
    59   31   57 1
    60   31   58 1
    61   31   59 1
@<TRIPOS>PROPERTY_DATA
  Total_Score	| 8.0449
  Crash		| -1.0005
  Polar		| 2.8787
  FragIndex	| 1
  FragRMSD	| 0.614

