@<TRIPOS>MOLECULE
BindingDB_50246327
 57 59 0 0 0
SMALL
NO_CHARGES


@<TRIPOS>ATOM
1    C        17.1430  -10.3114    0.0894  C     
2    C        16.6098   -9.7721    1.2783  C     
3    C        17.4153   -9.7918    2.4384  C     
4    C        18.7031  -10.3590    2.4151  C     
5    N        15.3709   -9.1978    1.1983  N     
6    C        14.4497   -9.0052    2.1679  C     
7    N        14.5863   -9.4587    3.4425  N     
8    C        13.6660   -9.2609    4.4229  C     
9    C        12.4730   -8.5495    4.0982  C     
10   C        12.3464   -8.1022    2.7600  C     
11   N        13.3110   -8.3435    1.8427  N     
12   N        13.9131   -9.7364    5.6785  N     
13   C        11.4022   -8.2860    5.1052  C     
14   F        10.2960   -7.6337    4.6109  F     
15   F        10.9380   -9.4679    5.6350  F     
16   F        11.8973   -7.5061    6.1234  F     
17   C        14.5393  -11.9974    6.4180  C     
18   C        15.0246  -10.5537    6.0963  C     
19   C        15.7456  -10.0160    7.3753  C     
20   C        16.1633  -11.3264    8.0887  C     
21   C        15.0247  -12.3249    7.8403  C     
22   N        16.9037   -9.0819    7.1122  N     
23   C        16.4831   -7.7491    6.5809  C     
24   C        17.8216   -8.8928    8.2812  C     
25   C        18.4338  -10.8671    0.0600  C     
26   C        19.2291  -10.8974    1.2213  C     
27   S        20.8187  -11.6193    1.1949  S     
28   N        20.8430  -13.2879    1.4280  N     
29   O        21.5111  -11.3172   -0.2024  O     
30   O        21.7229  -10.9866    2.3414  O     
31   C        19.6732  -14.0835    1.3428  C     
32   H        16.6057  -10.2872   -0.7786  H     
33   H        17.0777   -9.3652    3.3019  H     
34   H        19.2636  -10.3418    3.2762  H     
35   H        15.1145   -8.8999    0.3084  H     
36   H        11.5152   -7.6070    2.4461  H     
37   H        13.2178   -9.6076    6.3409  H     
38   H        13.4539  -12.0930    6.3615  H     
39   H        14.9759  -12.7063    5.7015  H     
40   H        15.7814  -10.6268    5.3064  H     
41   H        15.0134   -9.5149    8.0207  H     
42   H        17.0924  -11.7175    7.6615  H     
43   H        16.3036  -11.1808    9.1624  H     
44   H        14.2194  -12.1563    8.5608  H     
45   H        15.3700  -13.3562    7.9269  H     
46   H        17.4653   -9.5175    6.3797  H     
47   H        15.9058   -7.8545    5.6643  H     
48   H        17.3582   -7.1424    6.3263  H     
49   H        15.8813   -7.1994    7.3089  H     
50   H        17.2781   -8.5207    9.1544  H     
51   H        18.6252   -8.1895    8.0450  H     
52   H        18.3099   -9.8314    8.5472  H     
53   H        18.7925  -11.2594   -0.8091  H     
54   H        21.7049  -13.7339    1.3957  H     
55   H        18.9420  -13.7685    2.0937  H     
56   H        19.9409  -15.1263    1.5327  H     
57   H        19.2366  -14.0082    0.3421  H     
@<TRIPOS>BOND
     1    1    2 2
     2    1   25 1
     3    2    3 1
     4    2    5 1
     5    3    4 2
     6    4   26 1
     7    5    6 1
     8    6    7 2
     9    6   11 1
    10    7    8 1
    11    8    9 2
    12    8   12 1
    13    9   10 1
    14    9   13 1
    15   10   11 2
    16   18   12 1
    17   13   14 1
    18   13   15 1
    19   13   16 1
    20   17   18 1
    21   17   21 1
    22   18   19 1
    23   19   20 1
    24   19   22 1
    25   20   21 1
    26   22   23 1
    27   22   24 1
    28   25   26 2
    29   26   27 1
    30   27   28 1
    31   27   29 2
    32   27   30 2
    33   28   31 1
    34    1   32 1
    35    3   33 1
    36    4   34 1
    37    5   35 1
    38   10   36 1
    39   12   37 1
    40   17   38 1
    41   17   39 1
    42   18   40 1
    43   19   41 1
    44   20   42 1
    45   20   43 1
    46   21   44 1
    47   21   45 1
    48   22   46 1
    49   23   47 1
    50   23   48 1
    51   23   49 1
    52   24   50 1
    53   24   51 1
    54   24   52 1
    55   25   53 1
    56   28   54 1
    57   31   55 1
    58   31   56 1
    59   31   57 1
@<TRIPOS>PROPERTY_DATA
  Total_Score	| 7.9567
  Crash		| -0.9619
  Polar		| 1.9272
  FragIndex	| 1
  FragRMSD	| 1.121

