@<TRIPOS>MOLECULE
BindingDB_50418581
 56 58 0 0 0
SMALL
NO_CHARGES


@<TRIPOS>ATOM
1    C        18.8910  -11.4634    1.4923  C     
2    C        18.4123  -10.7610    2.6229  C     
3    C        17.2689   -9.9413    2.5249  C     
4    C        16.5559   -9.8475    1.3044  C     
5    C        17.0869  -10.4895    0.1611  C     
6    C        18.2456  -11.2848    0.2496  C     
7    N        15.3678   -9.1941    1.1918  N     
8    C        14.4374   -9.0269    2.1642  C     
9    N        14.5745   -9.5042    3.4290  N     
10   C        13.6714   -9.2691    4.4230  C     
11   C        12.5016   -8.5178    4.1107  C     
12   C        12.3779   -8.0513    2.7853  C     
13   N        13.3338   -8.3107    1.8689  N     
14   S        20.1997  -12.6139    1.6077  S     
15   C        21.0186  -12.6624    3.2137  C     
16   O        21.3515  -12.2391    0.4251  O     
17   N        19.6462  -14.1277    1.2458  N     
18   C        11.4361   -8.2087    5.1154  C     
19   F        10.2255   -7.8436    4.5604  F     
20   F        11.8425   -7.1656    5.9269  F     
21   F        11.1274   -9.2965    5.9177  F     
22   N        13.9256   -9.7294    5.6806  N     
23   C        14.9064  -10.7140    6.0612  C     
24   C        16.1924  -10.1498    6.7196  C     
25   C        16.7461  -11.3550    7.5365  C     
26   C        15.5186  -12.1772    7.9772  C     
27   C        14.3403  -11.7322    7.0753  C     
28   N        15.9970   -8.8600    7.4784  N     
29   C        16.6771   -7.6641    6.9094  C     
30   C        15.9446   -8.8769    8.9673  C     
31   H        18.8887  -10.8448    3.5241  H     
32   H        16.9306   -9.4230    3.3479  H     
33   H        16.6065  -10.4081   -0.7401  H     
34   H        18.5828  -11.7694   -0.5898  H     
35   H        15.1516   -8.8565    0.3122  H     
36   H        11.5805   -7.4811    2.4926  H     
37   H        21.4316  -11.6811    3.4456  H     
38   H        20.2989  -12.9450    3.9857  H     
39   H        21.8276  -13.3945    3.1972  H     
40   H        21.7527  -11.3988    0.7288  H     
41   H        19.2650  -14.6538    1.9217  H     
42   H        13.3649   -9.3930    6.3872  H     
43   H        15.2158  -11.2828    5.1809  H     
44   H        16.9108   -9.9641    5.9078  H     
45   H        17.3792  -11.9787    6.8963  H     
46   H        17.3491  -11.0482    8.3990  H     
47   H        15.2843  -11.9853    9.0284  H     
48   H        15.7024  -13.2550    7.8701  H     
49   H        13.5498  -11.2914    7.6930  H     
50   H        13.9067  -12.5878    6.5445  H     
51   H        17.7643   -7.7954    6.9434  H     
52   H        16.3708   -7.5165    5.8712  H     
53   H        16.4185   -6.7510    7.4568  H     
54   H        15.5606   -7.9271    9.3481  H     
55   H        16.9381   -9.0409    9.3855  H     
56   H        15.2741   -9.6538    9.3205  H     
@<TRIPOS>BOND
     1    1    2 2
     2    1    6 1
     3    1   14 1
     4    2    3 1
     5    3    4 2
     6    4    5 1
     7    4    7 1
     8    5    6 2
     9    7    8 1
    10    8    9 2
    11    8   13 1
    12    9   10 1
    13   10   11 2
    14   10   22 1
    15   11   12 1
    16   11   18 1
    17   12   13 2
    18   14   15 1
    19   14   16 1
    20   14   17 2
    21   18   19 1
    22   18   20 1
    23   18   21 1
    24   22   23 1
    25   23   24 1
    26   23   27 1
    27   24   25 1
    28   24   28 1
    29   25   26 1
    30   26   27 1
    31   28   29 1
    32   28   30 1
    33    2   31 1
    34    3   32 1
    35    5   33 1
    36    6   34 1
    37    7   35 1
    38   12   36 1
    39   15   37 1
    40   15   38 1
    41   15   39 1
    42   16   40 1
    43   17   41 1
    44   22   42 1
    45   23   43 1
    46   24   44 1
    47   25   45 1
    48   25   46 1
    49   26   47 1
    50   26   48 1
    51   27   49 1
    52   27   50 1
    53   29   51 1
    54   29   52 1
    55   29   53 1
    56   30   54 1
    57   30   55 1
    58   30   56 1
@<TRIPOS>PROPERTY_DATA
  Total_Score	| 7.1250
  Crash		| -0.9085
  Polar		| 3.1585
  FragIndex	| 1
  FragRMSD	| 0.531

