@<TRIPOS>MOLECULE
BindingDB_50345900
 61 64 0 0 0
SMALL
NO_CHARGES


@<TRIPOS>ATOM
1    C        19.1197  -11.0626    1.0402  C     
2    C        18.2535  -11.0345   -0.0710  C     
3    C        16.9905  -10.4215    0.0304  C     
4    C        16.5576   -9.8165    1.2335  C     
5    C        17.4123   -9.9122    2.3612  C     
6    C        18.6826  -10.5096    2.2622  C     
7    N        15.3279   -9.2053    1.2040  N     
8    C        14.4102   -9.0136    2.1831  C     
9    N        14.5596   -9.4014    3.4748  N     
10   C        13.6429   -9.1575    4.4554  C     
11   C        12.4508   -8.4564    4.1213  C     
12   C        12.3098   -8.0691    2.7656  C     
13   N        13.2767   -8.3470    1.8551  N     
14   S        20.6832  -11.8175    0.9073  S     
15   N        21.9399  -10.8127    0.4158  N     
16   O        21.1192  -12.6299    2.2023  O     
17   O        20.5542  -12.9315   -0.2178  O     
18   C        11.3895   -8.1519    5.1309  C     
19   F        10.2931   -7.4868    4.6363  F     
20   F        10.9183   -9.3184    5.6812  F     
21   F        11.9048   -7.3612    6.1300  F     
22   N        13.8836   -9.5843    5.7247  N     
23   C        14.8971  -10.5029    6.1661  C     
24   C        15.7585  -10.0094    7.3656  C     
25   C        16.2495  -11.3597    7.9638  C     
26   C        15.1756  -12.4309    7.6803  C     
27   C        14.1975  -11.7826    6.6831  C     
28   N        16.8746   -9.0479    7.0165  N     
29   C        16.4000   -7.7420    6.4662  C     
30   C        17.8402   -8.7877    8.1344  C     
31   C        22.6620  -10.0131    1.3401  C     
32   C        22.8802   -8.5431    0.9596  C     
33   C        24.0429   -9.5339    0.8671  C     
34   H        18.5361  -11.4488   -0.9651  H     
35   H        16.3955  -10.3985   -0.7998  H     
36   H        17.1187   -9.5722    3.2749  H     
37   H        19.2780  -10.5491    3.0944  H     
38   H        15.1155   -8.7695    0.3605  H     
39   H        11.4812   -7.5687    2.4415  H     
40   H        22.0897  -10.6881   -0.5336  H     
41   H        13.2617   -9.2936    6.4094  H     
42   H        15.5742  -10.7857    5.3524  H     
43   H        15.0951   -9.5404    8.1021  H     
44   H        17.1786  -11.6633    7.4748  H     
45   H        16.4358  -11.2694    9.0378  H     
46   H        15.6314  -13.3310    7.2506  H     
47   H        14.6562  -12.7146    8.6001  H     
48   H        13.2714  -11.5313    7.2129  H     
49   H        13.9505  -12.4596    5.8617  H     
50   H        17.4155   -9.4938    6.2725  H     
51   H        15.8182   -7.8895    5.5623  H     
52   H        17.2466   -7.1100    6.1817  H     
53   H        15.7872   -7.2002    7.1941  H     
54   H        17.3297   -8.3759    9.0093  H     
55   H        18.6206   -8.0865    7.8254  H     
56   H        18.3594   -9.6994    8.4283  H     
57   H        22.5999  -10.2137    2.4112  H     
58   H        22.4665   -8.2176    0.0043  H     
59   H        22.9376   -7.8361    1.7886  H     
60   H        24.8081   -9.4183    1.6353  H     
61   H        24.3403   -9.8039   -0.1459  H     
@<TRIPOS>BOND
     1    1    2 2
     2    1    6 1
     3    1   14 1
     4    2    3 1
     5    3    4 2
     6    4    5 1
     7    4    7 1
     8    5    6 2
     9    7    8 1
    10    8    9 2
    11    8   13 1
    12    9   10 1
    13   10   11 2
    14   10   22 1
    15   11   12 1
    16   11   18 1
    17   12   13 2
    18   14   15 1
    19   14   16 2
    20   14   17 2
    21   15   31 1
    22   18   19 1
    23   18   20 1
    24   18   21 1
    25   23   22 1
    26   23   24 1
    27   23   27 1
    28   24   25 1
    29   24   28 1
    30   25   26 1
    31   26   27 1
    32   28   29 1
    33   28   30 1
    34   31   32 1
    35   31   33 1
    36   32   33 1
    37    2   34 1
    38    3   35 1
    39    5   36 1
    40    6   37 1
    41    7   38 1
    42   12   39 1
    43   15   40 1
    44   22   41 1
    45   23   42 1
    46   24   43 1
    47   25   44 1
    48   25   45 1
    49   26   46 1
    50   26   47 1
    51   27   48 1
    52   27   49 1
    53   28   50 1
    54   29   51 1
    55   29   52 1
    56   29   53 1
    57   30   54 1
    58   30   55 1
    59   30   56 1
    60   31   57 1
    61   32   58 1
    62   32   59 1
    63   33   60 1
    64   33   61 1
@<TRIPOS>PROPERTY_DATA
  Total_Score	| 8.6150
  Crash		| -0.9227
  Polar		| 2.0543
  FragIndex	| 1
  FragRMSD	| 0.522

