@<TRIPOS>MOLECULE
BindingDB_50246285
 55 57 0 0 0
SMALL
NO_CHARGES


@<TRIPOS>ATOM
1    C        16.9228  -10.8681    2.3536  C     
2    C        16.3949  -10.1874    1.2305  C     
3    C        17.1302  -10.2707    0.0246  C     
4    C        18.3628  -10.9518   -0.0385  C     
5    N        15.2402   -9.4340    1.1925  N     
6    C        14.3346   -9.1359    2.1568  C     
7    N        14.4428   -9.5450    3.4428  N     
8    C        13.5815   -9.2426    4.4500  C     
9    C        12.4580   -8.4276    4.1383  C     
10   C        12.3301   -8.0180    2.7838  C     
11   N        13.2574   -8.3670    1.8479  N     
12   N        13.8170   -9.7218    5.7027  N     
13   C        11.4622   -8.0210    5.1772  C     
14   F        10.4326   -7.2322    4.7175  F     
15   F        10.8742   -9.1389    5.7187  F     
16   F        12.0813   -7.3077    6.1791  F     
17   C        14.3046  -12.0013    6.4868  C     
18   C        14.8802  -10.6094    6.1143  C     
19   C        15.7214  -10.1231    7.3352  C     
20   C        16.2315  -11.4768    7.9035  C     
21   C        15.0838  -12.4833    7.7240  C     
22   N        16.8153   -9.1318    6.9900  N     
23   C        16.2959   -7.8209    6.4942  C     
24   C        17.8241   -8.8882    8.0731  C     
25   C        18.1500  -11.5467    2.2991  C     
26   C        18.8896  -11.5794    1.1045  C     
27   S        20.4010  -12.4444    1.0325  S     
28   C        20.0901  -14.1756    0.6461  C     
29   O        21.4098  -11.8313   -0.0325  O     
30   O        21.1057  -12.4128    2.4588  O     
31   H        16.4283  -10.8997    3.2298  H     
32   H        16.7677   -9.8377   -0.8254  H     
33   H        18.8637  -10.9848   -0.9284  H     
34   H        15.0670   -9.0124    0.3357  H     
35   H        11.5386   -7.4437    2.4872  H     
36   H        13.1703   -9.4909    6.3844  H     
37   H        13.2391  -11.9407    6.7178  H     
38   H        14.4344  -12.6995    5.6553  H     
39   H        15.5891  -10.7575    5.3008  H     
40   H        15.0455   -9.6821    8.0764  H     
41   H        17.0996  -11.8163    7.3324  H     
42   H        16.5139  -11.4032    8.9550  H     
43   H        14.4291  -12.4829    8.6024  H     
44   H        15.4604  -13.5010    7.5790  H     
45   H        17.3392   -9.5446    6.2146  H     
46   H        15.7485   -7.9551    5.5668  H     
47   H        17.1082   -7.1270    6.2640  H     
48   H        15.6365   -7.3514    7.2289  H     
49   H        17.3515   -8.5285    8.9912  H     
50   H        18.5692   -8.1536    7.7554  H     
51   H        18.3765   -9.8000    8.2937  H     
52   H        18.4910  -12.0225    3.1380  H     
53   H        19.4155  -14.5835    1.3990  H     
54   H        21.0315  -14.7270    0.6642  H     
55   H        19.6329  -14.2743   -0.3400  H     
@<TRIPOS>BOND
     1    1    2 2
     2    1   25 1
     3    2    3 1
     4    2    5 1
     5    3    4 2
     6    4   26 1
     7    5    6 1
     8    6    7 2
     9    6   11 1
    10    7    8 1
    11    8    9 2
    12    8   12 1
    13    9   10 1
    14    9   13 1
    15   10   11 2
    16   18   12 1
    17   13   14 1
    18   13   15 1
    19   13   16 1
    20   17   18 1
    21   17   21 1
    22   18   19 1
    23   19   20 1
    24   19   22 1
    25   20   21 1
    26   22   23 1
    27   22   24 1
    28   25   26 2
    29   26   27 1
    30   27   28 1
    31   27   29 2
    32   27   30 2
    33    1   31 1
    34    3   32 1
    35    4   33 1
    36    5   34 1
    37   10   35 1
    38   12   36 1
    39   17   37 1
    40   17   38 1
    41   18   39 1
    42   19   40 1
    43   20   41 1
    44   20   42 1
    45   21   43 1
    46   21   44 1
    47   22   45 1
    48   23   46 1
    49   23   47 1
    50   23   48 1
    51   24   49 1
    52   24   50 1
    53   24   51 1
    54   25   52 1
    55   28   53 1
    56   28   54 1
    57   28   55 1
@<TRIPOS>PROPERTY_DATA
  Total_Score	| 7.7083
  Crash		| -1.0456
  Polar		| 1.9525
  FragIndex	| 1
  FragRMSD	| 0.531

