@<TRIPOS>MOLECULE
BindingDB_50246284
 58 61 0 0 0
SMALL
NO_CHARGES


@<TRIPOS>ATOM
1    C        17.1877  -10.1999    0.2202  C     
2    C        16.5711   -9.7973    1.4319  C     
3    C        17.2910   -9.9811    2.6448  C     
4    C        18.5634  -10.5817    2.6571  C     
5    N        15.3464   -9.1885    1.3139  N     
6    C        14.3826   -8.9767    2.2429  C     
7    N        14.4692   -9.4049    3.5229  N     
8    C        13.5382   -9.1643    4.4823  C     
9    C        12.3724   -8.4322    4.1312  C     
10   C        12.2761   -8.0223    2.7776  C     
11   N        13.2662   -8.2950    1.8885  N     
12   N        13.7745   -9.6110    5.7448  N     
13   C        11.3027   -8.1194    5.1263  C     
14   F        10.2315   -7.4211    4.6220  F     
15   F        10.7865   -9.2792    5.6491  F     
16   F        11.8177   -7.3616    6.1498  F     
17   C        14.1851  -11.9007    6.5359  C     
18   C        14.8054  -10.5437    6.1103  C     
19   C        15.7164  -10.0820    7.2848  C     
20   C        16.2052  -11.4490    7.8328  C     
21   C        14.9847  -12.3789    7.7625  C     
22   N        16.8252   -9.1334    6.8803  N     
23   C        16.3268   -7.8169    6.3694  C     
24   C        17.8497   -8.9137    7.9495  C     
25   C        18.4756  -10.7728    0.2271  C     
26   C        19.1390  -10.9720    1.4393  C     
27   S        20.6846  -11.6819    1.1974  S     
28   N        20.5384  -11.6084   -0.4790  N     
29   C        19.2542  -11.1820   -0.9555  C     
30   O        21.7347  -10.6545    1.8117  O     
31   O        20.5848  -13.1474    1.8106  O     
32   C        21.5555  -12.1452   -1.3217  C     
33   H        16.7095  -10.0651   -0.6750  H     
34   H        16.9263   -9.6524    3.5366  H     
35   H        19.0729  -10.7051    3.5363  H     
36   H        15.1450   -8.8563    0.4243  H     
37   H        11.4657   -7.5006    2.4412  H     
38   H        13.2006   -9.2872    6.4564  H     
39   H        13.1316  -11.7952    6.8102  H     
40   H        14.2488  -12.6222    5.7121  H     
41   H        15.4702  -10.7099    5.2570  H     
42   H        15.0958   -9.6127    8.0576  H     
43   H        17.0022  -11.8531    7.2015  H     
44   H        16.5672  -11.3703    8.8608  H     
45   H        14.3884  -12.2598    8.6713  H     
46   H        15.2794  -13.4277    7.6712  H     
47   H        17.3176   -9.5726    6.0970  H     
48   H        15.7270   -7.9504    5.4690  H     
49   H        17.1572   -7.1632    6.0872  H     
50   H        15.7235   -7.3073    7.1307  H     
51   H        17.3856   -8.5947    8.8879  H     
52   H        18.5848   -8.1630    7.6526  H     
53   H        18.4078   -9.8325    8.1323  H     
54   H        18.7437  -11.9995   -1.4721  H     
55   H        19.3722  -10.3305   -1.6320  H     
56   H        22.5395  -11.8182   -0.9802  H     
57   H        21.4281  -11.8113   -2.3536  H     
58   H        21.5144  -13.2359   -1.2976  H     
@<TRIPOS>BOND
     1    1    2 2
     2    1   25 1
     3    2    3 1
     4    2    5 1
     5    3    4 2
     6    4   26 1
     7    5    6 1
     8    6    7 2
     9    6   11 1
    10    7    8 1
    11    8    9 2
    12    8   12 1
    13    9   10 1
    14    9   13 1
    15   10   11 2
    16   18   12 1
    17   13   14 1
    18   13   15 1
    19   13   16 1
    20   17   18 1
    21   17   21 1
    22   18   19 1
    23   19   20 1
    24   19   22 1
    25   20   21 1
    26   22   23 1
    27   22   24 1
    28   25   26 2
    29   25   29 1
    30   26   27 1
    31   27   28 1
    32   27   30 2
    33   27   31 2
    34   28   29 1
    35   28   32 1
    36    1   33 1
    37    3   34 1
    38    4   35 1
    39    5   36 1
    40   10   37 1
    41   12   38 1
    42   17   39 1
    43   17   40 1
    44   18   41 1
    45   19   42 1
    46   20   43 1
    47   20   44 1
    48   21   45 1
    49   21   46 1
    50   22   47 1
    51   23   48 1
    52   23   49 1
    53   23   50 1
    54   24   51 1
    55   24   52 1
    56   24   53 1
    57   29   54 1
    58   29   55 1
    59   32   56 1
    60   32   57 1
    61   32   58 1
@<TRIPOS>PROPERTY_DATA
  Total_Score	| 8.0637
  Crash		| -0.8251
  Polar		| 2.0314
  FragIndex	| 1
  FragRMSD	| 1.031

