@<TRIPOS>MOLECULE
BindingDB_50246379
 55 58 0 0 0
SMALL
NO_CHARGES


@<TRIPOS>ATOM
1    C        17.1872  -10.3725    0.3022  C     
2    C        16.5714   -9.7873    1.4375  C     
3    C        17.2856   -9.8111    2.6651  C     
4    C        18.5314  -10.4588    2.7821  C     
5    N        15.3469   -9.1852    1.2717  N     
6    C        14.3705   -8.9940    2.1978  C     
7    N        14.4814   -9.4631    3.4632  N     
8    C        13.5750   -9.2334    4.4479  C     
9    C        12.4206   -8.4649    4.1489  C     
10   C        12.3002   -8.0208    2.8067  C     
11   N        13.2619   -8.2811    1.8832  N     
12   N        13.8324   -9.7182    5.6927  N     
13   C        11.3783   -8.1678    5.1781  C     
14   F        10.3092   -7.4224    4.7351  F     
15   F        10.8544   -9.3458    5.6603  F     
16   F        11.9305   -7.4663    6.2258  F     
17   C        18.4456  -11.0030    0.4072  C     
18   C        19.1004  -11.0484    1.6461  C     
19   N        20.2777  -11.6805    1.6358  N     
20   S        20.6489  -12.2932    0.1241  S     
21   C        19.1776  -11.6514   -0.6924  C     
22   O        21.9489  -11.5914   -0.4640  O     
23   O        20.5991  -13.8827    0.1586  O     
24   C        14.9336  -10.5611    6.1013  C     
25   C        15.6968  -10.0303    7.3570  C     
26   C        16.1361  -11.3485    8.0485  C     
27   C        14.9745  -12.3290    7.8501  C     
28   C        14.4070  -11.9805    6.4622  C     
29   N        16.8306   -9.0690    7.0614  N     
30   C        16.3610   -7.7640    6.5021  C     
31   C        17.7587   -8.8196    8.2105  C     
32   H        16.7136  -10.3534   -0.6053  H     
33   H        16.9161   -9.3309    3.4831  H     
34   H        19.0237  -10.4846    3.6784  H     
35   H        15.1605   -8.8699    0.3718  H     
36   H        11.5038   -7.4580    2.5194  H     
37   H        13.1765   -9.5279    6.3771  H     
38   H        20.8252  -11.8218    2.4231  H     
39   H        18.5959  -12.4620   -1.1273  H     
40   H        19.4482  -10.9272   -1.4596  H     
41   H        15.6699  -10.6790    5.2986  H     
42   H        14.9771   -9.5373    8.0252  H     
43   H        17.0373  -11.7447    7.5688  H     
44   H        16.3348  -11.2028    9.1133  H     
45   H        15.3145  -13.3675    7.9019  H     
46   H        14.2124  -12.1687    8.6184  H     
47   H        13.3124  -12.0228    6.4915  H     
48   H        14.7518  -12.7118    5.7223  H     
49   H        17.3994   -9.5065    6.3318  H     
50   H        15.8536   -7.9169    5.5519  H     
51   H        17.1986   -7.0937    6.2985  H     
52   H        15.6749   -7.2625    7.1885  H     
53   H        17.2234   -8.4144    9.0723  H     
54   H        18.5486   -8.1165    7.9312  H     
55   H        18.2616   -9.7382    8.5080  H     
@<TRIPOS>BOND
     1    1    2 2
     2    1   17 1
     3    2    3 1
     4    2    5 1
     5    3    4 2
     6    4   18 1
     7    5    6 1
     8    6    7 2
     9    6   11 1
    10    7    8 1
    11    8    9 2
    12    8   12 1
    13    9   10 1
    14    9   13 1
    15   10   11 2
    16   24   12 1
    17   13   14 1
    18   13   15 1
    19   13   16 1
    20   17   18 2
    21   17   21 1
    22   18   19 1
    23   19   20 1
    24   20   21 1
    25   20   22 2
    26   20   23 2
    27   24   25 1
    28   24   28 1
    29   25   26 1
    30   25   29 1
    31   26   27 1
    32   27   28 1
    33   29   30 1
    34   29   31 1
    35    1   32 1
    36    3   33 1
    37    4   34 1
    38    5   35 1
    39   10   36 1
    40   12   37 1
    41   19   38 1
    42   21   39 1
    43   21   40 1
    44   24   41 1
    45   25   42 1
    46   26   43 1
    47   26   44 1
    48   27   45 1
    49   27   46 1
    50   28   47 1
    51   28   48 1
    52   29   49 1
    53   30   50 1
    54   30   51 1
    55   30   52 1
    56   31   53 1
    57   31   54 1
    58   31   55 1
@<TRIPOS>PROPERTY_DATA
  Total_Score	| 7.7802
  Crash		| -0.8744
  Polar		| 2.0630
  FragIndex	| 1
  FragRMSD	| 0.567

