@<TRIPOS>MOLECULE
BindingDB_26656
 32 34 0 0 0
SMALL
NO_CHARGES


@<TRIPOS>ATOM
1    C        74.2121   36.5913    2.5691  C     
2    C        73.7148   38.9732    2.6077  C     
3    C        73.8656   39.0365    1.2102  C     
4    C        74.3699   36.6488    1.1726  C     
5    C        74.2006   37.8712    0.4725  C     
6    C        74.3986   37.8297   -0.9107  C     
7    C        74.7142   36.6645   -1.5452  C     
8    C        74.8498   35.5077   -0.8505  C     
9    O        74.6985   35.4909    0.5000  O     
10   O        74.3023   38.8467   -1.5886  O     
11   C        75.1778   34.2809   -1.4466  C     
12   C        76.3234   32.0956   -1.3230  C     
13   C        75.9777   33.3386   -0.7517  C     
14   C        74.7253   33.9152   -2.7400  C     
15   C        75.0828   32.6830   -3.3274  C     
16   C        75.8801   31.7641   -2.6172  C     
17   C        73.8829   37.7552    3.2866  C     
18   O        76.2393   30.5676   -3.1478  O     
19   O        77.0936   31.1975   -0.6481  O     
20   O        73.7131   37.7313    4.6276  O     
21   O        73.6903   40.2425    0.6192  O     
22   O        74.6109   32.3941   -4.5662  O     
23   H        74.3405   35.7033    3.0584  H     
24   H        73.4752   39.8137    3.1396  H     
25   H        74.8842   36.6818   -2.5264  H     
26   H        76.3412   33.5580    0.1824  H     
27   H        74.1127   34.5394   -3.2691  H     
28   H        75.8286   30.4249   -4.0166  H     
29   H        77.0375   31.4398    0.3049  H     
30   H        72.8641   37.2560    4.7605  H     
31   H        72.9656   40.1011   -0.0270  H     
32   H        75.3792   32.1676   -5.1305  H     
@<TRIPOS>BOND
     1    1    4 1
     2    1   17 2
     3    2    3 2
     4    2   17 1
     5    3    5 1
     6    3   21 1
     7    4    5 2
     8    4    9 1
     9    5    6 1
    10    6    7 1
    11    6   10 2
    12    7    8 2
    13    8    9 1
    14    8   11 1
    15   11   13 2
    16   11   14 1
    17   12   13 1
    18   12   16 2
    19   12   19 1
    20   14   15 2
    21   15   16 1
    22   15   22 1
    23   16   18 1
    24   17   20 1
    25    1   23 1
    26    2   24 1
    27    7   25 1
    28   13   26 1
    29   14   27 1
    30   18   28 1
    31   19   29 1
    32   20   30 1
    33   21   31 1
    34   22   32 1
@<TRIPOS>PROPERTY_DATA
  Total_Score	| 5.3556
  Crash		| -1.0107
  Polar		| 2.7921
  FragIndex	| 1
  FragRMSD	| 0.294

