@<TRIPOS>MOLECULE
BindingDB_26660
 29 31 0 0 0
SMALL
NO_CHARGES


@<TRIPOS>ATOM
1    C        74.3273   36.6338    2.4450  C     
2    C        73.8321   39.0187    2.5383  C     
3    C        73.8913   39.0898    1.1366  C     
4    C        74.3898   36.7014    1.0427  C     
5    C        74.1762   37.9316    0.3741  C     
6    C        74.2757   37.9191   -1.0154  C     
7    C        74.5910   36.7702   -1.6999  C     
8    C        74.7761   35.6023   -1.0253  C     
9    O        74.6694   35.5584    0.3289  O     
10   O        74.1092   38.9638   -1.6371  O     
11   C        75.0935   34.3755   -1.6257  C     
12   C        74.8546   32.7229   -3.4430  C     
13   C        74.5285   33.9625   -2.8612  C     
14   C        75.9756   33.4693   -0.9767  C     
15   C        76.2935   32.2214   -1.5468  C     
16   C        75.7332   31.8505   -2.7808  C     
17   C        74.0546   37.7938    3.1951  C     
18   O        74.0085   37.7211    4.5453  O     
19   O        74.8228   36.8359   -3.0204  O     
20   H        74.4828   35.7406    2.9188  H     
21   H        73.6256   39.8580    3.0797  H     
22   H        73.7348   39.9885    0.6747  H     
23   H        74.4343   32.4540   -4.3361  H     
24   H        73.8461   34.5427   -3.3480  H     
25   H        76.4107   33.7091   -0.0834  H     
26   H        76.9313   31.5869   -1.0639  H     
27   H        75.9576   30.9429   -3.1973  H     
28   H        74.8699   38.0870    4.8375  H     
29   H        74.3646   37.6312   -3.3775  H     
@<TRIPOS>BOND
     1    1    4 1
     2    1   17 2
     3    2    3 2
     4    2   17 1
     5    3    5 1
     6    4    5 2
     7    4    9 1
     8    5    6 1
     9    6    7 1
    10    6   10 2
    11    7    8 2
    12    7   19 1
    13    8    9 1
    14    8   11 1
    15   11   13 2
    16   11   14 1
    17   12   13 1
    18   12   16 2
    19   14   15 2
    20   15   16 1
    21   17   18 1
    22    1   20 1
    23    2   21 1
    24    3   22 1
    25   12   23 1
    26   13   24 1
    27   14   25 1
    28   15   26 1
    29   16   27 1
    30   18   28 1
    31   19   29 1
@<TRIPOS>PROPERTY_DATA
  Total_Score	| 4.7457
  Crash		| -0.4359
  Polar		| 1.0537
  FragIndex	| 1
  FragRMSD	| 0.137

