@<TRIPOS>MOLECULE
BindingDB_7462
 31 33 0 0 0
SMALL
NO_CHARGES


@<TRIPOS>ATOM
1    C        73.9501   39.0610    1.2244  C     
2    C        73.8101   38.9203    2.6195  C     
3    C        73.9654   37.6552    3.2224  C     
4    C        74.2284   36.5285    2.4212  C     
5    O        73.8361   37.5208    4.5662  O     
6    C        74.2141   37.9300    0.4015  C     
7    C        74.3440   36.6625    1.0281  C     
8    C        74.3473   37.9397   -0.9980  C     
9    C        74.7320   35.6007   -1.0602  C     
10   C        74.6289   36.7892   -1.7089  C     
11   O        74.2096   38.9931   -1.6085  O     
12   O        74.5807   35.5248    0.2902  O     
13   C        75.0552   34.3783   -1.6739  C     
14   C        74.5047   33.9797   -2.9194  C     
15   C        75.9441   33.4852   -1.0222  C     
16   C        76.3107   32.2636   -1.6163  C     
17   C        75.7927   31.8939   -2.8691  C     
18   C        74.8729   32.7531   -3.5143  C     
19   O        76.1981   30.7122   -3.4199  O     
20   O        73.8596   40.3152    0.7187  O     
21   O        74.9372   36.8397   -3.0064  O     
22   H        73.6060   39.7393    3.2078  H     
23   H        74.3340   35.6120    2.8509  H     
24   H        73.0351   36.9640    4.7048  H     
25   H        73.8087   34.5762   -3.3837  H     
26   H        76.3634   33.7293   -0.1170  H     
27   H        76.9586   31.6423   -1.1295  H     
28   H        74.4674   32.4797   -4.4100  H     
29   H        75.6744   30.5785   -4.2406  H     
30   H        74.7717   40.5544    0.4355  H     
31   H        74.4692   37.6333   -3.3747  H     
@<TRIPOS>BOND
     1    1    2 1
     2    1    6 2
     3    1   20 1
     4    2    3 2
     5    3    4 1
     6    3    5 1
     7    4    7 2
     8    6    7 1
     9    6    8 1
    10    7   12 1
    11    8   10 1
    12    8   11 2
    13    9   10 2
    14    9   12 1
    15    9   13 1
    16   10   21 1
    17   13   14 1
    18   13   15 2
    19   14   18 2
    20   15   16 1
    21   16   17 2
    22   17   18 1
    23   17   19 1
    24    2   22 1
    25    4   23 1
    26    5   24 1
    27   14   25 1
    28   15   26 1
    29   16   27 1
    30   18   28 1
    31   19   29 1
    32   20   30 1
    33   21   31 1
@<TRIPOS>PROPERTY_DATA
  Total_Score	| 5.6592
  Crash		| -0.7144
  Polar		| 2.4267
  FragIndex	| 1
  FragRMSD	| 0.132

