@<TRIPOS>MOLECULE
BindingDB_15236
 33 35 0 0 0
SMALL
NO_CHARGES


@<TRIPOS>ATOM
1    C        73.9168   39.1932    1.1166  C     
2    C        73.9229   39.1749    2.5276  C     
3    C        74.2216   37.9893    3.2211  C     
4    C        74.4864   36.8157    2.5023  C     
5    O        74.2615   37.9660    4.5761  O     
6    C        74.2299   38.0192    0.3771  C     
7    C        74.4935   36.8297    1.0975  C     
8    C        74.3266   37.9188   -1.0213  C     
9    C        74.8615   35.6034   -0.9136  C     
10   C        74.6677   36.7315   -1.6432  C     
11   O        74.1340   38.9089   -1.7133  O     
12   O        74.8940   36.7114   -2.9615  O     
13   O        74.7746   35.6545    0.4414  O     
14   C        75.1738   34.3289   -1.4410  C     
15   C        76.1183   33.4965   -0.7836  C     
16   C        74.5406   33.8004   -2.5970  C     
17   C        74.8910   32.5332   -3.1179  C     
18   C        75.8565   31.7457   -2.4647  C     
19   O        76.2534   30.5410   -2.9532  O     
20   O        74.2992   32.0476   -4.2384  O     
21   O        73.6077   40.3760    0.5216  O     
22   C        76.4444   32.2132   -1.2777  C     
23   O        77.3314   31.4110   -0.6308  O     
24   H        73.7030   40.0251    3.0512  H     
25   H        74.6832   35.9453    3.0019  H     
26   H        75.1410   38.3258    4.8268  H     
27   H        74.4690   37.5069   -3.3451  H     
28   H        76.5967   33.8242    0.0576  H     
29   H        73.7944   34.3251   -3.0615  H     
30   H        75.8835   30.4188   -3.8493  H     
31   H        74.5986   32.6115   -4.9786  H     
32   H        72.8743   40.1794   -0.0995  H     
33   H        77.2292   31.5876    0.3256  H     
@<TRIPOS>BOND
     1    1    2 1
     2    1    6 2
     3    1   21 1
     4    2    3 2
     5    3    4 1
     6    3    5 1
     7    4    7 2
     8    6    7 1
     9    6    8 1
    10    7   13 1
    11    8   10 1
    12    8   11 2
    13    9   10 2
    14    9   13 1
    15    9   14 1
    16   10   12 1
    17   14   15 1
    18   14   16 2
    19   15   22 2
    20   16   17 1
    21   17   18 2
    22   17   20 1
    23   18   19 1
    24   18   22 1
    25   22   23 1
    26    2   24 1
    27    4   25 1
    28    5   26 1
    29   12   27 1
    30   15   28 1
    31   16   29 1
    32   19   30 1
    33   20   31 1
    34   21   32 1
    35   23   33 1
@<TRIPOS>PROPERTY_DATA
  Total_Score	| 6.2234
  Crash		| -1.7464
  Polar		| 4.0331
  FragIndex	| 1
  FragRMSD	| 0.332

