@<TRIPOS>MOLECULE
BindingDB_7457
 31 33 0 0 0
SMALL
NO_CHARGES


@<TRIPOS>ATOM
1    C        73.8787   39.0647    1.1420  C     
2    C        73.7723   38.9874    2.5399  C     
3    C        73.9415   37.7533    3.1954  C     
4    C        74.2384   36.5953    2.4450  C     
5    O        73.8159   37.6831    4.5459  O     
6    C        74.1614   37.9032    0.3775  C     
7    C        74.3439   36.6642    1.0433  C     
8    C        74.2785   37.8852   -1.0207  C     
9    C        74.7330   35.5529   -1.0178  C     
10   C        74.5887   36.7250   -1.6974  C     
11   O        74.1116   38.9288   -1.6395  O     
12   O        74.8645   36.7849   -3.0057  O     
13   O        74.6127   35.5181    0.3326  O     
14   C        75.0606   34.3214   -1.6207  C     
15   C        74.5392   33.9167   -2.8816  C     
16   C        75.9028   33.3996   -0.9485  C     
17   C        76.2579   32.1620   -1.5228  C     
18   C        75.8052   31.8228   -2.8106  C     
19   C        74.9244   32.6952   -3.4807  C     
20   O        76.2371   30.6650   -3.3721  O     
21   O        77.0411   31.2776   -0.8551  O     
22   H        73.7436   39.9694    0.6872  H     
23   H        73.5710   39.8297    3.0844  H     
24   H        74.3735   35.7009    2.9220  H     
25   H        73.2694   36.8737    4.7138  H     
26   H        74.4443   37.6001   -3.3698  H     
27   H        73.8541   34.5072   -3.3757  H     
28   H        76.2899   33.6364   -0.0291  H     
29   H        74.5539   32.4480   -4.4027  H     
30   H        75.7400   30.4998   -4.1947  H     
31   H        77.1388   31.6127    0.0615  H     
@<TRIPOS>BOND
     1    1    2 1
     2    1    6 2
     3    2    3 2
     4    3    4 1
     5    3    5 1
     6    4    7 2
     7    6    7 1
     8    6    8 1
     9    7   13 1
    10    8   10 1
    11    8   11 2
    12    9   10 2
    13    9   13 1
    14    9   14 1
    15   10   12 1
    16   14   15 1
    17   14   16 2
    18   15   19 2
    19   16   17 1
    20   17   18 2
    21   17   21 1
    22   18   19 1
    23   18   20 1
    24    1   22 1
    25    2   23 1
    26    4   24 1
    27    5   25 1
    28   12   26 1
    29   15   27 1
    30   16   28 1
    31   19   29 1
    32   20   30 1
    33   21   31 1
@<TRIPOS>PROPERTY_DATA
  Total_Score	| 6.5561
  Crash		| -0.7569
  Polar		| 3.8111
  FragIndex	| 1
  FragRMSD	| 0.150

