@<TRIPOS>MOLECULE
BindingDB_26658
 32 34 0 0 0
SMALL
NO_CHARGES


@<TRIPOS>ATOM
1    C        74.2093   36.5097    2.4110  C     
2    C        73.8055   38.9014    2.6043  C     
3    C        73.9629   39.0515    1.2129  C     
4    C        74.3130   36.6412    1.0172  C     
5    C        74.1939   37.9093    0.3914  C     
6    C        74.3241   37.9214   -1.0084  C     
7    C        74.6335   36.7909   -1.7127  C     
8    C        74.7085   35.5962   -1.0707  C     
9    O        74.4877   35.5037    0.2738  O     
10   O        74.1732   38.9716   -1.6227  O     
11   C        75.0331   34.3784   -1.6877  C     
12   C        76.1503   32.1877   -1.6181  C     
13   C        75.8085   33.4019   -1.0002  C     
14   C        74.5719   34.0565   -2.9901  C     
15   C        74.9059   32.8379   -3.6026  C     
16   C        75.7120   31.9042   -2.9192  C     
17   C        73.9300   37.6335    3.2062  C     
18   O        76.0944   30.7285   -3.4972  O     
19   O        73.7762   37.4814    4.5482  O     
20   O        73.8857   40.3020    0.6854  O     
21   O        74.9927   36.8754   -2.9921  O     
22   O        76.2899   33.6213    0.2523  O     
23   H        74.3052   35.5887    2.8439  H     
24   H        73.5995   39.7173    3.1783  H     
25   H        76.7292   31.5118   -1.1182  H     
26   H        73.9653   34.6969   -3.4963  H     
27   H        74.5647   32.6264   -4.5408  H     
28   H        75.5723   30.6272   -4.3238  H     
29   H        72.8951   37.8735    4.7610  H     
30   H        74.7086   40.7602    0.9752  H     
31   H        74.4610   37.5806   -3.4016  H     
32   H        75.6660   33.1275    0.8462  H     
@<TRIPOS>BOND
     1    1    4 1
     2    1   17 2
     3    2    3 2
     4    2   17 1
     5    3    5 1
     6    3   20 1
     7    4    5 2
     8    4    9 1
     9    5    6 1
    10    6    7 1
    11    6   10 2
    12    7    8 2
    13    7   21 1
    14    8    9 1
    15    8   11 1
    16   11   13 2
    17   11   14 1
    18   12   13 1
    19   12   16 2
    20   13   22 1
    21   14   15 2
    22   15   16 1
    23   16   18 1
    24   17   19 1
    25    1   23 1
    26    2   24 1
    27   12   25 1
    28   14   26 1
    29   15   27 1
    30   18   28 1
    31   19   29 1
    32   20   30 1
    33   21   31 1
    34   22   32 1
@<TRIPOS>PROPERTY_DATA
  Total_Score	| 5.2215
  Crash		| -0.8174
  Polar		| 2.3929
  FragIndex	| 1
  FragRMSD	| 0.138

