@<TRIPOS>MOLECULE
BindingDB_23408
 33 35 0 0 0
SMALL
NO_CHARGES


@<TRIPOS>ATOM
1    C        74.5244   36.5322    2.4061  C     
2    C        74.3852   37.6832    3.2019  C     
3    C        74.1339   38.9296    2.5886  C     
4    C        74.0477   39.0245    1.1783  C     
5    C        74.4428   36.6225    1.0049  C     
6    C        74.2294   37.8714    0.3651  C     
7    C        74.2639   37.8614   -1.0354  C     
8    C        74.5839   36.7200   -1.7400  C     
9    C        74.7304   35.5394   -1.0827  C     
10   O        74.0983   38.9029   -1.6621  O     
11   O        74.5793   35.4672    0.2652  O     
12   O        74.8932   36.7908   -3.0496  O     
13   O        73.8025   40.2634    0.6551  O     
14   O        74.5168   37.5681    4.5411  O     
15   O        73.9764   40.0323    3.3708  O     
16   C        75.0643   34.3228   -1.6930  C     
17   C        76.2620   32.1639   -1.6165  C     
18   C        75.9322   33.4093   -1.0371  C     
19   C        74.5164   33.9188   -2.9410  C     
20   C        74.8721   32.6882   -3.5361  C     
21   C        75.7563   31.8166   -2.8796  C     
22   O        77.0745   31.2856   -0.9630  O     
23   O        76.1464   30.6443   -3.4442  O     
24   H        74.7004   35.6285    2.8460  H     
25   H        74.4970   37.6343   -3.3929  H     
26   H        73.1328   40.1140   -0.0456  H     
27   H        74.8694   38.4335    4.8540  H     
28   H        74.4867   40.7453    2.9250  H     
29   H        76.3509   33.6557   -0.1327  H     
30   H        73.8280   34.5242   -3.4179  H     
31   H        74.4720   32.4357   -4.4407  H     
32   H        77.1927   31.6391   -0.0536  H     
33   H        75.6651   30.5368   -4.2936  H     
@<TRIPOS>BOND
     1    1    2 2
     2    1    5 1
     3    2    3 1
     4    2   14 1
     5    3    4 2
     6    3   15 1
     7    4    6 1
     8    4   13 1
     9    5    6 2
    10    5   11 1
    11    6    7 1
    12    7    8 1
    13    7   10 2
    14    8    9 2
    15    8   12 1
    16    9   11 1
    17    9   16 1
    18   16   18 2
    19   16   19 1
    20   17   18 1
    21   17   21 2
    22   17   22 1
    23   19   20 2
    24   20   21 1
    25   21   23 1
    26    1   24 1
    27   12   25 1
    28   13   26 1
    29   14   27 1
    30   15   28 1
    31   18   29 1
    32   19   30 1
    33   20   31 1
    34   22   32 1
    35   23   33 1
@<TRIPOS>PROPERTY_DATA
  Total_Score	| 6.3882
  Crash		| -1.1973
  Polar		| 3.7101
  FragIndex	| 1
  FragRMSD	| 0.112

