@<TRIPOS>MOLECULE
BindingDB_26662
 31 33 0 0 0
SMALL
NO_CHARGES


@<TRIPOS>ATOM
1    C        74.0974   36.6398    2.4317  C     
2    C        73.9325   39.0728    2.5467  C     
3    C        74.0102   39.1374    1.1390  C     
4    C        74.1883   36.7040    1.0257  C     
5    C        74.1422   37.9554    0.3695  C     
6    C        74.2552   37.9362   -1.0215  C     
7    C        74.5089   36.7707   -1.7027  C     
8    C        74.5690   35.5891   -1.0328  C     
9    O        74.3056   35.5393    0.3035  O     
10   O        74.1856   38.9909   -1.6448  O     
11   C        74.9143   34.3630   -1.6322  C     
12   C        76.1288   32.2167   -1.5977  C     
13   C        75.7239   33.4046   -0.9547  C     
14   C        74.4904   34.0355   -2.9447  C     
15   C        74.8949   32.8475   -3.5838  C     
16   C        75.7260   31.9369   -2.9120  C     
17   C        73.9633   37.8198    3.1863  C     
18   O        76.1501   30.7938   -3.5133  O     
19   O        74.8380   36.8364   -2.9961  O     
20   O        73.8072   40.1958    3.2980  O     
21   O        76.1964   33.6030    0.3043  O     
22   H        74.1123   35.7367    2.9066  H     
23   H        73.9749   40.0496    0.6850  H     
24   H        76.7264   31.5486   -1.1050  H     
25   H        73.8776   34.6712   -3.4637  H     
26   H        74.5875   32.6544   -4.5436  H     
27   H        73.8923   37.7622    4.2066  H     
28   H        75.5776   30.6521   -4.2935  H     
29   H        74.3206   37.5722   -3.3964  H     
30   H        74.1580   40.9360    2.7618  H     
31   H        75.3963   33.6512    0.8731  H     
@<TRIPOS>BOND
     1    1    4 1
     2    1   17 2
     3    2    3 2
     4    2   17 1
     5    2   20 1
     6    3    5 1
     7    4    5 2
     8    4    9 1
     9    5    6 1
    10    6    7 1
    11    6   10 2
    12    7    8 2
    13    7   19 1
    14    8    9 1
    15    8   11 1
    16   11   13 2
    17   11   14 1
    18   12   13 1
    19   12   16 2
    20   13   21 1
    21   14   15 2
    22   15   16 1
    23   16   18 1
    24    1   22 1
    25    3   23 1
    26   12   24 1
    27   14   25 1
    28   15   26 1
    29   17   27 1
    30   18   28 1
    31   19   29 1
    32   20   30 1
    33   21   31 1
@<TRIPOS>PROPERTY_DATA
  Total_Score	| 5.6082
  Crash		| -0.7306
  Polar		| 2.3880
  FragIndex	| 1
  FragRMSD	| 0.141

