@<TRIPOS>MOLECULE
BindingDB_7459
 31 33 0 0 0
SMALL
NO_CHARGES


@<TRIPOS>ATOM
1    C        73.9938   39.0390    1.2564  C     
2    C        73.8758   38.9388    2.6565  C     
3    C        74.0569   37.7003    3.2970  C     
4    C        74.3551   36.5543    2.5380  C     
5    O        73.9471   37.6189    4.6413  O     
6    C        74.2898   37.8895    0.4766  C     
7    C        74.4712   36.6462    1.1387  C     
8    C        74.4250   37.8772   -0.9147  C     
9    C        74.8589   35.5474   -0.9303  C     
10   C        74.7086   36.7253   -1.5868  C     
11   O        74.2917   38.9068   -1.5663  O     
12   O        74.7497   35.4974    0.4233  O     
13   C        75.1433   34.3304   -1.5729  C     
14   C        74.6241   34.0102   -2.8534  C     
15   C        75.9456   33.3496   -0.9308  C     
16   C        76.2341   32.1133   -1.5445  C     
17   C        75.7432   31.8393   -2.8360  C     
18   C        74.9246   32.7867   -3.4811  C     
19   O        76.0800   30.6706   -3.4403  O     
20   O        73.8333   40.2652    0.7056  O     
21   O        76.9904   31.1761   -0.9103  O     
22   H        73.6675   39.7694    3.2135  H     
23   H        74.4819   35.6513    3.0024  H     
24   H        74.8437   37.8214    4.9669  H     
25   H        74.8483   36.7706   -2.5704  H     
26   H        74.0043   34.6594   -3.3407  H     
27   H        76.3521   33.5357   -0.0109  H     
28   H        74.5433   32.5909   -4.4101  H     
29   H        75.5565   30.6101   -4.2664  H     
30   H        74.7458   40.5788    0.5510  H     
31   H        76.8771   31.3316    0.0517  H     
@<TRIPOS>BOND
     1    1    2 1
     2    1    6 2
     3    1   20 1
     4    2    3 2
     5    3    4 1
     6    3    5 1
     7    4    7 2
     8    6    7 1
     9    6    8 1
    10    7   12 1
    11    8   10 1
    12    8   11 2
    13    9   10 2
    14    9   12 1
    15    9   13 1
    16   13   14 1
    17   13   15 2
    18   14   18 2
    19   15   16 1
    20   16   17 2
    21   16   21 1
    22   17   18 1
    23   17   19 1
    24    2   22 1
    25    4   23 1
    26    5   24 1
    27   10   25 1
    28   14   26 1
    29   15   27 1
    30   18   28 1
    31   19   29 1
    32   20   30 1
    33   21   31 1
@<TRIPOS>PROPERTY_DATA
  Total_Score	| 5.5619
  Crash		| -0.5744
  Polar		| 2.5781
  FragIndex	| 1
  FragRMSD	| 0.168

