@<TRIPOS>MOLECULE
BindingDB_26659
 29 31 0 0 0
SMALL
NO_CHARGES


@<TRIPOS>ATOM
1    C        74.3305   36.5822    2.4885  C     
2    C        73.9342   38.9846    2.5967  C     
3    C        73.9680   39.0536    1.1891  C     
4    C        74.3578   36.6466    1.0801  C     
5    C        74.1912   37.8898    0.4134  C     
6    C        74.2815   37.8677   -0.9738  C     
7    C        74.5531   36.7069   -1.6551  C     
8    C        74.7060   35.5310   -0.9913  C     
9    O        74.5670   35.4791    0.3645  O     
10   O        74.1255   38.8991   -1.6234  O     
11   C        75.0308   34.3165   -1.6191  C     
12   C        76.1295   32.0998   -1.5186  C     
13   C        75.7906   33.3333   -0.9251  C     
14   C        74.5877   33.9875   -2.9293  C     
15   C        74.9188   32.7536   -3.5262  C     
16   C        75.7042   31.8185   -2.8295  C     
17   C        74.1346   37.7516    3.2446  C     
18   O        74.1694   37.6838    4.5891  O     
19   O        76.8430   31.1674   -0.8415  O     
20   H        74.4725   35.6841    2.9554  H     
21   H        73.7790   39.8328    3.1443  H     
22   H        73.8396   39.9683    0.7388  H     
23   H        74.6964   36.7444   -2.6435  H     
24   H        76.1297   33.5167    0.0195  H     
25   H        73.9924   34.6344   -3.4489  H     
26   H        74.5756   32.5273   -4.4659  H     
27   H        75.9446   30.9245   -3.2705  H     
28   H        75.0485   38.0690    4.8294  H     
29   H        76.4880   31.1734    0.0782  H     
@<TRIPOS>BOND
     1    1    4 1
     2    1   17 2
     3    2    3 2
     4    2   17 1
     5    3    5 1
     6    4    5 2
     7    4    9 1
     8    5    6 1
     9    6    7 1
    10    6   10 2
    11    7    8 2
    12    8    9 1
    13    8   11 1
    14   11   13 2
    15   11   14 1
    16   12   13 1
    17   12   16 2
    18   12   19 1
    19   14   15 2
    20   15   16 1
    21   17   18 1
    22    1   20 1
    23    2   21 1
    24    3   22 1
    25    7   23 1
    26   13   24 1
    27   14   25 1
    28   15   26 1
    29   16   27 1
    30   18   28 1
    31   19   29 1
@<TRIPOS>PROPERTY_DATA
  Total_Score	| 4.8909
  Crash		| -0.2939
  Polar		| 1.2328
  FragIndex	| 1
  FragRMSD	| 0.119

