@<TRIPOS>MOLECULE
BindingDB_7460
 32 34 0 0 0
SMALL
NO_CHARGES


@<TRIPOS>ATOM
1    C        73.9997   39.0475    1.1967  C     
2    C        73.9327   38.9457    2.5966  C     
3    C        74.1137   37.7021    3.2309  C     
4    C        74.3392   36.5524    2.4517  C     
5    O        74.0757   37.5905    4.5834  O     
6    C        74.2451   37.8994    0.3982  C     
7    C        74.4187   36.6485    1.0524  C     
8    C        74.3508   37.8866   -0.9955  C     
9    C        74.7940   35.5618   -1.0201  C     
10   C        74.6372   36.7352   -1.6898  C     
11   O        74.2131   38.9276   -1.6233  O     
12   O        74.8684   36.7841   -3.0046  O     
13   O        74.6732   35.5035    0.3323  O     
14   C        75.0999   34.3441   -1.6381  C     
15   C        74.5597   33.9905   -2.8956  C     
16   C        75.9330   33.4065   -0.9773  C     
17   C        76.2391   32.1600   -1.5715  C     
18   C        75.7493   31.8561   -2.8612  C     
19   C        74.8917   32.7680   -3.5066  C     
20   O        76.1303   30.7027   -3.4494  O     
21   O        76.9967   31.2288   -0.9248  O     
22   O        73.8358   40.2728    0.6433  O     
23   H        73.7584   39.7840    3.1556  H     
24   H        74.4586   35.6450    2.9120  H     
25   H        74.9534   37.8885    4.9044  H     
26   H        74.3940   37.5656   -3.3671  H     
27   H        73.9157   34.6096   -3.3797  H     
28   H        76.3432   33.6305   -0.0685  H     
29   H        74.5033   32.5326   -4.4192  H     
30   H        75.5702   30.5952   -4.2554  H     
31   H        76.9281   31.4233    0.0317  H     
32   H        74.7497   40.6020    0.5051  H     
@<TRIPOS>BOND
     1    1    2 1
     2    1    6 2
     3    1   22 1
     4    2    3 2
     5    3    4 1
     6    3    5 1
     7    4    7 2
     8    6    7 1
     9    6    8 1
    10    7   13 1
    11    8   10 1
    12    8   11 2
    13    9   10 2
    14    9   13 1
    15    9   14 1
    16   10   12 1
    17   14   15 1
    18   14   16 2
    19   15   19 2
    20   16   17 1
    21   17   18 2
    22   17   21 1
    23   18   19 1
    24   18   20 1
    25    2   23 1
    26    4   24 1
    27    5   25 1
    28   12   26 1
    29   15   27 1
    30   16   28 1
    31   19   29 1
    32   20   30 1
    33   21   31 1
    34   22   32 1
@<TRIPOS>PROPERTY_DATA
  Total_Score	| 6.5700
  Crash		| -0.8078
  Polar		| 3.6253
  FragIndex	| 1
  FragRMSD	| 0.096

