@<TRIPOS>MOLECULE
BindingDB_26661
 31 33 0 0 0
SMALL
NO_CHARGES


@<TRIPOS>ATOM
1    C        74.2175   36.6685    2.5754  C     
2    C        73.7800   39.0648    2.5535  C     
3    C        73.8993   39.0802    1.1523  C     
4    C        74.3470   36.6774    1.1738  C     
5    C        74.1798   37.8854    0.4479  C     
6    C        74.3143   37.8148   -0.9384  C     
7    C        74.6179   36.6371   -1.5520  C     
8    C        74.7836   35.4998   -0.8337  C     
9    O        74.6450   35.4966    0.5210  O     
10   O        74.1899   38.8161   -1.6316  O     
11   C        75.1270   34.2746   -1.4238  C     
12   C        74.8784   32.5829   -3.1976  C     
13   C        74.5241   33.8231   -2.6250  C     
14   C        76.0637   33.4173   -0.7948  C     
15   C        76.4139   32.1721   -1.3560  C     
16   C        75.8427   31.7668   -2.5784  C     
17   C        73.9271   37.8602    3.2675  C     
18   O        73.7854   37.8704    4.6154  O     
19   O        74.2396   32.1277   -4.2956  O     
20   O        76.2410   30.5814   -3.1209  O     
21   O        77.2793   31.3252   -0.7349  O     
22   H        74.3361   35.7946    3.0930  H     
23   H        73.5768   39.9354    3.0497  H     
24   H        73.7854   39.9647    0.6518  H     
25   H        74.7700   36.6359   -2.5371  H     
26   H        73.7989   34.3832   -3.0804  H     
27   H        76.5222   33.7025    0.0741  H     
28   H        72.8864   37.5162    4.7803  H     
29   H        74.5483   32.7156   -5.0223  H     
30   H        75.8040   30.4526   -3.9844  H     
31   H        77.2055   31.5125    0.2246  H     
@<TRIPOS>BOND
     1    1    4 1
     2    1   17 2
     3    2    3 2
     4    2   17 1
     5    3    5 1
     6    4    5 2
     7    4    9 1
     8    5    6 1
     9    6    7 1
    10    6   10 2
    11    7    8 2
    12    8    9 1
    13    8   11 1
    14   11   13 2
    15   11   14 1
    16   12   13 1
    17   12   16 2
    18   12   19 1
    19   14   15 2
    20   15   16 1
    21   15   21 1
    22   16   20 1
    23   17   18 1
    24    1   22 1
    25    2   23 1
    26    3   24 1
    27    7   25 1
    28   13   26 1
    29   14   27 1
    30   18   28 1
    31   19   29 1
    32   20   30 1
    33   21   31 1
@<TRIPOS>PROPERTY_DATA
  Total_Score	| 5.5191
  Crash		| -1.1950
  Polar		| 3.2606
  FragIndex	| 1
  FragRMSD	| 0.299

