@<TRIPOS>MOLECULE
BindingDB_7458
 30 32 0 0 0
SMALL
NO_CHARGES


@<TRIPOS>ATOM
1    C        73.9924   39.0818    1.2520  C     
2    C        73.8222   38.9804    2.6446  C     
3    C        73.9285   37.7283    3.2819  C     
4    C        74.2282   36.5808    2.5282  C     
5    O        73.7463   37.6302    4.6211  O     
6    C        74.2371   37.9219    0.4724  C     
7    C        74.3771   36.6740    1.1325  C     
8    C        74.3541   37.9010   -0.9232  C     
9    C        74.7696   35.5699   -0.9324  C     
10   C        74.6221   36.7418   -1.5936  C     
11   O        74.1875   38.9207   -1.5869  O     
12   O        74.6656   35.5223    0.4201  O     
13   C        75.0817   34.3725   -1.5835  C     
14   C        75.9459   33.4297   -0.9669  C     
15   C        74.5684   34.0391   -2.8623  C     
16   C        74.9213   32.8364   -3.5104  C     
17   C        75.8030   31.9332   -2.8890  C     
18   C        76.3051   32.2280   -1.6125  C     
19   O        76.1800   30.7856   -3.4945  O     
20   O        73.8994   40.3143    0.6963  O     
21   H        73.6212   39.8133    3.1989  H     
22   H        74.3224   35.6768    2.9927  H     
23   H        73.0363   36.9503    4.7275  H     
24   H        74.7472   36.7777   -2.5852  H     
25   H        76.3511   33.6197   -0.0426  H     
26   H        73.9071   34.6616   -3.3353  H     
27   H        74.5376   32.6286   -4.4315  H     
28   H        76.9423   31.5810   -1.1477  H     
29   H        75.6616   30.7102   -4.3161  H     
30   H        74.8453   40.6185    0.6144  H     
@<TRIPOS>BOND
     1    1    2 1
     2    1    6 2
     3    1   20 1
     4    2    3 2
     5    3    4 1
     6    3    5 1
     7    4    7 2
     8    6    7 1
     9    6    8 1
    10    7   12 1
    11    8   10 1
    12    8   11 2
    13    9   10 2
    14    9   12 1
    15    9   13 1
    16   13   14 1
    17   13   15 2
    18   14   18 2
    19   15   16 1
    20   16   17 2
    21   17   18 1
    22   17   19 1
    23    2   21 1
    24    4   22 1
    25    5   23 1
    26   10   24 1
    27   14   25 1
    28   15   26 1
    29   16   27 1
    30   18   28 1
    31   19   29 1
    32   20   30 1
@<TRIPOS>PROPERTY_DATA
  Total_Score	| 4.7589
  Crash		| -0.4865
  Polar		| 1.3030
  FragIndex	| 1
  FragRMSD	| 0.181

