@<TRIPOS>MOLECULE
BindingDB_26657
 30 32 0 0 0
SMALL
NO_CHARGES


@<TRIPOS>ATOM
1    C        74.2481   36.5693    2.4248  C     
2    C        73.7147   38.9425    2.5434  C     
3    C        73.8370   39.0398    1.1463  C     
4    C        74.3668   36.6566    1.0244  C     
5    C        74.1630   37.8969    0.3716  C     
6    C        74.3061   37.9139   -1.0194  C     
7    C        74.6324   36.7741   -1.7233  C     
8    C        74.7973   35.5943   -1.0664  C     
9    O        74.6762   35.5280    0.2919  O     
10   O        74.1679   38.9741   -1.6231  O     
11   C        75.1178   34.3699   -1.6869  C     
12   C        74.8914   32.7386   -3.5242  C     
13   C        74.5363   33.9607   -2.9139  C     
14   C        76.0068   33.4595   -1.0560  C     
15   C        76.3427   32.2263   -1.6481  C     
16   C        75.8065   31.8702   -2.8981  C     
17   C        73.9165   37.7087    3.1814  C     
18   O        76.1905   30.6962   -3.4689  O     
19   O        73.7687   37.6225    4.5267  O     
20   O        74.8968   36.8549   -3.0322  O     
21   H        74.4003   35.6702    2.8892  H     
22   H        73.4673   39.7641    3.0925  H     
23   H        73.6802   39.9479    0.7095  H     
24   H        74.4778   32.4729   -4.4222  H     
25   H        73.8280   34.5437   -3.3647  H     
26   H        76.4389   33.6950   -0.1615  H     
27   H        76.9867   31.5902   -1.1712  H     
28   H        75.6835   30.5892   -4.3010  H     
29   H        72.9836   37.0417    4.6595  H     
30   H        74.3623   37.5922   -3.3902  H     
@<TRIPOS>BOND
     1    1    4 1
     2    1   17 2
     3    2    3 2
     4    2   17 1
     5    3    5 1
     6    4    5 2
     7    4    9 1
     8    5    6 1
     9    6    7 1
    10    6   10 2
    11    7    8 2
    12    7   20 1
    13    8    9 1
    14    8   11 1
    15   11   13 2
    16   11   14 1
    17   12   13 1
    18   12   16 2
    19   14   15 2
    20   15   16 1
    21   16   18 1
    22   17   19 1
    23    1   21 1
    24    2   22 1
    25    3   23 1
    26   12   24 1
    27   13   25 1
    28   14   26 1
    29   15   27 1
    30   18   28 1
    31   19   29 1
    32   20   30 1
@<TRIPOS>PROPERTY_DATA
  Total_Score	| 5.4760
  Crash		| -0.5942
  Polar		| 2.3930
  FragIndex	| 1
  FragRMSD	| 0.167

