@<TRIPOS>MOLECULE
BindingDB_50165270
 51 53 0 0 0
SMALL
NO_CHARGES


@<TRIPOS>ATOM
1    C         0.8441   10.4130   25.8257  C     
2    C        -0.0276   11.1060   24.9863  C     
3    N         0.6737   11.5926   23.9647  N     
4    N         2.0859   10.4635   25.2813  N     
5    C         1.9576   11.2104   24.1389  C     
6    N         0.3787    9.8457   26.9762  N     
7    N        -1.7942   10.6179   26.4718  N     
8    C        -1.3849   11.2048   25.3202  C     
9    C        -0.9422    9.9568   27.2983  C     
10   C         6.4517   13.6780   24.7338  C     
11   C         6.6136   12.6672   23.7625  C     
12   C         5.1676   13.9917   25.2280  C     
13   C         2.9932   11.6135   23.1411  C     
14   C         4.1846   12.2926   23.7394  C     
15   C         4.5715    8.6049   22.9437  C     
16   C         4.3071    8.5605   21.7688  C     
17   C         4.0489   13.2884   24.7403  C     
18   C         5.4784   11.9883   23.2759  C     
19   N        -2.2438   11.8645   24.5149  N     
20   F        -1.3745    9.4130   28.3934  F     
21   C         3.2836    9.8900   25.8485  C     
22   O         7.5484   14.3159   25.2291  O     
23   O         7.8646   12.4243   23.2581  O     
24   O         5.0512   14.9105   26.2467  O     
25   C         4.8937    8.6453   24.2660  C     
26   C         7.8923   15.5063   24.5046  C     
27   C         4.4428   16.1636   25.8817  C     
28   C         8.2739   11.0499   23.2574  C     
29   C         3.6848    8.5104   25.2229  C     
30   H         3.2842   10.6967   22.6141  H     
31   H         2.5385   12.3274   22.4327  H     
32   H         4.1307    8.5391   20.8731  H     
33   H         3.1222   13.5040   25.1133  H     
34   H         5.6019   11.2807   22.5437  H     
35   H        -3.1835   11.8953   24.7335  H     
36   H        -1.9176   12.2838   23.7083  H     
37   H         4.0950   10.6125   25.7221  H     
38   H         3.1371    9.7520   26.9341  H     
39   H         5.5977    7.8157   24.4794  H     
40   H         5.3994    9.5951   24.4558  H     
41   H         8.1454   15.2852   23.4637  H     
42   H         8.7617   15.9499   24.9881  H     
43   H         7.0846   16.2276   24.5240  H     
44   H         4.9531   16.6446   25.0409  H     
45   H         4.4915   16.8305   26.7458  H     
46   H         3.3852   16.0343   25.6159  H     
47   H         8.2140   10.6230   24.2639  H     
48   H         9.3144   11.0099   22.9260  H     
49   H         7.6783   10.4476   22.5628  H     
50   H         3.9255    7.8139   26.0551  H     
51   H         2.8239    8.1084   24.6535  H     
@<TRIPOS>BOND
     1    1    2 1
     2    1    4 1
     3    1    6 2
     4    2    3 1
     5    2    8 2
     6    3    5 2
     7    4    5 1
     8    4   21 1
     9    5   13 1
    10    6    9 1
    11    7    8 1
    12    7    9 2
    13    8   19 1
    14    9   20 1
    15   10   11 1
    16   10   12 2
    17   10   22 1
    18   11   18 2
    19   11   23 1
    20   12   17 1
    21   12   24 1
    22   13   14 1
    23   14   17 2
    24   14   18 1
    25   15   16 3
    26   15   25 1
    27   21   29 1
    28   22   26 1
    29   23   28 1
    30   24   27 1
    31   25   29 1
    32   13   30 1
    33   13   31 1
    34   16   32 1
    35   17   33 1
    36   18   34 1
    37   19   35 1
    38   19   36 1
    39   21   37 1
    40   21   38 1
    41   25   39 1
    42   25   40 1
    43   26   41 1
    44   26   42 1
    45   26   43 1
    46   27   44 1
    47   27   45 1
    48   27   46 1
    49   28   47 1
    50   28   48 1
    51   28   49 1
    52   29   50 1
    53   29   51 1
@<TRIPOS>PROPERTY_DATA
  Total_Score	| 10.4279
  Crash		| -1.0478
  Polar		| 2.4519
  FragIndex	| 1
  FragRMSD	| 0.186

