@<TRIPOS>MOLECULE
BindingDB_50165283
 56 58 0 0 0
SMALL
NO_CHARGES


@<TRIPOS>ATOM
1    N         0.6655   11.5536   23.9959  N     
2    C        -0.0448   11.1010   25.0340  C     
3    C         1.9404   11.1390   24.1574  C     
4    N         2.0397   10.4086   25.3049  N     
5    C         0.8149   10.4007   25.8690  C     
6    C        -1.4080   11.1731   25.3747  C     
7    N         0.3574    9.8358   27.0181  N     
8    C         6.4220   13.6605   24.7263  C     
9    N        -1.8215   10.5838   26.5301  N     
10   C         5.1280   13.9706   25.1953  C     
11   C         6.6065   12.6572   23.7513  C     
12   C         2.9991   11.4992   23.1784  C     
13   C         4.1753   12.2384   23.7236  C     
14   C        -0.9551    9.9376   27.3562  C     
15   C         4.0163   13.2692   24.6805  C     
16   C         5.4818   11.9635   23.2473  C     
17   C         3.1831    9.7135   25.8334  C     
18   N        -2.3147   11.7546   24.5710  N     
19   O         7.5132   14.2789   25.2785  O     
20   O         4.9915   14.8706   26.2204  O     
21   O         7.8695   12.4198   23.2713  O     
22   C         3.4580    8.3439   25.1462  C     
23   O         2.3604    7.9043   24.3154  O     
24   C         1.3016    7.1173   24.9053  C     
25   C         7.8836   15.5047   24.6291  C     
26   C         8.2699   11.0414   23.2660  C     
27   C         4.3655   16.1198   25.8853  C     
28   C        -0.0047    7.4169   24.1240  C     
29   C         1.6391    5.6112   24.8500  C     
30   H         3.3113   10.5761   22.6869  H     
31   H         2.5631   12.1342   22.4017  H     
32   H        -1.2956    9.5069   28.2144  H     
33   H         3.0819   13.4976   25.0207  H     
34   H         5.6285   11.2516   22.5257  H     
35   H         4.0675   10.3511   25.7497  H     
36   H         3.0500    9.5231   26.9058  H     
37   H        -3.2547   11.7475   24.8171  H     
38   H        -2.0420   12.1425   23.7238  H     
39   H         4.3373    8.4509   24.4983  H     
40   H         3.6916    7.5846   25.9037  H     
41   H         1.1408    7.4020   25.9494  H     
42   H         8.1718   15.3365   23.5910  H     
43   H         8.7416   15.9217   25.1549  H     
44   H         7.0695   16.2309   24.6661  H     
45   H         8.1436   10.5813   24.2475  H     
46   H         9.3286   10.9908   23.0110  H     
47   H         7.7051   10.4817   22.5193  H     
48   H         4.9192   16.6441   25.1032  H     
49   H         4.3520   16.7463   26.7769  H     
50   H         3.3345   15.9701   25.5688  H     
51   H        -0.2704    8.4766   24.2211  H     
52   H        -0.8375    6.8239   24.5105  H     
53   H         0.1227    7.1891   23.0608  H     
54   H         1.8318    5.3003   23.8244  H     
55   H         0.8111    5.0200   25.2405  H     
56   H         2.5194    5.4025   25.4495  H     
@<TRIPOS>BOND
     1    1    2 1
     2    1    3 2
     3    2    5 1
     4    2    6 2
     5    3    4 1
     6    3   12 1
     7    4    5 1
     8    4   17 1
     9    5    7 2
    10    6    9 1
    11    6   18 1
    12    7   14 1
    13    8   10 2
    14    8   11 1
    15    8   19 1
    16    9   14 2
    17   10   15 1
    18   10   20 1
    19   11   16 2
    20   11   21 1
    21   12   13 1
    22   13   15 2
    23   13   16 1
    24   17   22 1
    25   19   25 1
    26   20   27 1
    27   21   26 1
    28   22   23 1
    29   23   24 1
    30   24   28 1
    31   24   29 1
    32   12   30 1
    33   12   31 1
    34   14   32 1
    35   15   33 1
    36   16   34 1
    37   17   35 1
    38   17   36 1
    39   18   37 1
    40   18   38 1
    41   22   39 1
    42   22   40 1
    43   24   41 1
    44   25   42 1
    45   25   43 1
    46   25   44 1
    47   26   45 1
    48   26   46 1
    49   26   47 1
    50   27   48 1
    51   27   49 1
    52   27   50 1
    53   28   51 1
    54   28   52 1
    55   28   53 1
    56   29   54 1
    57   29   55 1
    58   29   56 1
@<TRIPOS>PROPERTY_DATA
  Total_Score	| 10.5686
  Crash		| -0.6686
  Polar		| 2.4066
  FragIndex	| 1
  FragRMSD	| 0.187

