@<TRIPOS>MOLECULE
BindingDB_15374
 52 54 0 0 0
SMALL
NO_CHARGES


@<TRIPOS>ATOM
1    C        -1.3513   11.1341   25.3531  C     
2    C        -0.8449    9.9737   27.3708  C     
3    N         0.4712    9.8821   27.0134  N     
4    N        -1.7367   10.5906   26.5402  N     
5    N        -2.2380   11.7242   24.5396  N     
6    C         0.0047   11.0527   24.9918  C     
7    C         0.9010   10.4112   25.8449  C     
8    C         1.9590   11.1367   24.0833  C     
9    N         0.6694   11.4886   23.9264  N     
10   N         2.1215   10.4638   25.2605  N     
11   C         3.3339    9.9213   25.8204  C     
12   C         3.8682    8.6295   25.1185  C     
13   C         5.2147    8.7815   24.3577  C     
14   C         5.9658    7.4587   24.1266  C     
15   C         2.9565   11.4987   23.0527  C     
16   C         4.0226   12.4073   23.5441  C     
17   C         5.4045   12.0832   23.3035  C     
18   C         6.4451   12.9287   23.7372  C     
19   C         4.7712   14.4893   24.6166  C     
20   C         3.7462   13.6312   24.1606  C     
21   C         6.1232   14.1377   24.4022  C     
22   O         4.4252   15.7247   25.0916  O     
23   C         4.3553   15.8184   26.5210  C     
24   O         7.7706   12.6896   23.4250  O     
25   C         8.2477   11.3433   23.3820  C     
26   O         7.0871   15.0691   24.7023  O     
27   C         7.9374   14.7555   25.8156  C     
28   H        -1.1614    9.5885   28.2613  H     
29   H        -1.9401   12.0984   23.6938  H     
30   H        -3.1780   11.7720   24.7821  H     
31   H         4.0874   10.7139   25.8322  H     
32   H         3.1698    9.6788   26.8700  H     
33   H         4.0007    7.8590   25.8948  H     
34   H         3.1167    8.2288   24.4264  H     
35   H         5.0181    9.2261   23.3767  H     
36   H         5.8883    9.4607   24.8996  H     
37   H         6.2090    6.9940   25.0824  H     
38   H         6.8999    7.6439   23.5889  H     
39   H         5.3536    6.7659   23.5413  H     
40   H         3.3584   10.5700   22.6384  H     
41   H         2.4579   12.0052   22.2232  H     
42   H         5.5940   11.2581   22.7561  H     
43   H         2.7697   13.9162   24.2598  H     
44   H         3.7084   15.0505   26.9545  H     
45   H         3.9676   16.8023   26.7898  H     
46   H         5.3553   15.7336   26.9565  H     
47   H         7.8573   10.7345   24.1952  H     
48   H         9.3544   11.3728   23.4722  H     
49   H         8.0472   10.8851   22.4266  H     
50   H         7.3672   14.5329   26.7213  H     
51   H         8.5654   15.6317   25.9988  H     
52   H         8.5868   13.9091   25.6028  H     
@<TRIPOS>BOND
     1    1    4 1
     2    1    5 1
     3    1    6 2
     4    2    3 1
     5    2    4 2
     6    3    7 2
     7    6    7 1
     8    6    9 1
     9    7   10 1
    10    8    9 2
    11    8   10 1
    12    8   15 1
    13   10   11 1
    14   11   12 1
    15   12   13 1
    16   13   14 1
    17   15   16 1
    18   16   17 2
    19   16   20 1
    20   17   18 1
    21   18   21 2
    22   18   24 1
    23   19   20 2
    24   19   21 1
    25   19   22 1
    26   21   26 1
    27   22   23 1
    28   24   25 1
    29   26   27 1
    30    2   28 1
    31    5   29 1
    32    5   30 1
    33   11   31 1
    34   11   32 1
    35   12   33 1
    36   12   34 1
    37   13   35 1
    38   13   36 1
    39   14   37 1
    40   14   38 1
    41   14   39 1
    42   15   40 1
    43   15   41 1
    44   17   42 1
    45   20   43 1
    46   23   44 1
    47   23   45 1
    48   23   46 1
    49   25   47 1
    50   25   48 1
    51   25   49 1
    52   27   50 1
    53   27   51 1
    54   27   52 1
@<TRIPOS>PROPERTY_DATA
  Total_Score	| 10.2696
  Crash		| -0.4989
  Polar		| 2.4574
  FragIndex	| 1
  FragRMSD	| 0.557

