@<TRIPOS>MOLECULE
BindingDB_50165297
 51 53 0 0 0
SMALL
NO_CHARGES


@<TRIPOS>ATOM
1    N        -1.7545   10.3952   26.6202  N     
2    C        -0.8672    9.7507   27.4297  C     
3    N         0.4466    9.6738   27.0792  N     
4    C        -1.3651   10.9842   25.4558  C     
5    N        -2.2686   11.6042   24.6789  N     
6    C        -0.0108   10.9178   25.0970  C     
7    C         0.8855   10.2456   25.9245  C     
8    N         2.1113   10.3144   25.3663  N     
9    C         1.9657   11.0473   24.2206  C     
10   N         0.6740   11.4051   24.0602  N     
11   C         3.3058    9.7576   25.9559  C     
12   C         3.8936    8.5193   25.2149  C     
13   C         5.1408    8.8226   24.3341  C     
14   C         5.8250    7.6987   23.9501  C     
15   C         6.4346    6.7267   23.6039  C     
16   C         2.9798   11.4806   23.2240  C     
17   C         4.1742   12.1937   23.7621  C     
18   C         4.0380   13.1841   24.7603  C     
19   C         5.1564   13.8829   25.2563  C     
20   C         6.4469   13.5579   24.7780  C     
21   C         6.6130   12.5476   23.8007  C     
22   C         5.4715   11.9135   23.2698  C     
23   O         7.5384   14.2114   25.2725  O     
24   C         7.8004   15.4599   24.6042  C     
25   O         5.0204   14.8112   26.2589  O     
26   C         4.3388   16.0289   25.8947  C     
27   O         7.8723   12.3001   23.3081  O     
28   C         8.2854   10.9215   23.2779  C     
29   H        -1.1914    9.3209   28.2987  H     
30   H        -1.9887   12.0176   23.8487  H     
31   H        -3.2004   11.6317   24.9423  H     
32   H         4.0601   10.5327   26.0556  H     
33   H         3.0780    9.4472   26.9792  H     
34   H         4.1883    7.7819   25.9681  H     
35   H         3.1118    8.0680   24.6009  H     
36   H         4.8372    9.3395   23.4262  H     
37   H         5.8359    9.4647   24.8784  H     
38   H         6.9078    5.9797   23.3440  H     
39   H         3.2790   10.5944   22.6639  H     
40   H         2.5020   12.1546   22.5044  H     
41   H         3.1154   13.3913   25.1470  H     
42   H         5.5920   11.2408   22.5110  H     
43   H         8.0168   15.3118   23.5449  H     
44   H         8.6698   15.9189   25.0718  H     
45   H         6.9620   16.1486   24.7001  H     
46   H         4.8263   16.5383   25.0581  H     
47   H         4.3546   16.6995   26.7561  H     
48   H         3.2939   15.8407   25.6356  H     
49   H         8.2626   10.4751   24.2742  H     
50   H         9.3120   10.8807   22.9110  H     
51   H         7.6641   10.3335   22.5991  H     
@<TRIPOS>BOND
     1    1    2 2
     2    1    4 1
     3    2    3 1
     4    3    7 2
     5    4    5 1
     6    4    6 2
     7    6    7 1
     8    6   10 1
     9    7    8 1
    10    8    9 1
    11    8   11 1
    12    9   10 2
    13    9   16 1
    14   11   12 1
    15   12   13 1
    16   13   14 1
    17   14   15 3
    18   16   17 1
    19   17   18 2
    20   17   22 1
    21   18   19 1
    22   19   20 2
    23   19   25 1
    24   20   21 1
    25   20   23 1
    26   21   22 2
    27   21   27 1
    28   23   24 1
    29   25   26 1
    30   27   28 1
    31    2   29 1
    32    5   30 1
    33    5   31 1
    34   11   32 1
    35   11   33 1
    36   12   34 1
    37   12   35 1
    38   13   36 1
    39   13   37 1
    40   15   38 1
    41   16   39 1
    42   16   40 1
    43   18   41 1
    44   22   42 1
    45   24   43 1
    46   24   44 1
    47   24   45 1
    48   26   46 1
    49   26   47 1
    50   26   48 1
    51   28   49 1
    52   28   50 1
    53   28   51 1
@<TRIPOS>PROPERTY_DATA
  Total_Score	| 9.8951
  Crash		| -0.7042
  Polar		| 2.2859
  FragIndex	| 1
  FragRMSD	| 0.200

