@<TRIPOS>MOLECULE
BindingDB_16499
 47 47 0 0 0
SMALL
NO_CHARGES


@<TRIPOS>ATOM
1    C        14.3145   18.9494   -4.6022  C     
2    C        14.6557   20.4483   -4.5850  C     
3    O        13.3194   18.6964   -5.6031  O     
4    C        13.4938   18.1138   -6.8219  C     
5    O        14.7279   17.7603   -7.2547  O     
6    C        12.3731   18.0439   -7.7537  C     
7    C        10.9303   18.1701   -7.2596  C     
8    C         9.8751   18.5490   -8.1673  C     
9    O        10.0793   19.4119   -9.0150  O     
10   N         8.6617   18.0577   -7.9467  N     
11   C         7.4325   18.4527   -8.5886  C     
12   C         6.6947   19.3294   -7.6710  C     
13   O         6.5171   20.5004   -7.9890  O     
14   C         6.6064   17.2240   -9.1243  C     
15   C         7.4391   16.4322  -10.1812  C     
16   C         6.0139   16.2499   -8.0377  C     
17   C         4.5669   16.6061   -7.6068  C     
18   O        11.5354   16.8982   -7.5437  O     
19   N         6.2963   18.8749   -6.4869  N     
20   C         5.5742   19.5812   -5.4708  C     
21   C         4.0928   19.8345   -5.8696  C     
22   C         5.6355   18.7822   -4.2320  C     
23   O         5.2389   17.4879   -4.2096  O     
24   O         5.9157   19.3803   -3.0385  O     
25   H        15.2322   18.3762   -4.7778  H     
26   H        13.9161   18.6520   -3.6285  H     
27   H        15.0460   20.7507   -5.5575  H     
28   H        15.4001   20.6547   -3.8220  H     
29   H        13.7594   21.0315   -4.3750  H     
30   H        12.5722   18.1870   -8.8128  H     
31   H        10.8088   18.3642   -6.1910  H     
32   H         8.5714   17.4333   -7.2090  H     
33   H         7.6835   19.0360   -9.4899  H     
34   H         5.7614   17.6341   -9.6898  H     
35   H         7.7512   17.0998  -10.9925  H     
36   H         6.8389   15.6309  -10.6277  H     
37   H         8.3267   15.9943   -9.7186  H     
38   H         5.9653   15.2235   -8.4212  H     
39   H         6.6634   16.2169   -7.1631  H     
40   H         4.4800   17.6756   -7.3669  H     
41   H         4.2756   16.0215   -6.7305  H     
42   H         3.8685   16.3873   -8.4192  H     
43   H         6.5371   17.9592   -6.2748  H     
44   H         6.0622   20.5411   -5.2748  H     
45   H         4.0476   20.4058   -6.7964  H     
46   H         3.5683   20.4007   -5.0907  H     
47   H         3.5660   18.8838   -6.0179  H     
@<TRIPOS>BOND
     1    1    2 1
     2    1    3 1
     3    3    4 1
     4    4    5 2
     5    6    4 1
     6    6    7 1
     7    6   18 1
     8    7    8 1
     9    7   18 1
    10    8    9 2
    11    8   10 am
    12   10   11 1
    13   11   12 1
    14   11   14 1
    15   12   13 2
    16   12   19 am
    17   14   15 1
    18   14   16 1
    19   16   17 1
    20   19   20 1
    21   20   21 1
    22   20   22 1
    23   22   23 2
    24   22   24 1
    25    1   25 1
    26    1   26 1
    27    2   27 1
    28    2   28 1
    29    2   29 1
    30    6   30 1
    31    7   31 1
    32   10   32 1
    33   11   33 1
    34   14   34 1
    35   15   35 1
    36   15   36 1
    37   15   37 1
    38   16   38 1
    39   16   39 1
    40   17   40 1
    41   17   41 1
    42   17   42 1
    43   19   43 1
    44   20   44 1
    45   21   45 1
    46   21   46 1
    47   21   47 1
@<TRIPOS>PROPERTY_DATA
  Total_Score	| 4.2623
  Crash		| -2.2150
  Polar		| 3.8553
  FragIndex	| 1
  FragRMSD	| 0.793

