@<TRIPOS>MOLECULE
BindingDB_50219588
 68 71 0 0 0
SMALL
NO_CHARGES


@<TRIPOS>ATOM
1    S        44.5260   14.0943    0.3490  S     
2    C        44.8041   15.5558    1.2131  C     
3    C        45.7266   15.2542    2.2297  C     
4    C        46.1426   13.9075    2.2597  C     
5    C        45.6028   13.0933    1.2446  C     
6    C        44.1950   16.7850    0.9434  C     
7    O        44.6768   17.9414    1.4456  O     
8    O        43.1632   16.8779    0.0768  O     
9    C        45.8480   11.7108    1.0460  C     
10   C        47.1499   11.1763    1.2070  C     
11   C        47.3760    9.7829    1.2645  C     
12   C        46.2865    8.9203    1.0005  C     
13   C        45.0160    9.4446    0.6883  C     
14   C        44.7867   10.8311    0.7455  C     
15   Br       47.1702   13.2251    3.6520  Br    
16   O        46.1526   16.2120    3.1105  O     
17   C        45.8175   15.9772    4.4921  C     
18   C        45.5796   17.2831    5.1146  C     
19   O        46.5357   17.8287    5.8921  O     
20   O        44.2943   17.6085    5.3904  O     
21   N        48.6295    9.3753    1.6117  N     
22   C        49.0219    8.1008    2.1460  C     
23   N        50.6578    6.6428    4.1095  N     
24   C        51.3704    7.4992    3.1922  C     
25   C        50.5475    7.8192    1.9121  C     
26   C        48.6382    8.0548    3.6553  C     
27   C        49.2498    6.8263    4.3736  C     
28   S        51.4886    5.4610    4.9956  S     
29   C        51.1593    3.7864    4.4149  C     
30   O        53.0498    5.7668    5.0443  O     
31   O        51.0836    5.5815    6.5313  O     
32   C        51.6932    2.7701    5.3674  C     
33   C        50.7721    2.0171    6.1348  C     
34   C        51.2096    1.1153    7.1190  C     
35   C        52.5816    0.9723    7.3768  C     
36   C        53.5115    1.7183    6.6374  C     
37   C        53.0857    2.5848    5.6098  C     
38   N        54.0639    3.2412    4.9374  N     
39   S        54.4140    2.8754    3.3295  S     
40   C        53.5193    1.4635    2.6510  C     
41   O        54.2126    4.1632    2.4183  O     
42   O        55.9574    2.4773    3.2674  O     
43   H        47.9363   11.8038    1.3804  H     
44   H        46.4208    7.9085    0.9829  H     
45   H        44.2432    8.8122    0.4673  H     
46   H        43.8340   11.1816    0.5990  H     
47   H        44.9239   15.3511    4.6087  H     
48   H        46.6485   15.4891    5.0116  H     
49   H        49.2917   10.0851    1.6880  H     
50   H        48.4683    7.2987    1.6354  H     
51   H        51.6116    8.4291    3.7153  H     
52   H        52.3134    7.0465    2.8761  H     
53   H        50.6484    6.9634    1.2392  H     
54   H        51.0335    8.6636    1.4090  H     
55   H        49.0073    8.9660    4.1506  H     
56   H        47.5503    8.0351    3.7711  H     
57   H        48.7054    5.9327    4.0469  H     
58   H        49.0844    6.9362    5.4512  H     
59   H        50.0801    3.6929    4.3035  H     
60   H        51.5810    3.6559    3.4235  H     
61   H        49.7601    2.1341    6.0029  H     
62   H        50.5244    0.5775    7.6577  H     
63   H        52.8989    0.3263    8.1026  H     
64   H        54.5089    1.6031    6.8416  H     
65   H        54.8221    3.5290    5.4655  H     
66   H        53.6710    0.5916    3.2900  H     
67   H        53.8844    1.2389    1.6454  H     
68   H        52.4527    1.6899    2.5993  H     
@<TRIPOS>BOND
     1    1    2 1
     2    1    5 1
     3    2    3 2
     4    2    6 1
     5    3    4 1
     6    3   16 1
     7    4    5 2
     8    4   15 1
     9    5    9 1
    10    6    7 2
    11    6    8 1
    12    9   10 2
    13    9   14 1
    14   10   11 1
    15   11   12 2
    16   11   21 1
    17   12   13 1
    18   13   14 2
    19   16   17 1
    20   17   18 1
    21   18   19 1
    22   18   20 2
    23   21   22 1
    24   22   25 1
    25   22   26 1
    26   23   24 1
    27   23   27 1
    28   23   28 1
    29   24   25 1
    30   26   27 1
    31   28   29 1
    32   28   30 2
    33   28   31 2
    34   29   32 1
    35   32   33 2
    36   32   37 1
    37   33   34 1
    38   34   35 2
    39   35   36 1
    40   36   37 2
    41   37   38 1
    42   38   39 1
    43   39   40 1
    44   39   41 2
    45   39   42 2
    46   10   43 1
    47   12   44 1
    48   13   45 1
    49   14   46 1
    50   17   47 1
    51   17   48 1
    52   21   49 1
    53   22   50 1
    54   24   51 1
    55   24   52 1
    56   25   53 1
    57   25   54 1
    58   26   55 1
    59   26   56 1
    60   27   57 1
    61   27   58 1
    62   29   59 1
    63   29   60 1
    64   33   61 1
    65   34   62 1
    66   35   63 1
    67   36   64 1
    68   38   65 1
    69   40   66 1
    70   40   67 1
    71   40   68 1
@<TRIPOS>PROPERTY_DATA
  Total_Score	| 14.2709
  Crash		| -3.0982
  Polar		| 10.4691
  FragIndex	| 1
  FragRMSD	| 1.161

