@<TRIPOS>MOLECULE
BindingDB_50219575
 60 63 0 0 0
SMALL
NO_CHARGES


@<TRIPOS>ATOM
1    S        44.4620   14.0987    0.4020  S     
2    C        44.8031   15.5662    1.2337  C     
3    C        45.7378   15.2516    2.2383  C     
4    C        46.1186   13.8922    2.2692  C     
5    C        45.5376   13.0826    1.2794  C     
6    C        44.2036   16.8079    0.9714  C     
7    O        44.7247   17.9611    1.4216  O     
8    O        43.1614   16.9082    0.1223  O     
9    C        45.7654   11.6971    1.0540  C     
10   C        47.0549   11.1428    1.2485  C     
11   C        47.2755    9.7470    1.2686  C     
12   C        46.2002    8.8968    0.9315  C     
13   C        44.9423    9.4394    0.5884  C     
14   C        44.7161   10.8244    0.6844  C     
15   Br       47.1690   13.2073    3.6454  Br    
16   O        46.1892   16.2008    3.1222  O     
17   C        45.8556   15.9506    4.5050  C     
18   C        45.5609   17.2366    5.1345  C     
19   O        46.5067   17.8280    5.8946  O     
20   O        44.2702   17.5356    5.3739  O     
21   N        48.5120    9.3320    1.6482  N     
22   C        48.9349    8.0325    2.0956  C     
23   N        50.5883    6.6539    4.1322  N     
24   C        51.2297    7.6606    3.3187  C     
25   C        50.4924    7.8814    1.9696  C     
26   C        48.4274    7.7685    3.5483  C     
27   C        49.1533    6.5708    4.2182  C     
28   S        51.4978    5.5776    5.0746  S     
29   C        51.7283    3.9453    4.3292  C     
30   O        52.9254    6.2062    5.3931  O     
31   O        50.8614    5.4512    6.5283  O     
32   C        51.9716    2.8953    5.3594  C     
33   C        53.2814    2.7406    5.8733  C     
34   C        53.5752    1.7570    6.8302  C     
35   C        52.5624    0.9100    7.3033  C     
36   C        51.2530    1.0448    6.8102  C     
37   C        50.9459    2.0335    5.8519  C     
38   Cl       49.3200    2.1323    5.3693  Cl    
39   H        47.8511   11.7669    1.4390  H     
40   H        46.3270    7.8843    0.9042  H     
41   H        44.1694    8.8171    0.3445  H     
42   H        43.7701   11.1805    0.5280  H     
43   H        44.9889   15.2781    4.6146  H     
44   H        46.7121   15.5049    5.0247  H     
45   H        49.1891   10.0332    1.7127  H     
46   H        48.4896    7.2801    1.4330  H     
47   H        51.2381    8.6005    3.8828  H     
48   H        52.2672    7.4060    3.0871  H     
49   H        50.7126    7.0175    1.3314  H     
50   H        50.9379    8.7522    1.4704  H     
51   H        48.5938    8.6531    4.1743  H     
52   H        47.3490    7.5756    3.5538  H     
53   H        48.8247    5.6447    3.7318  H     
54   H        48.8362    6.5235    5.2683  H     
55   H        50.8347    3.7356    3.7419  H     
56   H        52.5565    3.9926    3.6244  H     
57   H        54.0421    3.3430    5.5514  H     
58   H        54.5284    1.6477    7.1856  H     
59   H        52.7748    0.1920    7.9961  H     
60   H        50.5263    0.4074    7.1414  H     
@<TRIPOS>BOND
     1    1    2 1
     2    1    5 1
     3    2    3 2
     4    2    6 1
     5    3    4 1
     6    3   16 1
     7    4    5 2
     8    4   15 1
     9    5    9 1
    10    6    7 2
    11    6    8 1
    12    9   10 2
    13    9   14 1
    14   10   11 1
    15   11   12 2
    16   11   21 1
    17   12   13 1
    18   13   14 2
    19   16   17 1
    20   17   18 1
    21   18   19 1
    22   18   20 2
    23   21   22 1
    24   22   25 1
    25   22   26 1
    26   23   24 1
    27   23   27 1
    28   23   28 1
    29   24   25 1
    30   26   27 1
    31   28   29 1
    32   28   30 2
    33   28   31 2
    34   29   32 1
    35   32   33 2
    36   32   37 1
    37   33   34 1
    38   34   35 2
    39   35   36 1
    40   36   37 2
    41   37   38 1
    42   10   39 1
    43   12   40 1
    44   13   41 1
    45   14   42 1
    46   17   43 1
    47   17   44 1
    48   21   45 1
    49   22   46 1
    50   24   47 1
    51   24   48 1
    52   25   49 1
    53   25   50 1
    54   26   51 1
    55   26   52 1
    56   27   53 1
    57   27   54 1
    58   29   55 1
    59   29   56 1
    60   33   57 1
    61   34   58 1
    62   35   59 1
    63   36   60 1
@<TRIPOS>PROPERTY_DATA
  Total_Score	| 13.7864
  Crash		| -2.8745
  Polar		| 10.2215
  FragIndex	| 1
  FragRMSD	| 1.155

