@<TRIPOS>MOLECULE
BindingDB_50219576
 60 63 0 0 0
SMALL
NO_CHARGES


@<TRIPOS>ATOM
1    S        44.6132   13.9540    0.4367  S     
2    C        44.8397   15.4370    1.2699  C     
3    C        45.7103   15.1596    2.3339  C     
4    C        46.1127   13.8072    2.4213  C     
5    C        45.6336   12.9551    1.4068  C     
6    C        44.2401   16.6645    0.9270  C     
7    O        43.2462   16.7205    0.0138  O     
8    O        44.6968   17.8473    1.4006  O     
9    C        45.8430   11.5511    1.2255  C     
10   C        47.0179   10.8965    1.6798  C     
11   C        47.1264    9.4932    1.7492  C     
12   C        46.1161    8.7186    1.1296  C     
13   C        45.0022    9.3428    0.5387  C     
14   C        44.8531   10.7398    0.6153  C     
15   Br       47.0744   13.2222    3.9101  Br    
16   O        46.1380   16.1683    3.1628  O     
17   C        45.9010   16.0204    4.5757  C     
18   C        45.6497   17.3544    5.1044  C     
19   O        44.3736   17.6618    5.4128  O     
20   O        46.6193   17.9068    5.8743  O     
21   N        48.1869    8.9911    2.4411  N     
22   C        48.4284    7.6384    2.8647  C     
23   N        50.3151    5.7180    3.9542  N     
24   C        49.9448    5.5956    2.5651  C     
25   C        49.5295    6.9783    1.9950  C     
26   C        48.8406    7.6523    4.3691  C     
27   C        49.3134    6.2540    4.8458  C     
28   S        51.9486    5.7558    4.4169  S     
29   C        52.3783    5.0182    6.0126  C     
30   O        52.8398    4.9424    3.3774  O     
31   O        52.4949    7.2476    4.3751  O     
32   C        51.9728    3.5940    6.1420  C     
33   C        52.9300    2.5742    6.3658  C     
34   C        52.5286    1.2359    6.5375  C     
35   C        51.1632    0.8965    6.4925  C     
36   C        50.2003    1.8952    6.2724  C     
37   C        50.6042    3.2303    6.1025  C     
38   Cl       48.5540    1.5023    6.2206  Cl    
39   H        47.8133   11.4428    1.9975  H     
40   H        46.1873    7.7049    1.0908  H     
41   H        44.2779    8.7752    0.0972  H     
42   H        43.9944   11.1512    0.2338  H     
43   H        45.0596   15.3517    4.8072  H     
44   H        46.7937   15.6206    5.0578  H     
45   H        48.7974    9.6482    2.8070  H     
46   H        47.5204    7.0312    2.7998  H     
47   H        50.7485    5.1797    1.9501  H     
48   H        49.1008    4.9034    2.4836  H     
49   H        49.1562    6.8511    0.9746  H     
50   H        50.4107    7.6253    1.9570  H     
51   H        49.6551    8.3687    4.5296  H     
52   H        47.9904    7.9652    4.9813  H     
53   H        48.4572    5.5737    4.8548  H     
54   H        49.6716    6.3252    5.8742  H     
55   H        53.4594    5.1248    6.1274  H     
56   H        51.9141    5.6028    6.8074  H     
57   H        53.9271    2.8004    6.4119  H     
58   H        53.2307    0.5076    6.6978  H     
59   H        50.8709   -0.0745    6.6192  H     
60   H        49.8956    3.9414    5.9628  H     
@<TRIPOS>BOND
     1    1    2 1
     2    1    5 1
     3    2    3 2
     4    2    6 1
     5    3    4 1
     6    3   16 1
     7    4    5 2
     8    4   15 1
     9    5    9 1
    10    6    7 2
    11    6    8 1
    12    9   10 2
    13    9   14 1
    14   10   11 1
    15   11   12 2
    16   11   21 1
    17   12   13 1
    18   13   14 2
    19   16   17 1
    20   17   18 1
    21   18   19 1
    22   18   20 2
    23   21   22 1
    24   22   25 1
    25   22   26 1
    26   23   24 1
    27   23   27 1
    28   23   28 1
    29   24   25 1
    30   26   27 1
    31   28   29 1
    32   28   30 2
    33   28   31 2
    34   29   32 1
    35   32   33 2
    36   32   37 1
    37   33   34 1
    38   34   35 2
    39   35   36 1
    40   36   37 2
    41   36   38 1
    42   10   39 1
    43   12   40 1
    44   13   41 1
    45   14   42 1
    46   17   43 1
    47   17   44 1
    48   21   45 1
    49   22   46 1
    50   24   47 1
    51   24   48 1
    52   25   49 1
    53   25   50 1
    54   26   51 1
    55   26   52 1
    56   27   53 1
    57   27   54 1
    58   29   55 1
    59   29   56 1
    60   33   57 1
    61   34   58 1
    62   35   59 1
    63   37   60 1
@<TRIPOS>PROPERTY_DATA
  Total_Score	| 13.2937
  Crash		| -2.9753
  Polar		| 8.9917
  FragIndex	| 1
  FragRMSD	| 1.322

