@<TRIPOS>MOLECULE
BindingDB_50219572
 57 60 0 0 0
SMALL
NO_CHARGES


@<TRIPOS>ATOM
1    S        44.5442   14.1569    0.6636  S     
2    C        44.7327   15.6442    1.5014  C     
3    C        45.5829   15.3815    2.5804  C     
4    C        45.9728   14.0342    2.7053  C     
5    C        45.5291   13.1698    1.6778  C     
6    C        44.1191   16.8518    1.1554  C     
7    O        43.2410   16.9048    0.1340  O     
8    O        44.4319   18.0113    1.7678  O     
9    C        45.7527   11.7755    1.4850  C     
10   C        46.9176   11.1359    1.9782  C     
11   C        47.0995    9.7362    1.9095  C     
12   C        46.1559    8.9766    1.1802  C     
13   C        45.0325    9.5967    0.6065  C     
14   C        44.8161   10.9718    0.7840  C     
15   Br       46.8814   13.5326    4.2536  Br    
16   O        45.9565   16.3041    3.5233  O     
17   C        47.2160   16.9487    3.2439  C     
18   C        47.8203   17.3921    4.5098  C     
19   O        47.0769   18.0264    5.4433  O     
20   O        49.1596   17.3281    4.6906  O     
21   N        48.1659    9.2213    2.5832  N     
22   C        48.4855    7.8510    2.8796  C     
23   N        50.4359    5.9412    3.8731  N     
24   C        50.1291    5.9313    2.4622  C     
25   C        49.6685    7.3424    2.0069  C     
26   C        48.8491    7.7504    4.3916  C     
27   C        49.3918    6.3491    4.7788  C     
28   S        52.0149    5.6745    4.4362  S     
29   C        52.3260    4.2462    5.3927  C     
30   O        53.0725    5.8190    3.2572  O     
31   O        52.4483    6.9102    5.3371  O     
32   C        51.5896    4.0262    6.5779  C     
33   C        51.8576    2.9090    7.3924  C     
34   C        52.8708    2.0057    7.0328  C     
35   C        53.6209    2.2222    5.8635  C     
36   C        53.3532    3.3409    5.0481  C     
37   H        47.6530   11.6945    2.4134  H     
38   H        46.2747    7.9730    1.0456  H     
39   H        44.3525    9.0418    0.0825  H     
40   H        43.9588   11.3825    0.4013  H     
41   H        47.9313   16.2906    2.7343  H     
42   H        47.0436   17.8207    2.6112  H     
43   H        48.7241    9.8756    3.0296  H     
44   H        47.6230    7.1969    2.7120  H     
45   H        50.9759    5.6149    1.8455  H     
46   H        49.3240    5.2124    2.2818  H     
47   H        49.3590    7.3042    0.9585  H     
48   H        50.5139    8.0335    2.0874  H     
49   H        49.6151    8.4940    4.6366  H     
50   H        47.9612    7.9668    4.9930  H     
51   H        48.5826    5.6182    4.7374  H     
52   H        49.7338    6.3932    5.8122  H     
53   H        50.8642    4.6802    6.8671  H     
54   H        51.3163    2.7615    8.2470  H     
55   H        53.0634    1.1935    7.6226  H     
56   H        54.3632    1.5702    5.6058  H     
57   H        53.9213    3.4908    4.2134  H     
@<TRIPOS>BOND
     1    1    2 1
     2    1    5 1
     3    2    3 2
     4    2    6 1
     5    3    4 1
     6    3   16 1
     7    4    5 2
     8    4   15 1
     9    5    9 1
    10    6    7 2
    11    6    8 1
    12    9   10 2
    13    9   14 1
    14   10   11 1
    15   11   12 2
    16   11   21 1
    17   12   13 1
    18   13   14 2
    19   16   17 1
    20   17   18 1
    21   18   19 1
    22   18   20 2
    23   21   22 1
    24   22   25 1
    25   22   26 1
    26   23   24 1
    27   23   27 1
    28   23   28 1
    29   24   25 1
    30   26   27 1
    31   28   29 1
    32   28   30 2
    33   28   31 2
    34   29   32 2
    35   29   36 1
    36   32   33 1
    37   33   34 2
    38   34   35 1
    39   35   36 2
    40   10   37 1
    41   12   38 1
    42   13   39 1
    43   14   40 1
    44   17   41 1
    45   17   42 1
    46   21   43 1
    47   22   44 1
    48   24   45 1
    49   24   46 1
    50   25   47 1
    51   25   48 1
    52   26   49 1
    53   26   50 1
    54   27   51 1
    55   27   52 1
    56   32   53 1
    57   33   54 1
    58   34   55 1
    59   35   56 1
    60   36   57 1
@<TRIPOS>PROPERTY_DATA
  Total_Score	| 12.4195
  Crash		| -2.2154
  Polar		| 7.5012
  FragIndex	| 1
  FragRMSD	| 0.843

