@<TRIPOS>MOLECULE
BindingDB_50219586
 63 66 0 0 0
SMALL
NO_CHARGES


@<TRIPOS>ATOM
1    S        44.4789   14.2344    0.6128  S     
2    C        44.6885   15.6972    1.4924  C     
3    C        45.5565   15.4076    2.5544  C     
4    C        45.9469   14.0568    2.6295  C     
5    C        45.4848   13.2337    1.5836  C     
6    C        44.0721   16.9096    1.1713  C     
7    O        43.1360   16.9606    0.2014  O     
8    O        44.4722   18.0724    1.7265  O     
9    C        45.7300   11.8503    1.3599  C     
10   C        46.9819   11.2727    1.6834  C     
11   C        47.1982    9.8806    1.6160  C     
12   C        46.1642    9.0618    1.1052  C     
13   C        44.9496    9.6329    0.6731  C     
14   C        44.7290   11.0118    0.8216  C     
15   Br       46.8798   13.4556    4.1271  Br    
16   O        45.9262   16.3056    3.5194  O     
17   C        47.1157   17.0627    3.2217  C     
18   C        47.7335   17.4641    4.4931  C     
19   O        46.9960   18.0446    5.4610  O     
20   O        49.0701   17.3504    4.6819  O     
21   N        48.3917    9.4418    2.1063  N     
22   C        48.7621    8.1163    2.5125  C     
23   N        50.4585    6.3724    4.1279  N     
24   C        50.7498    6.4928    2.7175  C     
25   C        50.2404    7.8318    2.1213  C     
26   C        48.6199    8.0211    4.0565  C     
27   C        49.1113    6.6452    4.5757  C     
28   S        51.4901    5.4212    5.0797  S     
29   C        51.9649    3.8233    4.3667  C     
30   O        52.8088    6.2734    5.3351  O     
31   O        50.9219    5.2578    6.5565  O     
32   C        52.1576    2.7733    5.4064  C     
33   C        53.4782    2.6226    5.9081  C     
34   C        53.7752    1.6881    6.9059  C     
35   C        52.7567    0.8798    7.4256  C     
36   C        51.4470    0.9976    6.9306  C     
37   C        51.1183    1.9375    5.9232  C     
38   C        49.6949    2.0185    5.4471  C     
39   F        48.8058    1.1766    6.0752  F     
40   F        49.1981    3.2868    5.6351  F     
41   F        49.6224    1.6851    4.1163  F     
42   H        47.7428   11.8767    2.0001  H     
43   H        46.2643    8.0463    1.0491  H     
44   H        44.2148    9.0362    0.2840  H     
45   H        43.8100   11.3899    0.5614  H     
46   H        47.8426   16.4911    2.6357  H     
47   H        46.8508   17.9652    2.6677  H     
48   H        48.9835   10.1352    2.4275  H     
49   H        48.1298    7.3509    2.0461  H     
50   H        51.8250    6.4359    2.5299  H     
51   H        50.2730    5.6631    2.1900  H     
52   H        50.3306    7.7993    1.0289  H     
53   H        50.8810    8.6392    2.4867  H     
54   H        49.2112    8.8090    4.5240  H     
55   H        47.5768    8.1705    4.3333  H     
56   H        48.4535    5.8477    4.2150  H     
57   H        49.0387    6.6627    5.6678  H     
58   H        51.2081    3.5560    3.6365  H     
59   H        52.8925    3.9586    3.8062  H     
60   H        54.2411    3.2027    5.5427  H     
61   H        54.7274    1.5962    7.2643  H     
62   H        52.9698    0.2145    8.1667  H     
63   H        50.7389    0.3849    7.3380  H     
@<TRIPOS>BOND
     1    1    2 1
     2    1    5 1
     3    2    3 2
     4    2    6 1
     5    3    4 1
     6    3   16 1
     7    4    5 2
     8    4   15 1
     9    5    9 1
    10    6    7 2
    11    6    8 1
    12    9   10 2
    13    9   14 1
    14   10   11 1
    15   11   12 2
    16   11   21 1
    17   12   13 1
    18   13   14 2
    19   16   17 1
    20   17   18 1
    21   18   19 1
    22   18   20 2
    23   21   22 1
    24   22   25 1
    25   22   26 1
    26   23   24 1
    27   23   27 1
    28   23   28 1
    29   24   25 1
    30   26   27 1
    31   28   29 1
    32   28   30 2
    33   28   31 2
    34   29   32 1
    35   32   33 2
    36   32   37 1
    37   33   34 1
    38   34   35 2
    39   35   36 1
    40   36   37 2
    41   37   38 1
    42   38   39 1
    43   38   40 1
    44   38   41 1
    45   10   42 1
    46   12   43 1
    47   13   44 1
    48   14   45 1
    49   17   46 1
    50   17   47 1
    51   21   48 1
    52   22   49 1
    53   24   50 1
    54   24   51 1
    55   25   52 1
    56   25   53 1
    57   26   54 1
    58   26   55 1
    59   27   56 1
    60   27   57 1
    61   29   58 1
    62   29   59 1
    63   33   60 1
    64   34   61 1
    65   35   62 1
    66   36   63 1
@<TRIPOS>PROPERTY_DATA
  Total_Score	| 13.6228
  Crash		| -2.3696
  Polar		| 8.3915
  FragIndex	| 1
  FragRMSD	| 0.080

