@<TRIPOS>MOLECULE
BindingDB_50219596
 50 52 0 0 0
SMALL
NO_CHARGES


@<TRIPOS>ATOM
1    S        44.5734   14.2412    0.6505  S     
2    C        44.7640   15.7194    1.4936  C     
3    C        45.6010   15.4448    2.5745  C     
4    C        45.9896   14.0951    2.6907  C     
5    C        45.5409   13.2385    1.6645  C     
6    C        44.1418   16.9202    1.1530  C     
7    O        43.1685   16.9355    0.2184  O     
8    O        44.4734   18.0964    1.7297  O     
9    C        45.7281   11.8350    1.4547  C     
10   C        46.8905   11.1470    1.8991  C     
11   C        47.0274    9.7487    1.7930  C     
12   C        46.0541    9.0380    1.0604  C     
13   C        44.9173    9.6938    0.5554  C     
14   C        44.7383   11.0652    0.7869  C     
15   Br       46.9180   13.6028    4.2300  Br    
16   O        45.9534   16.3641    3.5293  O     
17   C        47.1335   17.1333    3.2182  C     
18   C        47.7545   17.5135    4.4946  C     
19   O        49.0693   17.2984    4.7204  O     
20   O        47.0159   18.0794    5.4738  O     
21   N        48.0846    9.1883    2.4466  N     
22   C        48.2913    7.8102    2.8034  C     
23   N        50.0188    5.8842    4.1207  N     
24   C        49.9558    5.8677    2.6784  C     
25   C        49.5887    7.2783    2.1435  C     
26   C        48.3852    7.7109    4.3623  C     
27   C        48.8318    6.2933    4.8253  C     
28   S        51.4263    5.4001    4.9257  S     
29   C        52.9119    6.2229    4.3128  C     
30   O        51.3720    5.7737    6.4753  O     
31   O        51.5978    3.8241    4.8477  O     
32   H        47.6637   11.6652    2.3116  H     
33   H        46.1481    8.0401    0.8761  H     
34   H        44.2093    9.1697    0.0476  H     
35   H        43.8648   11.4964    0.4636  H     
36   H        47.8703   16.5784    2.6226  H     
37   H        46.8623   18.0336    2.6707  H     
38   H        48.7161    9.8108    2.8402  H     
39   H        47.4615    7.1658    2.5141  H     
40   H        50.9012    5.5572    2.2206  H     
41   H        49.1951    5.1469    2.3640  H     
42   H        49.4469    7.2305    1.0617  H     
43   H        50.4176    7.9650    2.3507  H     
44   H        49.1076    8.4430    4.7374  H     
45   H        47.4071    7.9267    4.7972  H     
46   H        48.0355    5.5772    4.6069  H     
47   H        48.9581    6.3168    5.9071  H     
48   H        53.0903    5.9336    3.2717  H     
49   H        53.7678    5.9214    4.9135  H     
50   H        52.7835    7.3041    4.3676  H     
@<TRIPOS>BOND
     1    1    2 1
     2    1    5 1
     3    2    3 2
     4    2    6 1
     5    3    4 1
     6    3   16 1
     7    4    5 2
     8    4   15 1
     9    5    9 1
    10    6    7 2
    11    6    8 1
    12    9   10 2
    13    9   14 1
    14   10   11 1
    15   11   12 2
    16   11   21 1
    17   12   13 1
    18   13   14 2
    19   16   17 1
    20   17   18 1
    21   18   19 1
    22   18   20 2
    23   21   22 1
    24   22   25 1
    25   22   26 1
    26   23   24 1
    27   23   27 1
    28   23   28 1
    29   24   25 1
    30   26   27 1
    31   28   29 1
    32   28   30 2
    33   28   31 2
    34   10   32 1
    35   12   33 1
    36   13   34 1
    37   14   35 1
    38   17   36 1
    39   17   37 1
    40   21   38 1
    41   22   39 1
    42   24   40 1
    43   24   41 1
    44   25   42 1
    45   25   43 1
    46   26   44 1
    47   26   45 1
    48   27   46 1
    49   27   47 1
    50   29   48 1
    51   29   49 1
    52   29   50 1
@<TRIPOS>PROPERTY_DATA
  Total_Score	| 12.2166
  Crash		| -2.1923
  Polar		| 7.6769
  FragIndex	| 1
  FragRMSD	| 0.984

