@<TRIPOS>MOLECULE
BindingDB_50219565
 66 69 0 0 0
SMALL
NO_CHARGES


@<TRIPOS>ATOM
1    S        44.4665   14.2655    0.6117  S     
2    C        44.6679   15.7169    1.5087  C     
3    C        45.5063   15.4085    2.5827  C     
4    C        45.8929   14.0570    2.6536  C     
5    C        45.4362   13.2410    1.5992  C     
6    C        44.0684   16.9419    1.1951  C     
7    O        43.1633   17.0168    0.1989  O     
8    O        44.4012   18.0841    1.8323  O     
9    C        45.6595   11.8561    1.3569  C     
10   C        46.8612   11.2247    1.7621  C     
11   C        47.0429    9.8280    1.6706  C     
12   C        46.0514    9.0666    1.0098  C     
13   C        44.8863    9.6824    0.5192  C     
14   C        44.6811   11.0580    0.7144  C     
15   Br       46.8446   13.4760    4.1444  Br    
16   O        45.8786   16.3081    3.5417  O     
17   C        47.1607   16.9187    3.2931  C     
18   C        47.7506   17.3213    4.5749  C     
19   O        47.0048   17.9915    5.4787  O     
20   O        49.0924   17.4822    4.6405  O     
21   N        48.1493    9.3335    2.2854  N     
22   C        48.4903    7.9762    2.5895  C     
23   N        50.2264    6.1512    4.0475  N     
24   C        50.4399    6.3026    2.6269  C     
25   C        49.9419    7.6861    2.1284  C     
26   C        48.3687    7.7725    4.1262  C     
27   C        48.8959    6.3814    4.5518  C     
28   S        51.2601    5.1712    4.9674  S     
29   C        50.7729    3.4268    4.9782  C     
30   O        52.7833    5.3897    4.5590  O     
31   O        51.2100    5.7287    6.4520  O     
32   C        51.8292    2.5502    5.5833  C     
33   C        52.7547    1.8592    4.7340  C     
34   C        53.7907    1.0950    5.3162  C     
35   C        53.9369    1.0074    6.7044  C     
36   C        53.0263    1.6631    7.5393  C     
37   C        51.9524    2.4156    7.0043  C     
38   C        50.9734    3.0051    7.9666  C     
39   C        52.6743    1.8764    3.2432  C     
40   H        47.6164   11.7876    2.1654  H     
41   H        46.1619    8.0647    0.8706  H     
42   H        44.1787    9.1217    0.0380  H     
43   H        43.8000   11.4663    0.3927  H     
44   H        47.8648   16.2346    2.8053  H     
45   H        47.0398   17.8014    2.6612  H     
46   H        48.7355    9.9977    2.6840  H     
47   H        47.8251    7.2614    2.1051  H     
48   H        51.4984    6.2155    2.3647  H     
49   H        49.9032    5.5085    2.0983  H     
50   H        49.9873    7.7180    1.0358  H     
51   H        50.6137    8.4564    2.5174  H     
52   H        48.9399    8.5422    4.6530  H     
53   H        47.3221    7.8600    4.4309  H     
54   H        48.2341    5.6028    4.1614  H     
55   H        48.8568    6.3292    5.6452  H     
56   H        49.8254    3.3501    5.5088  H     
57   H        50.5434    3.1352    3.9537  H     
58   H        54.4641    0.5895    4.7346  H     
59   H        54.6982    0.4562    7.1099  H     
60   H        53.1490    1.5745    8.5504  H     
61   H        50.9140    4.0810    7.8429  H     
62   H        51.2292    2.8056    9.0133  H     
63   H        49.9878    2.5620    7.7946  H     
64   H        51.7400    1.4165    2.9168  H     
65   H        53.4898    1.3291    2.7654  H     
66   H        52.7134    2.9001    2.8722  H     
@<TRIPOS>BOND
     1    1    2 1
     2    1    5 1
     3    2    3 2
     4    2    6 1
     5    3    4 1
     6    3   16 1
     7    4    5 2
     8    4   15 1
     9    5    9 1
    10    6    7 2
    11    6    8 1
    12    9   10 2
    13    9   14 1
    14   10   11 1
    15   11   12 2
    16   11   21 1
    17   12   13 1
    18   13   14 2
    19   16   17 1
    20   17   18 1
    21   18   19 1
    22   18   20 2
    23   21   22 1
    24   22   25 1
    25   22   26 1
    26   23   24 1
    27   23   27 1
    28   23   28 1
    29   24   25 1
    30   26   27 1
    31   28   29 1
    32   28   30 2
    33   28   31 2
    34   29   32 1
    35   32   33 2
    36   32   37 1
    37   33   34 1
    38   33   39 1
    39   34   35 2
    40   35   36 1
    41   36   37 2
    42   37   38 1
    43   10   40 1
    44   12   41 1
    45   13   42 1
    46   14   43 1
    47   17   44 1
    48   17   45 1
    49   21   46 1
    50   22   47 1
    51   24   48 1
    52   24   49 1
    53   25   50 1
    54   25   51 1
    55   26   52 1
    56   26   53 1
    57   27   54 1
    58   27   55 1
    59   29   56 1
    60   29   57 1
    61   34   58 1
    62   35   59 1
    63   36   60 1
    64   38   61 1
    65   38   62 1
    66   38   63 1
    67   39   64 1
    68   39   65 1
    69   39   66 1
@<TRIPOS>PROPERTY_DATA
  Total_Score	| 13.0817
  Crash		| -2.2165
  Polar		| 7.7570
  FragIndex	| 1
  FragRMSD	| 0.669

