@<TRIPOS>MOLECULE
BindingDB_50219592
 63 66 0 0 0
SMALL
NO_CHARGES


@<TRIPOS>ATOM
1    C        49.4402    8.5766    2.6866  C     
2    N        50.7717    6.4298    4.1445  N     
3    C        51.3879    6.8888    2.9245  C     
4    C        50.9860    8.3576    2.6456  C     
5    C        48.8604    7.9670    3.9967  C     
6    C        49.3340    6.5132    4.2486  C     
7    S        51.6281    5.3584    5.1352  S     
8    C        51.8130    3.7249    4.3907  C     
9    O        53.0430    5.9995    5.4817  O     
10   O        50.9196    5.2624    6.5563  O     
11   C        52.1525    2.7126    5.4185  C     
12   C        51.1458    1.8842    5.9636  C     
13   C        51.4560    0.9532    6.9696  C     
14   C        52.7776    0.8309    7.4330  C     
15   C        53.7916    1.6399    6.8902  C     
16   C        53.4800    2.5799    5.8892  C     
17   S        44.4303   14.2088    0.1813  S     
18   C        44.7968   15.5456    1.1990  C     
19   C        45.7131   15.0939    2.1601  C     
20   C        46.0675   13.7370    2.0235  C     
21   C        45.4656   13.0688    0.9430  C     
22   C        44.2432   16.8265    1.0640  C     
23   O        44.8065   17.9092    1.6422  O     
24   O        43.2239   17.0374    0.2092  O     
25   C        45.6027   11.7089    0.5934  C     
26   C        46.8899   11.1291    0.5108  C     
27   C        47.0534    9.7304    0.4776  C     
28   C        45.9031    8.9134    0.3781  C     
29   C        44.6207    9.4885    0.3130  C     
30   C        44.4681   10.8810    0.4410  C     
31   O        46.1673   15.9052    3.1696  O     
32   C        45.5611   15.6662    4.4602  C     
33   C        45.3411   16.9581    5.1248  C     
34   O        46.3691   17.6296    5.7100  O     
35   O        44.0839   17.4070    5.3203  O     
36   N        48.3209    9.2656    0.6287  N     
37   C        48.7098    8.1070    1.3765  C     
38   Br       47.1346   12.8796    3.2885  Br    
39   H        49.2892    9.6576    2.7949  H     
40   H        52.4818    6.8526    2.9779  H     
41   H        51.0763    6.2465    2.0929  H     
42   H        51.3911    8.6754    1.6762  H     
43   H        51.4548    8.9819    3.4166  H     
44   H        49.2003    8.5849    4.8371  H     
45   H        47.7624    8.0096    3.9867  H     
46   H        48.8738    5.8386    3.5152  H     
47   H        48.9791    6.2228    5.2450  H     
48   H        50.8724    3.4837    3.8913  H     
49   H        52.5915    3.7699    3.6226  H     
50   H        50.1756    1.9638    5.6467  H     
51   H        50.7202    0.3670    7.3613  H     
52   H        53.0010    0.1544    8.1648  H     
53   H        54.7518    1.5523    7.2306  H     
54   H        54.2252    3.1678    5.5066  H     
55   H        47.7177   11.7281    0.5867  H     
56   H        45.9884    7.8963    0.3254  H     
57   H        43.7997    8.8863    0.2269  H     
58   H        43.5261   11.2744    0.4777  H     
59   H        44.6022   15.1417    4.3831  H     
60   H        46.2254   15.0604    5.0818  H     
61   H        49.0301    9.9184    0.5110  H     
62   H        49.3661    7.4981    0.7433  H     
63   H        47.8515    7.4753    1.6353  H     
@<TRIPOS>BOND
     1    1    4 1
     2    1    5 1
     3    1   37 1
     4    2    3 1
     5    2    6 1
     6    2    7 1
     7    3    4 1
     8    5    6 1
     9    7    8 1
    10    7    9 2
    11    7   10 2
    12    8   11 1
    13   11   12 2
    14   11   16 1
    15   12   13 1
    16   13   14 2
    17   14   15 1
    18   15   16 2
    19   17   18 1
    20   17   21 1
    21   18   19 2
    22   18   22 1
    23   19   20 1
    24   19   31 1
    25   20   21 2
    26   20   38 1
    27   21   25 1
    28   22   23 2
    29   22   24 1
    30   25   26 2
    31   25   30 1
    32   26   27 1
    33   27   28 2
    34   27   36 1
    35   28   29 1
    36   29   30 2
    37   31   32 1
    38   32   33 1
    39   33   34 1
    40   33   35 2
    41   36   37 1
    42    1   39 1
    43    3   40 1
    44    3   41 1
    45    4   42 1
    46    4   43 1
    47    5   44 1
    48    5   45 1
    49    6   46 1
    50    6   47 1
    51    8   48 1
    52    8   49 1
    53   12   50 1
    54   13   51 1
    55   14   52 1
    56   15   53 1
    57   16   54 1
    58   26   55 1
    59   28   56 1
    60   29   57 1
    61   30   58 1
    62   32   59 1
    63   32   60 1
    64   36   61 1
    65   37   62 1
    66   37   63 1
@<TRIPOS>PROPERTY_DATA
  Total_Score	| 12.5406
  Crash		| -3.3992
  Polar		| 9.4060
  FragIndex	| 1
  FragRMSD	| 0.404

