@<TRIPOS>MOLECULE
BindingDB_50219580
 60 63 0 0 0
SMALL
NO_CHARGES


@<TRIPOS>ATOM
1    S        44.4704   14.1405    0.7975  S     
2    C        44.7117   15.6587    1.5651  C     
3    C        45.5768   15.4141    2.6389  C     
4    C        45.9516   14.0645    2.8009  C     
5    C        45.4511   13.1713    1.8358  C     
6    C        44.1297   16.8654    1.1510  C     
7    O        43.2310   16.8814    0.1483  O     
8    O        44.5122   18.0554    1.6626  O     
9    C        45.6722   11.7716    1.6471  C     
10   C        46.8828   11.1419    2.0284  C     
11   C        47.1418    9.7728    1.7625  C     
12   C        46.1601    9.0334    1.0627  C     
13   C        44.9470    9.6262    0.6833  C     
14   C        44.7060   10.9788    0.9803  C     
15   Br       46.9460   13.5881    4.3001  Br    
16   O        45.9839   16.3711    3.5255  O     
17   C        47.2822   16.9307    3.2392  C     
18   C        47.8717   17.3687    4.5098  C     
19   O        47.1146   18.0197    5.4191  O     
20   O        49.2157   17.3370    4.6881  O     
21   N        48.3464    9.2708    2.1524  N     
22   C        48.9642    8.0310    1.7410  C     
23   N        50.4360    6.7425    3.9312  N     
24   C        50.9776    7.9538    3.3667  C     
25   C        50.5094    8.1247    1.8956  C     
26   C        48.4362    6.7551    2.4741  C     
27   C        49.0062    6.5613    3.9057  C     
28   S        51.4819    5.6212    4.6782  S     
29   C        50.8716    4.3870    5.8651  C     
30   O        52.3600    4.8943    3.5601  O     
31   O        52.5203    6.4763    5.5349  O     
32   C        51.7165    3.1569    5.9470  C     
33   C        51.1334    1.8683    5.8558  C     
34   C        51.9260    0.7058    5.9176  C     
35   C        53.3195    0.8142    6.0691  C     
36   C        53.9132    2.0847    6.1828  C     
37   C        53.1177    3.2468    6.1332  C     
38   Cl       54.2901   -0.5716    6.1051  Cl    
39   H        47.6306   11.6972    2.4470  H     
40   H        46.3197    8.0557    0.8099  H     
41   H        44.2445    9.0825    0.1741  H     
42   H        43.8131   11.3776    0.6876  H     
43   H        47.9705   16.2241    2.7541  H     
44   H        47.1717   17.7988    2.5864  H     
45   H        48.9208    9.8835    2.6412  H     
46   H        48.7749    7.9117    0.6661  H     
47   H        50.6371    8.8065    3.9667  H     
48   H        52.0731    7.9588    3.3660  H     
49   H        50.9771    7.3385    1.2909  H     
50   H        50.8731    9.0849    1.5103  H     
51   H        47.3469    6.7667    2.5325  H     
52   H        48.7273    5.8808    1.8781  H     
53   H        48.7212    5.5526    4.2257  H     
54   H        48.5415    7.2734    4.6027  H     
55   H        50.8253    4.8492    6.8478  H     
56   H        49.8531    4.1210    5.5851  H     
57   H        50.1225    1.7670    5.7368  H     
58   H        51.4866   -0.2141    5.8312  H     
59   H        54.9245    2.1737    6.2822  H     
60   H        53.5691    4.1581    6.2279  H     
@<TRIPOS>BOND
     1    1    2 1
     2    1    5 1
     3    2    3 2
     4    2    6 1
     5    3    4 1
     6    3   16 1
     7    4    5 2
     8    4   15 1
     9    5    9 1
    10    6    7 2
    11    6    8 1
    12    9   10 2
    13    9   14 1
    14   10   11 1
    15   11   12 2
    16   11   21 1
    17   12   13 1
    18   13   14 2
    19   16   17 1
    20   17   18 1
    21   18   19 1
    22   18   20 2
    23   21   22 1
    24   22   25 1
    25   22   26 1
    26   23   24 1
    27   23   27 1
    28   23   28 1
    29   24   25 1
    30   26   27 1
    31   28   29 1
    32   28   30 2
    33   28   31 2
    34   29   32 1
    35   32   33 2
    36   32   37 1
    37   33   34 1
    38   34   35 2
    39   35   36 1
    40   35   38 1
    41   36   37 2
    42   10   39 1
    43   12   40 1
    44   13   41 1
    45   14   42 1
    46   17   43 1
    47   17   44 1
    48   21   45 1
    49   22   46 1
    50   24   47 1
    51   24   48 1
    52   25   49 1
    53   25   50 1
    54   26   51 1
    55   26   52 1
    56   27   53 1
    57   27   54 1
    58   29   55 1
    59   29   56 1
    60   33   57 1
    61   34   58 1
    62   36   59 1
    63   37   60 1
@<TRIPOS>PROPERTY_DATA
  Total_Score	| 12.5130
  Crash		| -2.3733
  Polar		| 8.8805
  FragIndex	| 1
  FragRMSD	| 0.866

