@<TRIPOS>MOLECULE
BindingDB_50219577
 62 65 0 0 0
SMALL
NO_CHARGES


@<TRIPOS>ATOM
1    S        44.4787   14.1536    0.7619  S     
2    C        44.6987   15.6831    1.5081  C     
3    C        45.5397   15.4630    2.6046  C     
4    C        45.8991   14.1088    2.8023  C     
5    C        45.4620   13.2015    1.8104  C     
6    C        44.1126   16.8793    1.0967  C     
7    O        43.1577   16.8907    0.1364  O     
8    O        44.5355   18.0797    1.5431  O     
9    C        45.6631   11.7869    1.6554  C     
10   C        46.8361   11.1247    2.1293  C     
11   C        47.1069    9.7585    1.8723  C     
12   C        46.1709    9.0397    1.1040  C     
13   C        44.9927    9.6511    0.6417  C     
14   C        44.7242   10.9994    0.9370  C     
15   Br       46.8823   13.6735    4.3209  Br    
16   O        45.9163   16.4232    3.5072  O     
17   C        47.1906   17.0428    3.2272  C     
18   C        47.7955   17.4622    4.4978  C     
19   O        49.1278   17.3421    4.7039  O     
20   O        47.0557   18.0498    5.4598  O     
21   N        48.2759    9.2272    2.3287  N     
22   C        48.9394    8.0237    1.8840  C     
23   N        50.3123    6.7071    4.1123  N     
24   C        50.8802    7.9352    3.6074  C     
25   C        50.4734    8.1554    2.1225  C     
26   C        48.4053    6.7149    2.5655  C     
27   C        48.8797    6.5558    4.0344  C     
28   S        51.2318    5.5984    4.9986  S     
29   C        51.2379    3.9330    4.2956  C     
30   O        52.7147    6.1323    5.2329  O     
31   O        50.6569    5.5597    6.4794  O     
32   C        51.7130    2.9372    5.2906  C     
33   C        50.7777    2.0432    5.8764  C     
34   C        51.1753    1.1260    6.8669  C     
35   C        52.5177    1.0774    7.2755  C     
36   C        53.4631    1.9471    6.7035  C     
37   C        53.0664    2.8821    5.7245  C     
38   N        54.0051    3.7073    5.2203  N     
39   H        47.5555   11.6608    2.6054  H     
40   H        46.3231    8.0594    0.8736  H     
41   H        44.3069    9.1030    0.1074  H     
42   H        43.8729   11.4154    0.5410  H     
43   H        47.8916   16.3696    2.7232  H     
44   H        47.0582   17.9188    2.5903  H     
45   H        48.7732    9.7796    2.9500  H     
46   H        48.8103    7.9200    0.7936  H     
47   H        50.5133    8.7643    4.2339  H     
48   H        51.9771    7.9426    3.6572  H     
49   H        51.0038    7.4132    1.5144  H     
50   H        50.8146    9.1473    1.8076  H     
51   H        47.3121    6.6830    2.5323  H     
52   H        48.7776    5.8520    2.0001  H     
53   H        48.5512    5.5678    4.3848  H     
54   H        48.3888    7.3060    4.6682  H     
55   H        50.2131    3.7094    3.9734  H     
56   H        51.8515    3.9184    3.3928  H     
57   H        49.7924    2.0696    5.6048  H     
58   H        50.4838    0.4982    7.2919  H     
59   H        52.8052    0.4104    7.9989  H     
60   H        54.4377    1.8984    7.0224  H     
61   H        54.9191    3.6260    5.5310  H     
62   H        53.7755    4.3643    4.5352  H     
@<TRIPOS>BOND
     1    1    2 1
     2    1    5 1
     3    2    3 2
     4    2    6 1
     5    3    4 1
     6    3   16 1
     7    4    5 2
     8    4   15 1
     9    5    9 1
    10    6    7 2
    11    6    8 1
    12    9   10 2
    13    9   14 1
    14   10   11 1
    15   11   12 2
    16   11   21 1
    17   12   13 1
    18   13   14 2
    19   16   17 1
    20   17   18 1
    21   18   19 1
    22   18   20 2
    23   21   22 1
    24   22   25 1
    25   22   26 1
    26   23   24 1
    27   23   27 1
    28   23   28 1
    29   24   25 1
    30   26   27 1
    31   28   29 1
    32   28   30 2
    33   28   31 2
    34   29   32 1
    35   32   33 2
    36   32   37 1
    37   33   34 1
    38   34   35 2
    39   35   36 1
    40   36   37 2
    41   37   38 1
    42   10   39 1
    43   12   40 1
    44   13   41 1
    45   14   42 1
    46   17   43 1
    47   17   44 1
    48   21   45 1
    49   22   46 1
    50   24   47 1
    51   24   48 1
    52   25   49 1
    53   25   50 1
    54   26   51 1
    55   26   52 1
    56   27   53 1
    57   27   54 1
    58   29   55 1
    59   29   56 1
    60   33   57 1
    61   34   58 1
    62   35   59 1
    63   36   60 1
    64   38   61 1
    65   38   62 1
@<TRIPOS>PROPERTY_DATA
  Total_Score	| 14.2007
  Crash		| -2.5783
  Polar		| 9.1129
  FragIndex	| 1
  FragRMSD	| 0.755

