@<TRIPOS>MOLECULE
BindingDB_50219583
 72 75 0 0 0
SMALL
NO_CHARGES


@<TRIPOS>ATOM
1    S        44.5081   14.0970    0.7694  S     
2    C        44.7252   15.6209    1.5380  C     
3    C        45.6212   15.4031    2.5937  C     
4    C        46.0195   14.0595    2.7525  C     
5    C        45.5268   13.1542    1.7923  C     
6    C        44.0840   16.8075    1.1510  C     
7    O        44.4269   18.0037    1.6755  O     
8    O        43.1508   16.8089    0.1766  O     
9    C        45.7529   11.7526    1.6336  C     
10   C        46.9489   11.1329    2.0742  C     
11   C        47.2110    9.7567    1.8581  C     
12   C        46.2479    9.0029    1.1440  C     
13   C        45.0603    9.5906    0.6940  C     
14   C        44.8048   10.9431    0.9608  C     
15   Br       47.0326   13.6043    4.2449  Br    
16   O        46.0038   16.3754    3.4790  O     
17   C        47.2802   16.9862    3.2009  C     
18   C        47.8542   17.4440    4.4753  C     
19   O        49.1619   17.2528    4.7551  O     
20   O        47.0884   18.0723    5.3926  O     
21   N        48.3975    9.2544    2.3036  N     
22   C        49.0306    8.0235    1.9005  C     
23   N        50.5410    6.7033    4.0296  N     
24   C        51.1175    7.8997    3.4536  C     
25   C        50.5836    8.1155    2.0093  C     
26   C        48.5037    6.7714    2.6714  C     
27   C        49.1041    6.6359    4.0977  C     
28   S        51.4757    5.5703    4.8838  S     
29   C        51.2984    3.8741    4.2602  C     
30   O        53.0200    5.9555    4.8566  O     
31   O        51.0435    5.6030    6.4192  O     
32   C        51.7205    2.8435    5.2615  C     
33   C        50.8132    2.4919    6.2975  C     
34   C        51.1742    1.5662    7.2973  C     
35   C        52.4695    1.0256    7.3137  C     
36   C        53.3885    1.3694    6.3019  C     
37   C        53.0146    2.2472    5.2582  C     
38   N        53.9551    2.5109    4.3006  N     
39   C        54.0990    1.8736    3.1391  C     
40   N        55.0500    2.1530    2.2539  N     
41   O        53.3451    0.9559    2.8288  O     
42   C        56.0739    3.1564    2.3282  C     
43   C        55.6379    4.4250    1.5678  C     
44   H        47.6763   11.6955    2.5189  H     
45   H        46.3978    8.0112    0.9379  H     
46   H        44.3795    9.0313    0.1726  H     
47   H        43.9210   11.3343    0.6314  H     
48   H        47.9905   16.2985    2.7247  H     
49   H        47.1467   17.8511    2.5483  H     
50   H        48.9209    9.8289    2.8879  H     
51   H        48.8193    7.8782    0.8347  H     
52   H        50.8494    8.7649    4.0766  H     
53   H        52.2111    7.8513    3.4036  H     
54   H        51.0287    7.3520    1.3657  H     
55   H        50.9248    9.0886    1.6391  H     
56   H        47.4137    6.8007    2.7597  H     
57   H        48.7689    5.8730    2.1021  H     
58   H        48.7572    5.6877    4.5200  H     
59   H        48.7321    7.4424    4.7433  H     
60   H        50.2524    3.7324    3.9898  H     
61   H        51.8632    3.7610    3.3281  H     
62   H        49.8821    2.9112    6.3407  H     
63   H        50.4984    1.3020    8.0219  H     
64   H        52.7386    0.3687    8.0520  H     
65   H        54.3252    0.9493    6.3193  H     
66   H        54.6496    3.1359    4.5619  H     
67   H        55.0428    1.6157    1.4402  H     
68   H        56.3209    3.4359    3.3559  H     
69   H        56.9719    2.7497    1.8623  H     
70   H        55.3715    4.1797    0.5387  H     
71   H        56.4640    5.1429    1.5628  H     
72   H        54.7690    4.8735    2.0510  H     
@<TRIPOS>BOND
     1    1    2 1
     2    1    5 1
     3    2    3 2
     4    2    6 1
     5    3    4 1
     6    3   16 1
     7    4    5 2
     8    4   15 1
     9    5    9 1
    10    6    7 2
    11    6    8 1
    12    9   10 2
    13    9   14 1
    14   10   11 1
    15   11   12 2
    16   11   21 1
    17   12   13 1
    18   13   14 2
    19   16   17 1
    20   17   18 1
    21   18   19 1
    22   18   20 2
    23   21   22 1
    24   22   25 1
    25   22   26 1
    26   23   24 1
    27   23   27 1
    28   23   28 1
    29   24   25 1
    30   26   27 1
    31   28   29 1
    32   28   30 2
    33   28   31 2
    34   29   32 1
    35   32   33 2
    36   32   37 1
    37   33   34 1
    38   34   35 2
    39   35   36 1
    40   36   37 2
    41   37   38 1
    42   38   39 am
    43   39   40 am
    44   39   41 2
    45   40   42 1
    46   42   43 1
    47   10   44 1
    48   12   45 1
    49   13   46 1
    50   14   47 1
    51   17   48 1
    52   17   49 1
    53   21   50 1
    54   22   51 1
    55   24   52 1
    56   24   53 1
    57   25   54 1
    58   25   55 1
    59   26   56 1
    60   26   57 1
    61   27   58 1
    62   27   59 1
    63   29   60 1
    64   29   61 1
    65   33   62 1
    66   34   63 1
    67   35   64 1
    68   36   65 1
    69   38   66 1
    70   40   67 1
    71   42   68 1
    72   42   69 1
    73   43   70 1
    74   43   71 1
    75   43   72 1
@<TRIPOS>PROPERTY_DATA
  Total_Score	| 12.5559
  Crash		| -2.5804
  Polar		| 7.9653
  FragIndex	| 1
  FragRMSD	| 0.934

