@<TRIPOS>MOLECULE
BindingDB_50219602
 60 63 0 0 0
SMALL
NO_CHARGES


@<TRIPOS>ATOM
1    S        44.4980   14.0587    0.8288  S     
2    C        44.7592   15.5491    1.6471  C     
3    C        45.6517   15.2622    2.6913  C     
4    C        46.0464   13.9116    2.7724  C     
5    C        45.5116   13.0538    1.7984  C     
6    C        44.1688   16.7751    1.2895  C     
7    O        43.3065   16.8516    0.2536  O     
8    O        44.5434   17.9432    1.8526  O     
9    C        45.7522   11.6581    1.6179  C     
10   C        46.9261   11.0318    2.1156  C     
11   C        47.2098    9.6647    1.8786  C     
12   C        46.2679    8.9074    1.1424  C     
13   C        45.0886    9.4969    0.6606  C     
14   C        44.8340   10.8576    0.8957  C     
15   O        46.0557   16.1570    3.6409  O     
16   C        47.2163   16.9314    3.2866  C     
17   C        47.8226   17.4208    4.5322  C     
18   O        47.0662   18.0198    5.4808  O     
19   O        49.1506   17.2923    4.7456  O     
20   N        48.3963    9.1707    2.3350  N     
21   C        49.0253    7.9238    1.9819  C     
22   N        50.4943    6.8035    4.2468  N     
23   C        51.0703    7.9431    3.5818  C     
24   C        50.5743    8.0242    2.1149  C     
25   C        48.4955    6.7154    2.8109  C     
26   C        49.0590    6.6808    4.2552  C     
27   S        51.4512    5.6933    5.0996  S     
28   C        51.6067    4.0657    4.3280  C     
29   O        52.8884    6.3010    5.4055  O     
30   O        50.8508    5.5430    6.5645  O     
31   C        51.9680    3.0186    5.3199  C     
32   C        50.9695    2.1998    5.9008  C     
33   C        51.3049    1.2201    6.8546  C     
34   C        52.6448    1.0438    7.2405  C     
35   C        53.6491    1.8426    6.6666  C     
36   C        53.3131    2.8279    5.7177  C     
37   H        46.6694   13.5860    3.5144  H     
38   H        47.6188   11.5890    2.6230  H     
39   H        46.4273    7.9188    0.9449  H     
40   H        44.4139    8.9342    0.1360  H     
41   H        43.9629   11.2518    0.5319  H     
42   H        47.9582   16.3413    2.7360  H     
43   H        46.9293   17.7877    2.6730  H     
44   H        48.9330    9.7789    2.8678  H     
45   H        48.8254    7.7325    0.9226  H     
46   H        50.7821    8.8500    4.1204  H     
47   H        52.1631    7.9058    3.5649  H     
48   H        51.0269    7.1970    1.5597  H     
49   H        50.9306    8.9533    1.6608  H     
50   H        47.4042    6.7317    2.8546  H     
51   H        48.7888    5.7900    2.3064  H     
52   H        48.7304    5.7496    4.7257  H     
53   H        48.6333    7.5055    4.8341  H     
54   H        50.6506    3.8345    3.8540  H     
55   H        52.3557    4.1163    3.5357  H     
56   H        49.9871    2.3186    5.6418  H     
57   H        50.5742    0.6373    7.2687  H     
58   H        52.8886    0.3376    7.9388  H     
59   H        54.6239    1.7084    6.9441  H     
60   H        54.0576    3.4046    5.3177  H     
@<TRIPOS>BOND
     1    1    2 1
     2    1    5 1
     3    2    3 2
     4    2    6 1
     5    3    4 1
     6    3   15 1
     7    4    5 2
     8    5    9 1
     9    6    7 2
    10    6    8 1
    11    9   10 2
    12    9   14 1
    13   10   11 1
    14   11   12 2
    15   11   20 1
    16   12   13 1
    17   13   14 2
    18   15   16 1
    19   16   17 1
    20   17   18 1
    21   17   19 2
    22   20   21 1
    23   21   24 1
    24   21   25 1
    25   22   23 1
    26   22   26 1
    27   22   27 1
    28   23   24 1
    29   25   26 1
    30   27   28 1
    31   27   29 2
    32   27   30 2
    33   28   31 1
    34   31   32 2
    35   31   36 1
    36   32   33 1
    37   33   34 2
    38   34   35 1
    39   35   36 2
    40    4   37 1
    41   10   38 1
    42   12   39 1
    43   13   40 1
    44   14   41 1
    45   16   42 1
    46   16   43 1
    47   20   44 1
    48   21   45 1
    49   23   46 1
    50   23   47 1
    51   24   48 1
    52   24   49 1
    53   25   50 1
    54   25   51 1
    55   26   52 1
    56   26   53 1
    57   28   54 1
    58   28   55 1
    59   32   56 1
    60   33   57 1
    61   34   58 1
    62   35   59 1
    63   36   60 1
@<TRIPOS>PROPERTY_DATA
  Total_Score	| 13.7056
  Crash		| -1.0459
  Polar		| 8.2302
  FragIndex	| 1
  FragRMSD	| 0.492

