@<TRIPOS>MOLECULE
BindingDB_50219584
 67 70 0 0 0
SMALL
NO_CHARGES


@<TRIPOS>ATOM
1    S        44.4752   14.1415    0.3872  S     
2    C        44.8128   15.5850    1.2604  C     
3    C        45.7206   15.2446    2.2704  C     
4    C        46.0685   13.8790    2.3051  C     
5    C        45.4923   13.0867    1.2887  C     
6    C        44.2262   16.8287    0.9785  C     
7    O        43.2107   16.9256    0.0937  O     
8    O        44.6843   17.9774    1.5276  O     
9    C        45.6198   11.6861    1.0483  C     
10   C        46.7634   10.9691    1.4769  C     
11   C        46.8142    9.5583    1.4733  C     
12   C        45.7579    8.8617    0.8411  C     
13   C        44.6719    9.5561    0.2871  C     
14   C        44.5838   10.9512    0.4209  C     
15   Br       47.0752   13.2070    3.7196  Br    
16   O        46.1928   16.1695    3.1588  O     
17   C        45.8188   15.9574    4.5335  C     
18   C        45.5924   17.2702    5.1257  C     
19   O        44.3110   17.6260    5.3781  O     
20   O        46.5531   17.7948    5.9263  O     
21   N        47.8566    8.9971    2.1408  N     
22   C        48.1035    7.6275    2.5201  C     
23   N        50.4215    6.3212    3.8494  N     
24   C        50.6441    7.0941    2.6438  C     
25   C        49.3673    7.1039    1.7583  C     
26   C        48.2631    7.5725    4.0763  C     
27   C        49.1573    6.3916    4.5436  C     
28   S        51.6475    5.3603    4.5236  S     
29   C        50.9963    3.8934    5.3761  C     
30   O        52.6433    4.8947    3.3756  O     
31   O        52.5166    6.2459    5.5223  O     
32   C        51.9686    2.8062    5.6760  C     
33   C        52.4880    2.1057    4.5533  C     
34   C        53.3047    0.9732    4.7018  C     
35   C        53.6251    0.5076    5.9848  C     
36   C        53.1029    1.1719    7.1092  C     
37   C        52.2659    2.3055    6.9857  C     
38   N        51.7268    2.6878    8.1863  N     
39   C        51.5089    3.8599    8.7625  C     
40   C        51.1952    3.8570   10.1819  C     
41   O        51.7459    4.9209    8.2117  O     
42   H        47.5689   11.4818    1.8516  H     
43   H        45.7718    7.8457    0.7843  H     
44   H        43.9180    9.0407   -0.1704  H     
45   H        43.7395   11.4195    0.0829  H     
46   H        44.9161   15.3397    4.6385  H     
47   H        46.6284   15.4655    5.0777  H     
48   H        48.5118    9.6281    2.4918  H     
49   H        47.2562    6.9893    2.2470  H     
50   H        50.8939    8.1191    2.9276  H     
51   H        51.4630    6.7038    2.0404  H     
52   H        49.1757    6.0769    1.4293  H     
53   H        49.5523    7.6984    0.8522  H     
54   H        48.7308    8.5007    4.4353  H     
55   H        47.2757    7.4964    4.5483  H     
56   H        48.6081    5.4584    4.3799  H     
57   H        49.3230    6.5086    5.6173  H     
58   H        50.5437    4.2603    6.2895  H     
59   H        50.1890    3.4816    4.7656  H     
60   H        52.2454    2.3921    3.6019  H     
61   H        53.6635    0.4779    3.8825  H     
62   H        54.1913   -0.3317    6.0975  H     
63   H        53.3254    0.7791    8.0310  H     
64   H        51.6139    1.9534    8.8031  H     
65   H        50.2392    3.3556   10.3528  H     
66   H        51.1338    4.8691   10.5854  H     
67   H        51.9710    3.3179   10.7330  H     
@<TRIPOS>BOND
     1    1    2 1
     2    1    5 1
     3    2    3 2
     4    2    6 1
     5    3    4 1
     6    3   16 1
     7    4    5 2
     8    4   15 1
     9    5    9 1
    10    6    7 2
    11    6    8 1
    12    9   10 2
    13    9   14 1
    14   10   11 1
    15   11   12 2
    16   11   21 1
    17   12   13 1
    18   13   14 2
    19   16   17 1
    20   17   18 1
    21   18   19 1
    22   18   20 2
    23   21   22 1
    24   22   25 1
    25   22   26 1
    26   23   24 1
    27   23   27 1
    28   23   28 1
    29   24   25 1
    30   26   27 1
    31   28   29 1
    32   28   30 2
    33   28   31 2
    34   29   32 1
    35   32   33 2
    36   32   37 1
    37   33   34 1
    38   34   35 2
    39   35   36 1
    40   36   37 2
    41   37   38 1
    42   38   39 am
    43   39   40 1
    44   39   41 2
    45   10   42 1
    46   12   43 1
    47   13   44 1
    48   14   45 1
    49   17   46 1
    50   17   47 1
    51   21   48 1
    52   22   49 1
    53   24   50 1
    54   24   51 1
    55   25   52 1
    56   25   53 1
    57   26   54 1
    58   26   55 1
    59   27   56 1
    60   27   57 1
    61   29   58 1
    62   29   59 1
    63   33   60 1
    64   34   61 1
    65   35   62 1
    66   36   63 1
    67   38   64 1
    68   40   65 1
    69   40   66 1
    70   40   67 1
@<TRIPOS>PROPERTY_DATA
  Total_Score	| 13.7472
  Crash		| -4.8893
  Polar		| 11.4349
  FragIndex	| 1
  FragRMSD	| 1.272

