@<TRIPOS>MOLECULE
BindingDB_50219566
 60 63 0 0 0
SMALL
NO_CHARGES


@<TRIPOS>ATOM
1    S        44.4974   14.0989    0.7492  S     
2    C        44.7070   15.6183    1.5274  C     
3    C        45.5595   15.3856    2.6087  C     
4    C        45.9496   14.0438    2.7741  C     
5    C        45.4857   13.1448    1.7881  C     
6    C        44.1081   16.8281    1.1303  C     
7    O        43.2258   16.8578    0.1082  O     
8    O        44.4241   18.0108    1.7122  O     
9    C        45.7243   11.7447    1.6245  C     
10   C        46.9114   11.1301    2.1054  C     
11   C        47.1803    9.7486    1.9181  C     
12   C        46.2634    8.9917    1.1599  C     
13   C        45.0934    9.5788    0.6557  C     
14   C        44.8171   10.9340    0.9033  C     
15   Br       46.9346   13.5875    4.2834  Br    
16   O        45.9298   16.3460    3.5195  O     
17   C        47.1820   16.9966    3.2210  C     
18   C        47.7846   17.4288    4.4873  C     
19   O        47.0352   17.9974    5.4505  O     
20   O        49.1268   17.3825    4.6589  O     
21   N        48.3424    9.2654    2.4468  N     
22   C        48.9798    8.0017    2.1810  C     
23   N        50.3589    6.9812    4.5324  N     
24   C        50.9041    8.1483    3.8907  C     
25   C        50.5189    8.1288    2.3881  C     
26   C        48.4121    6.8254    3.0368  C     
27   C        48.9257    6.8313    4.5037  C     
28   S        51.3494    5.7161    5.0835  S     
29   C        51.0225    4.0779    4.3970  C     
30   O        52.8831    6.0297    4.7646  O     
31   O        51.2947    5.6619    6.6780  O     
32   C        51.5101    3.0228    5.3229  C     
33   C        50.5945    2.2489    6.0784  C     
34   C        51.0536    1.3038    7.0130  C     
35   C        52.4329    1.1206    7.2130  C     
36   C        53.3555    1.8719    6.4603  C     
37   C        52.8958    2.8118    5.5220  C     
38   H        47.6181   11.7021    2.5799  H     
39   H        46.4413    8.0046    0.9743  H     
40   H        44.4389    9.0088    0.1205  H     
41   H        43.9393   11.3152    0.5374  H     
42   H        47.8874   16.3439    2.6968  H     
43   H        46.9993   17.8733    2.5980  H     
44   H        48.8360    9.8739    3.0237  H     
45   H        48.8284    7.7685    1.1183  H     
46   H        50.4820    9.0380    4.3703  H     
47   H        51.9917    8.2239    3.9804  H     
48   H        51.0171    7.2746    1.9144  H     
49   H        50.8928    9.0351    1.9047  H     
50   H        47.3207    6.8491    3.0443  H     
51   H        48.7178    5.8785    2.5736  H     
52   H        48.5973    5.9159    5.0079  H     
53   H        48.4708    7.6744    5.0365  H     
54   H        49.9420    3.9908    4.2402  H     
55   H        51.5034    3.9911    3.4232  H     
56   H        49.5870    2.3858    5.9713  H     
57   H        50.3824    0.7578    7.5590  H     
58   H        52.7681    0.4426    7.9016  H     
59   H        54.3602    1.7372    6.6033  H     
60   H        53.5823    3.3570    4.9883  H     
@<TRIPOS>BOND
     1    1    2 1
     2    1    5 1
     3    2    3 2
     4    2    6 1
     5    3    4 1
     6    3   16 1
     7    4    5 2
     8    4   15 1
     9    5    9 1
    10    6    7 2
    11    6    8 1
    12    9   10 2
    13    9   14 1
    14   10   11 1
    15   11   12 2
    16   11   21 1
    17   12   13 1
    18   13   14 2
    19   16   17 1
    20   17   18 1
    21   18   19 1
    22   18   20 2
    23   21   22 1
    24   22   25 1
    25   22   26 1
    26   23   24 1
    27   23   27 1
    28   23   28 1
    29   24   25 1
    30   26   27 1
    31   28   29 1
    32   28   30 2
    33   28   31 2
    34   29   32 1
    35   32   33 2
    36   32   37 1
    37   33   34 1
    38   34   35 2
    39   35   36 1
    40   36   37 2
    41   10   38 1
    42   12   39 1
    43   13   40 1
    44   14   41 1
    45   17   42 1
    46   17   43 1
    47   21   44 1
    48   22   45 1
    49   24   46 1
    50   24   47 1
    51   25   48 1
    52   25   49 1
    53   26   50 1
    54   26   51 1
    55   27   52 1
    56   27   53 1
    57   29   54 1
    58   29   55 1
    59   33   56 1
    60   34   57 1
    61   35   58 1
    62   36   59 1
    63   37   60 1
@<TRIPOS>PROPERTY_DATA
  Total_Score	| 13.0992
  Crash		| -2.2849
  Polar		| 7.5189
  FragIndex	| 1
  FragRMSD	| 0.561

