@<TRIPOS>MOLECULE
BindingDB_50219567
 63 66 0 0 0
SMALL
NO_CHARGES


@<TRIPOS>ATOM
1    S        44.4409   14.1272    0.8494  S     
2    C        44.7182   15.6509    1.5904  C     
3    C        45.5963   15.4108    2.6558  C     
4    C        45.9278   14.0496    2.8472  C     
5    C        45.4174   13.1540    1.8869  C     
6    C        44.1543   16.8662    1.1748  C     
7    O        43.2671   16.8993    0.1586  O     
8    O        44.5340   18.0555    1.6929  O     
9    C        45.6131   11.7466    1.7175  C     
10   C        46.8262   11.1002    2.0806  C     
11   C        47.0923    9.7420    1.7680  C     
12   C        46.1182    9.0351    1.0280  C     
13   C        44.9025    9.6356    0.6758  C     
14   C        44.6439   10.9683    1.0319  C     
15   Br       46.9263   13.5862    4.3442  Br    
16   O        46.0306   16.3811    3.5229  O     
17   C        47.3312   16.9249    3.2201  C     
18   C        47.9308   17.3900    4.4767  C     
19   O        47.1761   17.9699    5.4355  O     
20   O        49.2650   17.3005    4.6734  O     
21   N        48.2963    9.2222    2.1408  N     
22   C        48.9254    8.0038    1.6806  C     
23   N        50.4552    6.7242    3.8550  N     
24   C        51.0076    7.8972    3.2213  C     
25   C        50.4742    8.1068    1.7798  C     
26   C        48.4353    6.7043    2.4098  C     
27   C        49.0180    6.5479    3.8375  C     
28   S        51.3896    5.7599    4.8932  S     
29   C        51.7222    4.1031    4.2433  C     
30   O        52.7400    6.4794    5.3419  O     
31   O        50.6662    5.6479    6.3002  O     
32   C        51.9775    3.0962    5.3200  C     
33   C        53.3289    2.8727    5.7132  C     
34   C        53.6506    1.9180    6.6940  C     
35   C        52.6334    1.1830    7.3259  C     
36   C        51.2905    1.4029    6.9645  C     
37   C        50.9359    2.3504    5.9711  C     
38   C        49.4906    2.5245    5.6290  C     
39   H        47.5655   11.6387    2.5369  H     
40   H        46.2838    8.0729    0.7297  H     
41   H        44.2000    9.0935    0.1614  H     
42   H        43.7491   11.3646    0.7503  H     
43   H        48.0139   16.1984    2.7599  H     
44   H        47.2327   17.7723    2.5386  H     
45   H        48.8680    9.8066    2.6664  H     
46   H        48.6998    7.9052    0.6057  H     
47   H        50.7629    8.7664    3.8443  H     
48   H        52.1016    7.8398    3.1466  H     
49   H        50.9217    7.3391    1.1418  H     
50   H        50.8124    9.0785    1.4064  H     
51   H        47.3464    6.6723    2.4693  H     
52   H        48.7668    5.8406    1.8140  H     
53   H        48.7357    5.5494    4.1904  H     
54   H        48.5603    7.2798    4.5139  H     
55   H        50.8557    3.8218    3.6452  H     
56   H        52.5617    4.1660    3.5503  H     
57   H        54.0932    3.4024    5.2775  H     
58   H        54.6281    1.7516    6.9535  H     
59   H        52.8729    0.4903    8.0426  H     
60   H        50.5770    0.8418    7.4290  H     
61   H        49.2049    3.5715    5.7397  H     
62   H        48.8423    1.9203    6.2877  H     
63   H        49.3341    2.2020    4.5844  H     
@<TRIPOS>BOND
     1    1    2 1
     2    1    5 1
     3    2    3 2
     4    2    6 1
     5    3    4 1
     6    3   16 1
     7    4    5 2
     8    4   15 1
     9    5    9 1
    10    6    7 2
    11    6    8 1
    12    9   10 2
    13    9   14 1
    14   10   11 1
    15   11   12 2
    16   11   21 1
    17   12   13 1
    18   13   14 2
    19   16   17 1
    20   17   18 1
    21   18   19 1
    22   18   20 2
    23   21   22 1
    24   22   25 1
    25   22   26 1
    26   23   24 1
    27   23   27 1
    28   23   28 1
    29   24   25 1
    30   26   27 1
    31   28   29 1
    32   28   30 2
    33   28   31 2
    34   29   32 1
    35   32   33 2
    36   32   37 1
    37   33   34 1
    38   34   35 2
    39   35   36 1
    40   36   37 2
    41   37   38 1
    42   10   39 1
    43   12   40 1
    44   13   41 1
    45   14   42 1
    46   17   43 1
    47   17   44 1
    48   21   45 1
    49   22   46 1
    50   24   47 1
    51   24   48 1
    52   25   49 1
    53   25   50 1
    54   26   51 1
    55   26   52 1
    56   27   53 1
    57   27   54 1
    58   29   55 1
    59   29   56 1
    60   33   57 1
    61   34   58 1
    62   35   59 1
    63   36   60 1
    64   38   61 1
    65   38   62 1
    66   38   63 1
@<TRIPOS>PROPERTY_DATA
  Total_Score	| 13.4469
  Crash		| -2.2033
  Polar		| 8.2390
  FragIndex	| 1
  FragRMSD	| 0.547

