@<TRIPOS>MOLECULE
BindingDB_30496
 68 70 0 0 0
SMALL
NO_CHARGES


@<TRIPOS>ATOM
1    C        97.1966   61.6759   54.2105  C     
2    C        96.7028   62.0662   52.8986  C     
3    N        96.2406   63.4112   53.2016  N     
4    C        96.6772   63.7587   54.4092  C     
5    C        97.2340   62.7226   55.0503  C     
6    O        97.4568   60.4147   54.5256  O     
7    C        97.7598   61.8909   51.7142  C     
8    C        95.2523   64.1949   52.4344  C     
9    C        93.8162   63.5754   52.4502  C     
10   O        96.5115   64.8599   54.9364  O     
11   C        97.6805   62.6561   56.3327  C     
12   S        99.2748   62.1329   58.2058  S     
13   N        98.8836   62.1866   56.5818  N     
14   C        96.9980   63.0217   57.4869  C     
15   C        97.7451   62.7938   58.6553  C     
16   C        95.7082   63.5892   57.6036  C     
17   C        95.1967   63.9210   58.8728  C     
18   C        95.9615   63.6883   60.0298  C     
19   C        97.2528   63.1164   59.9499  C     
20   O        99.3378   60.6325   58.7425  O     
21   O       100.4183   63.1712   58.6096  O     
22   C        97.9144   60.3541   51.3925  C     
23   C        97.3020   62.5929   50.3823  C     
24   C        99.1666   62.4722   52.0798  C     
25   C        98.0787   62.9718   61.1882  C     
26   C        92.6889   64.2363   51.5715  C     
27   C        91.5513   63.1867   51.3390  C     
28   C        92.0614   65.4618   52.3090  C     
29   C        93.2159   64.6881   50.1707  C     
30   C        98.1525   61.5427   61.7967  C     
31   S        96.9879   61.1655   63.1368  S     
32   C        95.5108   60.2849   62.5961  C     
33   O        97.7234   60.1731   64.1495  O     
34   O        96.5806   62.4366   64.0047  O     
35   H        95.8446   61.4256   52.7030  H     
36   H        98.3714   60.4304   54.8980  H     
37   H        95.1767   65.2163   52.8228  H     
38   H        95.5698   64.3026   51.4197  H     
39   H        93.8996   62.5457   52.0921  H     
40   H        93.4837   63.5354   53.4990  H     
41   H        95.1461   63.7746   56.7719  H     
42   H        94.2724   64.3516   58.9458  H     
43   H        95.5682   63.9583   60.9350  H     
44   H        98.4075   59.8266   52.2119  H     
45   H        98.5234   60.1878   50.4953  H     
46   H        96.9351   59.8913   51.2296  H     
47   H        96.2299   62.4458   50.2137  H     
48   H        97.8436   62.1974   49.5139  H     
49   H        97.5347   63.6530   50.3960  H     
50   H        99.0692   63.5137   52.3954  H     
51   H        99.8483   62.4329   51.2264  H     
52   H        99.6299   61.9137   52.9011  H     
53   H        99.0985   63.2956   60.9596  H     
54   H        97.7511   63.6904   61.9396  H     
55   H        91.9189   62.3349   50.7613  H     
56   H        90.7163   63.6272   50.7868  H     
57   H        91.1710   62.8083   52.2918  H     
58   H        91.6128   65.1438   53.2548  H     
59   H        91.2806   65.9265   51.6985  H     
60   H        92.8157   66.2202   52.5134  H     
61   H        93.9381   65.5049   50.2571  H     
62   H        92.3962   65.0426   49.5383  H     
63   H        93.7045   63.8557   49.6541  H     
64   H        98.0274   60.7875   61.0166  H     
65   H        99.1565   61.3995   62.2127  H     
66   H        94.9244   60.9379   61.9526  H     
67   H        94.9076   60.0102   63.4652  H     
68   H        95.7891   59.3789   62.0514  H     
@<TRIPOS>BOND
     1    1    2 1
     2    1    5 2
     3    1    6 1
     4    2    3 1
     5    2    7 1
     6    3    4 1
     7    3    8 1
     8    4    5 1
     9    4   10 2
    10    5   11 1
    11    7   22 1
    12    7   23 1
    13    7   24 1
    14    8    9 1
    15    9   26 1
    16   11   13 2
    17   11   14 1
    18   12   13 1
    19   12   15 1
    20   12   20 2
    21   12   21 2
    22   14   15 2
    23   14   16 1
    24   15   19 1
    25   16   17 2
    26   17   18 1
    27   18   19 2
    28   19   25 1
    29   25   30 1
    30   26   27 1
    31   26   28 1
    32   26   29 1
    33   30   31 1
    34   31   32 1
    35   31   33 2
    36   31   34 2
    37    2   35 1
    38    6   36 1
    39    8   37 1
    40    8   38 1
    41    9   39 1
    42    9   40 1
    43   16   41 1
    44   17   42 1
    45   18   43 1
    46   22   44 1
    47   22   45 1
    48   22   46 1
    49   23   47 1
    50   23   48 1
    51   23   49 1
    52   24   50 1
    53   24   51 1
    54   24   52 1
    55   25   53 1
    56   25   54 1
    57   27   55 1
    58   27   56 1
    59   27   57 1
    60   28   58 1
    61   28   59 1
    62   28   60 1
    63   29   61 1
    64   29   62 1
    65   29   63 1
    66   30   64 1
    67   30   65 1
    68   32   66 1
    69   32   67 1
    70   32   68 1
@<TRIPOS>PROPERTY_DATA
  Total_Score	| 7.6826
  Crash		| -2.6379
  Polar		| 2.0623
  FragIndex	| 1
  FragRMSD	| 0.584

