@<TRIPOS>MOLECULE
BindingDB_30488
 56 59 0 0 0
SMALL
NO_CHARGES


@<TRIPOS>ATOM
1    C        97.2813   61.7508   54.1025  C     
2    C        96.8586   62.2629   52.8102  C     
3    N        96.6784   63.6538   53.1727  N     
4    C        97.1840   63.8856   54.3765  C     
5    C        97.5013   62.7376   54.9723  C     
6    O        97.3395   60.4545   54.3966  O     
7    C        97.8541   61.9237   51.6157  C     
8    C        95.8480   64.6149   52.4701  C     
9    C        94.4572   64.1457   52.1894  C     
10   O        97.2478   64.9767   54.9325  O     
11   C        97.8465   62.5734   56.2724  C     
12   S        99.3357   62.0560   58.2352  S     
13   N        99.0466   62.1256   56.5818  N     
14   C        97.0730   62.8894   57.3729  C     
15   C        97.7617   62.6706   58.5727  C     
16   C        95.7549   63.3987   57.4178  C     
17   C        95.1736   63.7132   58.6619  C     
18   C        95.8864   63.5007   59.8584  C     
19   C        97.1837   62.9425   59.8304  C     
20   O        99.3612   60.5875   58.8519  O     
21   O       100.3553   63.1548   58.7767  O     
22   C        99.3110   62.4256   51.8943  C     
23   C        97.8937   60.3690   51.3900  C     
24   C        97.3678   62.5970   50.2859  C     
25   C        93.9002   64.2769   50.8965  C     
26   C        93.6587   63.5992   53.2192  C     
27   C        92.3500   63.1579   52.9551  C     
28   C        91.8036   63.2918   51.6665  C     
29   C        92.5788   63.8691   50.6361  C     
30   Cl       91.9326   64.1029   49.0900  Cl    
31   F        90.5796   62.8874   51.4490  F     
32   O        97.8938   62.7448   60.9852  O     
33   C        97.4737   61.6413   61.8175  C     
34   C        97.0838   62.1134   63.0397  C     
35   N        96.7463   62.5084   64.0652  N     
36   H        95.8790   61.8246   52.5872  H     
37   H        98.1774   60.3427   54.8926  H     
38   H        95.7412   65.5433   53.0380  H     
39   H        96.3678   64.9034   51.5519  H     
40   H        95.2287   63.5606   56.5577  H     
41   H        94.2302   64.1150   58.6925  H     
42   H        95.4568   63.7531   60.7506  H     
43   H        99.3192   63.5056   52.0735  H     
44   H        99.9629   62.2203   51.0402  H     
45   H        99.7343   61.9320   52.7713  H     
46   H        98.3875   59.8614   52.2198  H     
47   H        98.4515   60.1026   50.4883  H     
48   H        96.8840   59.9625   51.2979  H     
49   H        96.2914   62.4708   50.1526  H     
50   H        97.8690   62.1705   49.4143  H     
51   H        97.5869   63.6705   50.2820  H     
52   H        94.4525   64.6836   50.1388  H     
53   H        94.0282   63.5106   54.1678  H     
54   H        91.7948   62.7466   53.7078  H     
55   H        96.6469   61.0570   61.3968  H     
56   H        98.3220   60.9749   61.9704  H     
@<TRIPOS>BOND
     1    1    2 1
     2    1    5 2
     3    1    6 1
     4    2    3 1
     5    2    7 1
     6    3    4 1
     7    3    8 1
     8    4    5 1
     9    4   10 2
    10    5   11 1
    11    7   22 1
    12    7   23 1
    13    7   24 1
    14    8    9 1
    15    9   25 1
    16    9   26 2
    17   11   13 2
    18   11   14 1
    19   12   13 1
    20   12   15 1
    21   12   20 2
    22   12   21 2
    23   14   15 2
    24   14   16 1
    25   15   19 1
    26   16   17 2
    27   17   18 1
    28   18   19 2
    29   19   32 1
    30   25   29 2
    31   26   27 1
    32   27   28 2
    33   28   29 1
    34   28   31 1
    35   29   30 1
    36   32   33 1
    37   33   34 1
    38   34   35 3
    39    2   36 1
    40    6   37 1
    41    8   38 1
    42    8   39 1
    43   16   40 1
    44   17   41 1
    45   18   42 1
    46   22   43 1
    47   22   44 1
    48   22   45 1
    49   23   46 1
    50   23   47 1
    51   23   48 1
    52   24   49 1
    53   24   50 1
    54   24   51 1
    55   25   52 1
    56   26   53 1
    57   27   54 1
    58   33   55 1
    59   33   56 1
@<TRIPOS>PROPERTY_DATA
  Total_Score	| 6.6369
  Crash		| -0.8224
  Polar		| 2.3191
  FragIndex	| 1
  FragRMSD	| 0.138

