@<TRIPOS>MOLECULE
BindingDB_30471
 49 52 0 0 0
SMALL
NO_CHARGES


@<TRIPOS>ATOM
1    C        97.1653   61.7205   54.1414  C     
2    C        96.7157   62.1599   52.8296  C     
3    N        96.4512   63.5603   53.1311  N     
4    C        96.9145   63.8524   54.3382  C     
5    C        97.3134   62.7504   54.9799  C     
6    O        97.1805   60.4527   54.5505  O     
7    C        97.7852   61.8936   51.6910  C     
8    C        97.9834   60.3791   51.3632  C     
9    C        97.4485   62.6397   50.3626  C     
10   C        95.7198   64.5072   52.3047  C     
11   C        94.3262   64.1464   51.9360  C     
12   C        93.4909   63.5189   52.8914  C     
13   C        92.1387   63.2519   52.5981  C     
14   C        91.6022   63.5867   51.3491  C     
15   C        92.4176   64.2229   50.3907  C     
16   C        93.7638   64.5077   50.6861  C     
17   O        96.9173   64.9670   54.8393  O     
18   C        97.6881   62.6753   56.2890  C     
19   S        99.2272   62.2912   58.2550  S     
20   N        98.8858   62.2250   56.6112  N     
21   C        96.9655   63.1236   57.3780  C     
22   C        97.6760   62.9709   58.5760  C     
23   C        95.6682   63.6809   57.4047  C     
24   C        95.1137   64.0984   58.6294  C     
25   C        95.8378   63.9337   59.8286  C     
26   C        97.1299   63.3651   59.8130  C     
27   O        99.2285   60.8922   59.0112  O     
28   O       100.2557   63.4204   58.6963  O     
29   O        97.8336   63.1940   60.9592  O     
30   H        95.7754   61.6417   52.5928  H     
31   H        97.9586   60.3728   55.1562  H     
32   H        98.7585   62.2696   52.0368  H     
33   H        98.5915   59.9097   52.1372  H     
34   H        98.5181   60.2198   50.4255  H     
35   H        97.0267   59.8558   51.2911  H     
36   H        96.3814   62.5320   50.1076  H     
37   H        98.0308   62.2573   49.5183  H     
38   H        97.7140   63.7008   50.4609  H     
39   H        95.6309   65.4697   52.8168  H     
40   H        96.2928   64.7385   51.4144  H     
41   H        93.8591   63.2924   53.8154  H     
42   H        91.5439   62.8137   53.3047  H     
43   H        90.6159   63.4076   51.1475  H     
44   H        92.0243   64.4586   49.4798  H     
45   H        94.3245   65.0058   49.9844  H     
46   H        95.1402   63.8028   56.5410  H     
47   H        94.1843   64.5238   58.6452  H     
48   H        95.4146   64.2263   60.7114  H     
49   H        97.5169   63.8982   61.5711  H     
@<TRIPOS>BOND
     1    1    2 1
     2    1    5 2
     3    1    6 1
     4    2    3 1
     5    2    7 1
     6    3    4 1
     7    3   10 1
     8    4    5 1
     9    4   17 2
    10    5   18 1
    11    7    8 1
    12    7    9 1
    13   10   11 1
    14   11   12 1
    15   11   16 2
    16   12   13 2
    17   13   14 1
    18   14   15 2
    19   15   16 1
    20   18   20 2
    21   18   21 1
    22   19   20 1
    23   19   22 1
    24   19   27 2
    25   19   28 2
    26   21   22 2
    27   21   23 1
    28   22   26 1
    29   23   24 2
    30   24   25 1
    31   25   26 2
    32   26   29 1
    33    2   30 1
    34    6   31 1
    35    7   32 1
    36    8   33 1
    37    8   34 1
    38    8   35 1
    39    9   36 1
    40    9   37 1
    41    9   38 1
    42   10   39 1
    43   10   40 1
    44   12   41 1
    45   13   42 1
    46   14   43 1
    47   15   44 1
    48   16   45 1
    49   23   46 1
    50   24   47 1
    51   25   48 1
    52   29   49 1
@<TRIPOS>PROPERTY_DATA
  Total_Score	| 5.3285
  Crash		| -0.7323
  Polar		| 1.4563
  FragIndex	| 1
  FragRMSD	| 0.362

