@<TRIPOS>MOLECULE
BindingDB_30469
 48 51 0 0 0
SMALL
NO_CHARGES


@<TRIPOS>ATOM
1    C        97.2129   61.7226   53.9747  C     
2    C        96.8110   62.2355   52.6790  C     
3    N        96.5733   63.6244   53.0403  N     
4    C        97.0104   63.8545   54.2710  C     
5    C        97.3812   62.7074   54.8596  C     
6    O        97.3037   60.4283   54.2706  O     
7    C        97.9149   61.9543   51.5811  C     
8    C        98.0398   60.4383   51.2303  C     
9    C        97.6865   62.7685   50.2707  C     
10   C        95.7805   64.5827   52.2848  C     
11   C        94.3829   64.1309   52.0329  C     
12   C        93.7616   64.3142   50.7667  C     
13   C        92.4155   63.9591   50.5644  C     
14   C        91.6640   63.4003   51.6211  C     
15   C        92.2630   63.2132   52.8813  C     
16   C        93.6068   63.5715   53.0791  C     
17   O        96.9330   64.9283   54.8646  O     
18   C        97.7726   62.5576   56.1497  C     
19   S        99.3200   62.0365   58.0739  S     
20   N        98.9774   62.1064   56.4285  N     
21   C        97.0272   62.8762   57.2710  C     
22   C        97.7536   62.6470   58.4463  C     
23   C        95.7041   63.3701   57.3577  C     
24   C        95.1493   63.6514   58.6246  C     
25   C        95.8986   63.4260   59.7991  C     
26   C        97.2080   62.9137   59.7147  C     
27   O        99.3383   60.5792   58.7084  O     
28   O       100.3230   63.1419   58.6233  O     
29   H        95.8664   61.7600   52.3978  H     
30   H        98.2135   60.2971   54.6222  H     
31   H        98.8807   62.2921   51.9774  H     
32   H        98.6000   59.9173   51.9960  H     
33   H        98.5732   60.2835   50.3002  H     
34   H        97.0500   59.9905   51.1433  H     
35   H        96.6698   62.6009   49.8924  H     
36   H        98.3972   62.4639   49.4831  H     
37   H        97.8595   63.8280   50.4360  H     
38   H        95.6838   65.5393   52.8145  H     
39   H        96.2782   64.8138   51.3478  H     
40   H        94.2841   64.7291   49.9880  H     
41   H        91.9812   64.0980   49.6503  H     
42   H        90.6845   63.1538   51.4676  H     
43   H        91.7197   62.8218   53.6532  H     
44   H        94.0133   63.4307   53.9991  H     
45   H        95.1486   63.5339   56.5131  H     
46   H        94.2064   64.0310   58.6874  H     
47   H        95.4864   63.6278   60.7112  H     
48   H        97.7508   62.7396   60.5554  H     
@<TRIPOS>BOND
     1    1    2 1
     2    1    5 2
     3    1    6 1
     4    2    3 1
     5    2    7 1
     6    3    4 1
     7    3   10 1
     8    4    5 1
     9    4   17 2
    10    5   18 1
    11    7    8 1
    12    7    9 1
    13   10   11 1
    14   11   12 1
    15   11   16 2
    16   12   13 2
    17   13   14 1
    18   14   15 2
    19   15   16 1
    20   18   20 2
    21   18   21 1
    22   19   20 1
    23   19   22 1
    24   19   27 2
    25   19   28 2
    26   21   22 2
    27   21   23 1
    28   22   26 1
    29   23   24 2
    30   24   25 1
    31   25   26 2
    32    2   29 1
    33    6   30 1
    34    7   31 1
    35    8   32 1
    36    8   33 1
    37    8   34 1
    38    9   35 1
    39    9   36 1
    40    9   37 1
    41   10   38 1
    42   10   39 1
    43   12   40 1
    44   13   41 1
    45   14   42 1
    46   15   43 1
    47   16   44 1
    48   23   45 1
    49   24   46 1
    50   25   47 1
    51   26   48 1
@<TRIPOS>PROPERTY_DATA
  Total_Score	| 4.8192
  Crash		| -0.4794
  Polar		| 1.0691
  FragIndex	| 1
  FragRMSD	| 0.492

