@<TRIPOS>MOLECULE
BindingDB_30497
 54 58 0 0 0
SMALL
NO_CHARGES


@<TRIPOS>ATOM
1    C        97.3901   61.7103   54.0155  C     
2    C        96.9067   62.2863   52.7945  C     
3    N        96.6168   63.6422   53.1358  N     
4    C        97.0476   63.8377   54.3734  C     
5    C        97.5016   62.6866   54.9142  C     
6    O        97.6207   60.4105   54.1959  O     
7    C        95.8605   64.5862   52.3440  C     
8    C        94.4584   64.1521   52.0852  C     
9    O        96.9731   64.8962   54.9832  O     
10   C        97.9351   62.5323   56.1868  C     
11   S        99.5443   62.0384   58.0435  S     
12   N        99.1421   62.0610   56.4138  N     
13   C        97.2567   62.9154   57.3298  C     
14   C        98.0277   62.7371   58.4862  C     
15   C        95.9538   63.4450   57.4340  C     
16   C        95.4523   63.8042   58.6971  C     
17   C        96.2451   63.6414   59.8503  C     
18   C        97.5564   63.1047   59.7711  C     
19   O        99.5959   60.5736   58.6589  O     
20   O       100.6821   63.0776   58.4334  O     
21   C        98.4491   62.9710   60.9573  C     
22   N        97.8361   63.1851   62.2248  N     
23   S        97.4447   61.9112   63.2561  S     
24   C        96.5515   60.5659   62.4612  C     
25   O        98.7380   61.3865   64.0138  O     
26   O        96.5202   62.5186   64.3966  O     
27   C        97.9116   62.1205   51.6246  C     
28   C        96.5174   61.4927   51.5365  C     
29   C        93.8725   64.3186   50.8093  C     
30   C        93.6735   63.5846   53.1170  C     
31   C        92.3505   63.1742   52.8761  C     
32   C        91.7811   63.3392   51.6001  C     
33   C        92.5406   63.9274   50.5666  C     
34   Cl       91.8758   64.1788   49.0301  Cl    
35   F        90.5555   62.9363   51.3948  F     
36   H        98.3270   60.3466   54.8691  H     
37   H        95.8034   65.5576   52.8398  H     
38   H        96.3986   64.7542   51.4083  H     
39   H        95.3712   63.5760   56.6040  H     
40   H        94.5144   64.2014   58.7760  H     
41   H        95.8538   63.9318   60.7492  H     
42   H        98.9221   61.9853   60.9461  H     
43   H        99.2416   63.7149   60.8639  H     
44   H        97.4336   64.0520   62.3994  H     
45   H        95.5891   60.9286   62.1018  H     
46   H        96.3896   59.7624   63.1769  H     
47   H        97.1324   60.1863   61.6210  H     
48   H        98.0534   62.9591   50.9428  H     
49   H        98.7119   61.3797   51.7103  H     
50   H        96.4861   60.4038   51.6374  H     
51   H        95.8396   61.9805   50.8385  H     
52   H        94.4170   64.7315   50.0471  H     
53   H        94.0645   63.4507   54.0510  H     
54   H        91.8058   62.7510   53.6322  H     
@<TRIPOS>BOND
     1    1    2 1
     2    1    5 2
     3    1    6 1
     4    2    3 1
     5    2   27 1
     6    2   28 1
     7    3    4 1
     8    3    7 1
     9    4    5 1
    10    4    9 2
    11    5   10 1
    12    7    8 1
    13    8   29 1
    14    8   30 2
    15   10   12 2
    16   10   13 1
    17   11   12 1
    18   11   14 1
    19   11   19 2
    20   11   20 2
    21   13   14 2
    22   13   15 1
    23   14   18 1
    24   15   16 2
    25   16   17 1
    26   17   18 2
    27   18   21 1
    28   21   22 1
    29   22   23 1
    30   23   24 1
    31   23   25 2
    32   23   26 2
    33   27   28 1
    34   29   33 2
    35   30   31 1
    36   31   32 2
    37   32   33 1
    38   32   35 1
    39   33   34 1
    40    6   36 1
    41    7   37 1
    42    7   38 1
    43   15   39 1
    44   16   40 1
    45   17   41 1
    46   21   42 1
    47   21   43 1
    48   22   44 1
    49   24   45 1
    50   24   46 1
    51   24   47 1
    52   27   48 1
    53   27   49 1
    54   28   50 1
    55   28   51 1
    56   29   52 1
    57   30   53 1
    58   31   54 1
@<TRIPOS>PROPERTY_DATA
  Total_Score	| 5.9314
  Crash		| -1.2175
  Polar		| 3.0960
  FragIndex	| 1
  FragRMSD	| 0.736

