@<TRIPOS>MOLECULE
BindingDB_30498
 57 61 0 0 0
SMALL
NO_CHARGES


@<TRIPOS>ATOM
1    C        96.3505   63.7835   54.6250  C     
2    C        95.9313   63.5211   53.2732  C     
3    N        96.4244   62.2078   53.0221  N     
4    C        96.9241   61.7385   54.1563  C     
5    C        96.9080   62.6783   55.1253  C     
6    O        96.2473   64.9433   55.2640  O     
7    C        96.4526   61.5366   51.7475  C     
8    C        97.7202   61.7753   51.0069  C     
9    O        97.3379   60.5955   54.3079  O     
10   C        97.5291   62.5760   56.3322  C     
11   S        99.3926   62.0576   57.9385  S     
12   N        98.7703   62.1401   56.3833  N     
13   C        97.0028   62.8897   57.5786  C     
14   C        97.9226   62.6627   58.6118  C     
15   C        95.7184   63.3799   57.8944  C     
16   C        95.3909   63.6575   59.2350  C     
17   C        96.3318   63.4356   60.2621  C     
18   C        97.6198   62.9199   59.9716  C     
19   O        99.5806   60.5640   58.4437  O     
20   O       100.5413   63.1246   58.1951  O     
21   C        98.6517   62.6571   61.0165  C     
22   N        98.3050   62.9361   62.3901  N     
23   S        97.4611   61.7654   63.2816  S     
24   C        98.5467   60.6243   64.1583  C     
25   O        96.4755   62.4706   64.3111  O     
26   O        96.4959   60.9284   62.3366  O     
27   C        94.3896   63.5951   53.1300  C     
28   C        95.2803   64.5377   52.3160  C     
29   C        98.8990   61.0737   51.3460  C     
30   C        97.7576   62.6691   49.9102  C     
31   C        98.9390   62.8536   49.1736  C     
32   C       100.1040   62.1409   49.5117  C     
33   C       100.0869   61.2524   50.6076  C     
34   Cl      101.4726   60.3832   51.0424  Cl    
35   F       101.1866   62.3166   48.8008  F     
36   C        98.9859   63.9786   63.1080  C     
37   H        96.4801   65.6377   54.6057  H     
38   H        96.3095   60.4589   51.8796  H     
39   H        95.6057   61.8742   51.1456  H     
40   H        95.0273   63.5592   57.1609  H     
41   H        94.4675   64.0349   59.4629  H     
42   H        96.0672   63.6646   61.2208  H     
43   H        98.9494   61.6085   60.9497  H     
44   H        99.5336   63.2391   60.7392  H     
45   H        99.2894   60.2238   63.4667  H     
46   H        97.9564   59.8047   64.5714  H     
47   H        99.0549   61.1539   64.9666  H     
48   H        93.8820   62.8424   52.5228  H     
49   H        93.8049   64.1039   53.8980  H     
50   H        95.3025   65.5778   52.6435  H     
51   H        95.3749   64.3192   51.2544  H     
52   H        98.8919   60.4102   52.1234  H     
53   H        96.9221   63.1868   49.6291  H     
54   H        98.9361   63.5015   48.3837  H     
55   H       100.0409   63.7211   63.2181  H     
56   H        98.5763   64.1411   64.1047  H     
57   H        98.9104   64.9162   62.5589  H     
@<TRIPOS>BOND
     1    1    2 1
     2    1    5 2
     3    1    6 1
     4    2    3 1
     5    2   27 1
     6    2   28 1
     7    3    4 1
     8    3    7 1
     9    4    5 1
    10    4    9 2
    11    5   10 1
    12    7    8 1
    13    8   29 1
    14    8   30 2
    15   10   12 2
    16   10   13 1
    17   11   12 1
    18   11   14 1
    19   11   19 2
    20   11   20 2
    21   13   14 2
    22   13   15 1
    23   14   18 1
    24   15   16 2
    25   16   17 1
    26   17   18 2
    27   18   21 1
    28   21   22 1
    29   22   23 1
    30   22   36 1
    31   23   24 1
    32   23   25 2
    33   23   26 2
    34   27   28 1
    35   29   33 2
    36   30   31 1
    37   31   32 2
    38   32   33 1
    39   32   35 1
    40   33   34 1
    41    6   37 1
    42    7   38 1
    43    7   39 1
    44   15   40 1
    45   16   41 1
    46   17   42 1
    47   21   43 1
    48   21   44 1
    49   24   45 1
    50   24   46 1
    51   24   47 1
    52   27   48 1
    53   27   49 1
    54   28   50 1
    55   28   51 1
    56   29   52 1
    57   30   53 1
    58   31   54 1
    59   36   55 1
    60   36   56 1
    61   36   57 1
@<TRIPOS>PROPERTY_DATA
  Total_Score	| 5.8487
  Crash		| -1.9604
  Polar		| 1.9316
  FragIndex	| 1
  FragRMSD	| 1.214

