@<TRIPOS>MOLECULE
BindingDB_30492
 59 62 0 0 0
SMALL
NO_CHARGES


@<TRIPOS>ATOM
1    C        97.3857   61.6855   54.1495  C     
2    C        96.8305   62.2405   52.9296  C     
3    N        96.6720   63.6243   53.3459  N     
4    C        97.2758   63.8139   54.5120  C     
5    C        97.6998   62.6504   55.0085  C     
6    O        97.4408   60.3755   54.3979  O     
7    C        97.7121   61.9588   51.6369  C     
8    C        95.8277   64.6332   52.7208  C     
9    C        94.4430   64.1828   52.3741  C     
10   O        97.3548   64.8781   55.1133  O     
11   C        98.2725   62.4575   56.2206  C     
12   S       100.1015   61.8988   57.8711  S     
13   N        99.5399   62.1086   56.3036  N     
14   C        97.6422   62.5674   57.4408  C     
15   C        98.5309   62.2724   58.4706  C     
16   C        96.3067   62.8904   57.7510  C     
17   C        95.9024   62.9348   59.1042  C     
18   C        96.8036   62.6332   60.1592  C     
19   C        98.1372   62.2978   59.8149  C     
20   O       100.3049   60.4083   58.3778  O     
21   O       100.9898   63.0689   58.4832  O     
22   C        97.7666   60.4141   51.3538  C     
23   C        97.0877   62.6215   50.3600  C     
24   C        99.1847   62.4711   51.7845  C     
25   C        93.9337   64.3099   51.0599  C     
26   C        93.6136   63.6374   53.3746  C     
27   C        92.3091   63.1841   53.0664  C     
28   C        91.8236   63.2945   51.7543  C     
29   C        92.6247   63.8662   50.7497  C     
30   Cl       92.0602   64.0283   49.1596  Cl    
31   F        90.6187   62.8519   51.4853  F     
32   N        96.3413   62.7233   61.4505  N     
33   C        96.3845   60.1910   62.7993  C     
34   S        96.9701   61.8850   62.7703  S     
35   O        98.5530   61.9047   63.0114  O     
36   O        96.4348   62.6146   64.0740  O     
37   H        95.8406   61.7909   52.7930  H     
38   H        98.2094   60.2378   54.9979  H     
39   H        95.6994   65.4905   53.3834  H     
40   H        96.3508   65.0423   51.8578  H     
41   H        95.6371   63.0908   57.0163  H     
42   H        94.9278   63.1747   59.3132  H     
43   H        98.8430   62.1002   60.5163  H     
44   H        98.4038   59.8942   52.0742  H     
45   H        98.1768   60.1978   50.3663  H     
46   H        96.7664   59.9778   51.4068  H     
47   H        96.0150   62.4150   50.3092  H     
48   H        97.5680   62.2561   49.4527  H     
49   H        97.2484   63.6935   50.3311  H     
50   H        99.2147   63.5550   51.9005  H     
51   H        99.7715   62.2111   50.9004  H     
52   H        99.6721   62.0220   52.6529  H     
53   H        94.5144   64.6889   50.3137  H     
54   H        93.9522   63.5299   54.3343  H     
55   H        91.7352   62.7690   53.7979  H     
56   H        95.4318   63.0671   61.5617  H     
57   H        95.3064   60.1686   62.9753  H     
58   H        96.9021   59.6363   63.5824  H     
59   H        96.6005   59.7353   61.8322  H     
@<TRIPOS>BOND
     1    1    2 1
     2    1    5 2
     3    1    6 1
     4    2    3 1
     5    2    7 1
     6    3    4 1
     7    3    8 1
     8    4    5 1
     9    4   10 2
    10    5   11 1
    11    7   22 1
    12    7   23 1
    13    7   24 1
    14    8    9 1
    15    9   25 1
    16    9   26 2
    17   11   13 2
    18   11   14 1
    19   12   13 1
    20   12   15 1
    21   12   20 2
    22   12   21 2
    23   14   15 2
    24   14   16 1
    25   15   19 1
    26   16   17 2
    27   17   18 1
    28   18   19 2
    29   18   32 1
    30   25   29 2
    31   26   27 1
    32   27   28 2
    33   28   29 1
    34   28   31 1
    35   29   30 1
    36   32   34 1
    37   33   34 1
    38   34   35 2
    39   34   36 2
    40    2   37 1
    41    6   38 1
    42    8   39 1
    43    8   40 1
    44   16   41 1
    45   17   42 1
    46   19   43 1
    47   22   44 1
    48   22   45 1
    49   22   46 1
    50   23   47 1
    51   23   48 1
    52   23   49 1
    53   24   50 1
    54   24   51 1
    55   24   52 1
    56   25   53 1
    57   26   54 1
    58   27   55 1
    59   32   56 1
    60   33   57 1
    61   33   58 1
    62   33   59 1
@<TRIPOS>PROPERTY_DATA
  Total_Score	| 7.1463
  Crash		| -1.4930
  Polar		| 2.6798
  FragIndex	| 1
  FragRMSD	| 0.891

