@<TRIPOS>MOLECULE
BindingDB_30490
 62 65 0 0 0
SMALL
NO_CHARGES


@<TRIPOS>ATOM
1    C        97.2679   61.7576   54.0281  C     
2    C        96.8658   62.2520   52.7247  C     
3    N        96.6834   63.6501   53.0565  N     
4    C        97.1782   63.9021   54.2604  C     
5    C        97.4883   62.7623   54.8770  C     
6    O        97.2691   60.4575   54.3446  O     
7    C        97.8892   61.9225   51.5563  C     
8    C        95.8774   64.6063   52.3136  C     
9    C        94.4875   64.1422   52.0411  C     
10   O        97.2256   65.0034   54.7942  O     
11   C        97.8668   62.6230   56.1659  C     
12   S        99.4179   62.1437   58.0801  S     
13   N        99.0788   62.1851   56.4344  N     
14   C        97.1303   62.9653   57.2925  C     
15   C        97.8618   62.7859   58.4765  C     
16   C        95.8129   63.4703   57.3618  C     
17   C        95.2668   63.8183   58.6107  C     
18   C        96.0304   63.6646   59.7854  C     
19   C        97.3439   63.1317   59.7498  C     
20   O        99.4880   60.6598   58.6565  O     
21   O       100.5069   63.2165   58.5200  O     
22   C        97.9962   60.3734   51.3429  C     
23   C        97.4061   62.5426   50.2017  C     
24   C        99.3281   62.4702   51.8469  C     
25   C        93.9129   64.2627   50.7526  C     
26   C        93.6977   63.6075   53.0854  C     
27   C        92.3754   63.1931   52.8486  C     
28   C        91.8076   63.3298   51.5654  C     
29   C        92.5802   63.8758   50.5175  C     
30   Cl       91.9245   64.0913   48.9710  Cl    
31   F        90.5745   62.9484   51.3719  F     
32   C        98.2065   63.0538   60.9583  C     
33   N        97.5101   63.0406   62.1984  N     
34   S        97.3151   61.6504   63.1295  S     
35   C        96.3294   60.3488   62.3745  C     
36   O        98.7330   61.0928   63.5921  O     
37   O        96.6112   62.1097   64.4792  O     
38   H        95.8961   61.8048   52.5007  H     
39   H        97.9739   60.3450   55.0296  H     
40   H        95.7710   65.5499   52.8585  H     
41   H        96.3986   64.8629   51.3834  H     
42   H        95.2570   63.6031   56.5167  H     
43   H        94.3228   64.2123   58.6634  H     
44   H        95.6166   63.9749   60.6713  H     
45   H        98.5098   59.8897   52.1775  H     
46   H        98.5638   60.1303   50.4393  H     
47   H        97.0042   59.9240   51.2492  H     
48   H        96.3340   62.3864   50.0635  H     
49   H        97.9264   62.1013   49.3465  H     
50   H        97.6014   63.6198   50.1624  H     
51   H        99.3098   63.5505   52.0035  H     
52   H        99.9992   62.2570   51.0102  H     
53   H        99.7496   62.0042   52.7413  H     
54   H        94.4644   64.6520   49.9846  H     
55   H        94.0796   63.5084   54.0269  H     
56   H        91.8213   62.7942   53.6128  H     
57   H        98.8543   62.1782   60.9087  H     
58   H        98.8480   63.9343   60.9577  H     
59   H        97.0089   63.8351   62.4511  H     
60   H        95.3038   60.6941   62.2331  H     
61   H        96.3272   59.4729   63.0217  H     
62   H        96.7578   60.0759   61.4077  H     
@<TRIPOS>BOND
     1    1    2 1
     2    1    5 2
     3    1    6 1
     4    2    3 1
     5    2    7 1
     6    3    4 1
     7    3    8 1
     8    4    5 1
     9    4   10 2
    10    5   11 1
    11    7   22 1
    12    7   23 1
    13    7   24 1
    14    8    9 1
    15    9   25 1
    16    9   26 2
    17   11   13 2
    18   11   14 1
    19   12   13 1
    20   12   15 1
    21   12   20 2
    22   12   21 2
    23   14   15 2
    24   14   16 1
    25   15   19 1
    26   16   17 2
    27   17   18 1
    28   18   19 2
    29   19   32 1
    30   25   29 2
    31   26   27 1
    32   27   28 2
    33   28   29 1
    34   28   31 1
    35   29   30 1
    36   32   33 1
    37   33   34 1
    38   34   35 1
    39   34   36 2
    40   34   37 2
    41    2   38 1
    42    6   39 1
    43    8   40 1
    44    8   41 1
    45   16   42 1
    46   17   43 1
    47   18   44 1
    48   22   45 1
    49   22   46 1
    50   22   47 1
    51   23   48 1
    52   23   49 1
    53   23   50 1
    54   24   51 1
    55   24   52 1
    56   24   53 1
    57   25   54 1
    58   26   55 1
    59   27   56 1
    60   32   57 1
    61   32   58 1
    62   33   59 1
    63   35   60 1
    64   35   61 1
    65   35   62 1
@<TRIPOS>PROPERTY_DATA
  Total_Score	| 7.7885
  Crash		| -1.3625
  Polar		| 3.0362
  FragIndex	| 1
  FragRMSD	| 0.715

