@<TRIPOS>MOLECULE
BindingDB_30500
 59 62 0 0 0
SMALL
NO_CHARGES


@<TRIPOS>ATOM
1    C        97.7765   61.7965   53.9716  C     
2    C        97.2676   62.3277   52.7229  C     
3    N        96.7388   63.5925   53.1931  N     
4    C        97.0551   63.7691   54.4647  C     
5    C        97.6392   62.6745   54.9678  C     
6    O        98.2640   60.5606   54.0901  O     
7    C        95.9970   64.5603   52.3968  C     
8    C        94.5947   64.1557   52.0981  C     
9    O        96.8382   64.7934   55.1073  O     
10   C        98.0162   62.4744   56.2632  C     
11   S        99.5281   61.8322   58.1692  S     
12   N        99.2275   62.0383   56.5365  N     
13   C        97.2466   62.6780   57.4011  C     
14   C        97.9379   62.3568   58.5795  C     
15   C        95.9090   63.1352   57.4930  C     
16   C        95.3027   63.2876   58.7477  C     
17   C        96.0094   62.9598   59.9195  C     
18   C        97.3450   62.4889   59.8598  C     
19   O        99.6101   60.3204   58.6448  O     
20   O       100.5183   62.9040   58.8023  O     
21   C        98.0438   62.1069   61.1311  C     
22   N        97.2964   61.3421   62.1017  N     
23   S        97.6102   61.6023   63.7477  S     
24   C        99.3691   61.7887   64.1120  C     
25   O        96.7824   62.8370   64.3139  O     
26   O        97.1559   60.3519   64.6260  O     
27   C        94.0432   64.3362   50.8047  C     
28   C        93.7568   63.6298   53.1131  C     
29   C        92.4329   63.2547   52.8399  C     
30   C        91.8983   63.4360   51.5516  C     
31   C        92.7056   63.9895   50.5329  C     
32   Cl       92.0797   64.2458   48.9776  Cl    
33   F        90.6586   63.0959   51.3240  F     
34   C        96.3545   60.2999   61.7539  C     
35   C        98.4317   62.5532   51.7112  C     
36   C        96.2031   61.3651   52.1225  C     
37   H        99.2481   60.6721   54.0539  H     
38   H        95.9323   65.5231   52.9092  H     
39   H        96.5548   64.7539   51.4778  H     
40   H        95.3689   63.3665   56.6525  H     
41   H        94.3441   63.6462   58.8084  H     
42   H        95.5438   63.0765   60.8203  H     
43   H        98.9515   61.5472   60.9325  H     
44   H        98.3525   63.0532   61.5830  H     
45   H        99.9198   60.9486   63.6876  H     
46   H        99.5263   61.8149   65.1923  H     
47   H        99.7427   62.7174   63.6747  H     
48   H        94.6173   64.7286   50.0569  H     
49   H        94.1215   63.4872   54.0590  H     
50   H        91.8546   62.8531   53.5841  H     
51   H        95.3425   60.6806   61.9213  H     
52   H        96.4977   59.4032   62.3574  H     
53   H        96.4420   59.9866   60.7103  H     
54   H        99.1521   63.2736   52.1063  H     
55   H        98.0453   62.9419   50.7652  H     
56   H        98.9561   61.6188   51.5039  H     
57   H        96.6478   60.4010   51.8636  H     
58   H        95.7767   61.7906   51.2106  H     
59   H        95.3947   61.1850   52.8343  H     
@<TRIPOS>BOND
     1    1    2 1
     2    1    5 2
     3    1    6 1
     4    2    3 1
     5    2   35 1
     6    2   36 1
     7    3    4 1
     8    3    7 1
     9    4    5 1
    10    4    9 2
    11    5   10 1
    12    7    8 1
    13    8   27 1
    14    8   28 2
    15   10   12 2
    16   10   13 1
    17   11   12 1
    18   11   14 1
    19   11   19 2
    20   11   20 2
    21   13   14 2
    22   13   15 1
    23   14   18 1
    24   15   16 2
    25   16   17 1
    26   17   18 2
    27   18   21 1
    28   21   22 1
    29   22   23 1
    30   22   34 1
    31   23   24 1
    32   23   25 2
    33   23   26 2
    34   27   31 2
    35   28   29 1
    36   29   30 2
    37   30   31 1
    38   30   33 1
    39   31   32 1
    40    6   37 1
    41    7   38 1
    42    7   39 1
    43   15   40 1
    44   16   41 1
    45   17   42 1
    46   21   43 1
    47   21   44 1
    48   24   45 1
    49   24   46 1
    50   24   47 1
    51   27   48 1
    52   28   49 1
    53   29   50 1
    54   34   51 1
    55   34   52 1
    56   34   53 1
    57   35   54 1
    58   35   55 1
    59   35   56 1
    60   36   57 1
    61   36   58 1
    62   36   59 1
@<TRIPOS>PROPERTY_DATA
  Total_Score	| 5.5970
  Crash		| -1.5737
  Polar		| 1.6040
  FragIndex	| 1
  FragRMSD	| 0.503

