@<TRIPOS>MOLECULE
BindingDB_30499
 62 65 0 0 0
SMALL
NO_CHARGES


@<TRIPOS>ATOM
1    C        97.7183   61.7589   53.8657  C     
2    C        97.2496   62.3607   52.6223  C     
3    N        96.7222   63.6139   53.1537  N     
4    C        97.0473   63.7240   54.4438  C     
5    C        97.5958   62.5956   54.8996  C     
6    O        98.1268   60.4920   53.9791  O     
7    C        95.9688   64.6277   52.4318  C     
8    C        94.5630   64.2167   52.1329  C     
9    O        96.9131   64.7337   55.1128  O     
10   C        97.9504   62.3136   56.1855  C     
11   S        99.4251   61.5574   58.0752  S     
12   N        99.1494   61.8276   56.4386  N     
13   C        97.1824   62.5158   57.3273  C     
14   C        97.8629   62.1618   58.5027  C     
15   C        95.8701   63.0210   57.4139  C     
16   C        95.2901   63.2369   58.6778  C     
17   C        95.9957   62.9100   59.8441  C     
18   C        97.2863   62.3318   59.7868  C     
19   O        99.4301   60.0099   58.4557  O     
20   O       100.4928   62.5369   58.7351  O     
21   C        98.0409   62.0358   61.0399  C     
22   N        97.3403   61.2807   62.0505  N     
23   S        97.6249   61.5887   63.6911  S     
24   C        99.3309   61.8613   64.2038  C     
25   O        96.7377   62.8262   64.1542  O     
26   O        97.1320   60.3770   64.5900  O     
27   C        94.0216   64.3909   50.8372  C     
28   C        93.7331   63.6429   53.1332  C     
29   C        92.4099   63.2572   52.8409  C     
30   C        91.8831   63.4441   51.5489  C     
31   C        92.6912   64.0197   50.5401  C     
32   Cl       92.0857   64.2737   48.9724  Cl    
33   F        90.6477   63.0863   51.3007  F     
34   C        96.3855   60.2572   61.7093  C     
35   C        98.4857   62.5906   51.6652  C     
36   C        98.2144   63.0084   50.1986  C     
37   C        96.1772   61.4140   52.0047  C     
38   H        99.0681   60.5060   53.7035  H     
39   H        95.8711   65.5427   53.0395  H     
40   H        96.5110   64.8948   51.5305  H     
41   H        95.3391   63.2519   56.5695  H     
42   H        94.3544   63.6412   58.7314  H     
43   H        95.5473   63.0881   60.7422  H     
44   H        98.9537   61.4778   60.8279  H     
45   H        98.3542   63.0097   61.4245  H     
46   H        99.9342   60.9878   63.9520  H     
47   H        99.3584   62.0240   65.2834  H     
48   H        99.7336   62.7453   63.7079  H     
49   H        94.5961   64.8018   50.0923  H     
50   H        94.0803   63.5045   54.0749  H     
51   H        91.8253   62.8389   53.5732  H     
52   H        96.3591   60.0546   60.6330  H     
53   H        95.3847   60.5660   62.0272  H     
54   H        96.6313   59.3221   62.2192  H     
55   H        99.1280   63.3572   52.1143  H     
56   H        99.0683   61.6724   51.6225  H     
57   H        97.7055   62.1872   49.6692  H     
58   H        99.1792   63.1715   49.6866  H     
59   H        97.6126   63.9138   50.1420  H     
60   H        96.6248   60.4613   51.7025  H     
61   H        95.7256   61.8633   51.1155  H     
62   H        95.3751   61.2070   52.7165  H     
@<TRIPOS>BOND
     1    1    2 1
     2    1    5 2
     3    1    6 1
     4    2    3 1
     5    2   35 1
     6    2   37 1
     7    3    4 1
     8    3    7 1
     9    4    5 1
    10    4    9 2
    11    5   10 1
    12    7    8 1
    13    8   27 1
    14    8   28 2
    15   10   12 2
    16   10   13 1
    17   11   12 1
    18   11   14 1
    19   11   19 2
    20   11   20 2
    21   13   14 2
    22   13   15 1
    23   14   18 1
    24   15   16 2
    25   16   17 1
    26   17   18 2
    27   18   21 1
    28   21   22 1
    29   22   23 1
    30   22   34 1
    31   23   24 1
    32   23   25 2
    33   23   26 2
    34   27   31 2
    35   28   29 1
    36   29   30 2
    37   30   31 1
    38   30   33 1
    39   31   32 1
    40   35   36 1
    41    6   38 1
    42    7   39 1
    43    7   40 1
    44   15   41 1
    45   16   42 1
    46   17   43 1
    47   21   44 1
    48   21   45 1
    49   24   46 1
    50   24   47 1
    51   24   48 1
    52   27   49 1
    53   28   50 1
    54   29   51 1
    55   34   52 1
    56   34   53 1
    57   34   54 1
    58   35   55 1
    59   35   56 1
    60   36   57 1
    61   36   58 1
    62   36   59 1
    63   37   60 1
    64   37   61 1
    65   37   62 1
@<TRIPOS>PROPERTY_DATA
  Total_Score	| 6.0012
  Crash		| -1.8389
  Polar		| 1.8277
  FragIndex	| 1
  FragRMSD	| 0.549

