@<TRIPOS>MOLECULE
BindingDB_30495
 67 69 0 0 0
SMALL
NO_CHARGES


@<TRIPOS>ATOM
1    C        97.1332   61.5341   54.0949  C     
2    C        96.6755   62.0010   52.8046  C     
3    N        96.1974   63.3131   53.1946  N     
4    C        96.6244   63.6074   54.4132  C     
5    C        97.1811   62.5320   54.9784  C     
6    O        97.3971   60.2535   54.3639  O     
7    C        97.7940   61.9336   51.6736  C     
8    C        95.2282   64.1242   52.4691  C     
9    C        93.7965   63.5069   52.4549  C     
10   O        96.4328   64.6604   55.0051  O     
11   C        97.7005   62.4437   56.2290  C     
12   S        99.4512   62.0510   57.9898  S     
13   N        98.9494   62.0565   56.3886  N     
14   C        97.0673   62.7789   57.4163  C     
15   C        97.9205   62.6485   58.5217  C     
16   C        95.7344   63.1987   57.6051  C     
17   C        95.2866   63.5126   58.8993  C     
18   C        96.1595   63.4074   60.0000  C     
19   C        97.5007   62.9703   59.8390  C     
20   O        99.6163   60.5820   58.5693  O     
21   O       100.5571   63.1479   58.3051  O     
22   C        97.3304   62.6468   50.3547  C     
23   C        99.1256   62.6130   52.1305  C     
24   C        98.0897   60.4374   51.3026  C     
25   C        98.4678   62.8753   60.9674  C     
26   C        92.6771   64.1945   51.5840  C     
27   C        91.5171   63.1736   51.3385  C     
28   C        92.0734   65.4243   52.3273  C     
29   C        93.2348   64.6364   50.1883  C     
30   N        97.9493   63.2285   62.2453  N     
31   S        97.7637   62.1422   63.5213  S     
32   C        99.2420   61.9498   64.5330  C     
33   O        96.5742   62.7147   64.4153  O     
34   O        97.2206   60.7403   62.9885  O     
35   H        95.8332   61.3631   52.5302  H     
36   H        98.3316   60.2177   54.6789  H     
37   H        95.1637   65.1226   52.8958  H     
38   H        95.5601   64.2706   51.4492  H     
39   H        93.8875   62.4817   52.0979  H     
40   H        93.4477   63.4551   53.4932  H     
41   H        95.0888   63.2859   56.8194  H     
42   H        94.3253   63.8292   59.0423  H     
43   H        95.7953   63.6501   60.9232  H     
44   H        96.2865   62.4279   50.1303  H     
45   H        97.9295   62.3361   49.4926  H     
46   H        97.4528   63.7258   50.4181  H     
47   H        98.9516   63.6559   52.4029  H     
48   H        99.8706   62.5915   51.3295  H     
49   H        99.5497   62.1039   52.9948  H     
50   H        98.5709   59.9111   52.1269  H     
51   H        98.7652   60.3592   50.4470  H     
52   H        97.1684   59.9078   51.0533  H     
53   H        98.8886   61.8663   60.9895  H     
54   H        99.2864   63.5712   60.7652  H     
55   H        91.8698   62.3076   50.7732  H     
56   H        90.7035   63.6338   50.7700  H     
57   H        91.1082   62.8153   52.2861  H     
58   H        91.6306   65.1190   53.2795  H     
59   H        91.2922   65.9020   51.7321  H     
60   H        92.8330   66.1777   52.5283  H     
61   H        93.9687   65.4382   50.2836  H     
62   H        92.4285   65.0064   49.5428  H     
63   H        93.7127   63.7942   49.6768  H     
64   H        97.6092   64.1235   62.3675  H     
65   H       100.0679   61.5975   63.9149  H     
66   H        99.0532   61.2304   65.3307  H     
67   H        99.5076   62.9145   64.9740  H     
@<TRIPOS>BOND
     1    1    2 1
     2    1    5 2
     3    1    6 1
     4    2    3 1
     5    2    7 1
     6    3    4 1
     7    3    8 1
     8    4    5 1
     9    4   10 2
    10    5   11 1
    11    7   22 1
    12    7   23 1
    13    7   24 1
    14    8    9 1
    15    9   26 1
    16   11   13 2
    17   11   14 1
    18   12   13 1
    19   12   15 1
    20   12   20 2
    21   12   21 2
    22   14   15 2
    23   14   16 1
    24   15   19 1
    25   16   17 2
    26   17   18 1
    27   18   19 2
    28   19   25 1
    29   25   30 1
    30   26   27 1
    31   26   28 1
    32   26   29 1
    33   30   31 1
    34   31   32 1
    35   31   33 2
    36   31   34 2
    37    2   35 1
    38    6   36 1
    39    8   37 1
    40    8   38 1
    41    9   39 1
    42    9   40 1
    43   16   41 1
    44   17   42 1
    45   18   43 1
    46   22   44 1
    47   22   45 1
    48   22   46 1
    49   23   47 1
    50   23   48 1
    51   23   49 1
    52   24   50 1
    53   24   51 1
    54   24   52 1
    55   25   53 1
    56   25   54 1
    57   27   55 1
    58   27   56 1
    59   27   57 1
    60   28   58 1
    61   28   59 1
    62   28   60 1
    63   29   61 1
    64   29   62 1
    65   29   63 1
    66   30   64 1
    67   32   65 1
    68   32   66 1
    69   32   67 1
@<TRIPOS>PROPERTY_DATA
  Total_Score	| 7.5443
  Crash		| -1.7045
  Polar		| 3.2802
  FragIndex	| 1
  FragRMSD	| 0.581

