@<TRIPOS>MOLECULE
BindingDB_30484
 58 61 0 0 0
SMALL
NO_CHARGES


@<TRIPOS>ATOM
1    C        97.2268   61.7332   54.0929  C     
2    C        96.8207   62.2692   52.8097  C     
3    N        96.6366   63.6544   53.1983  N     
4    C        97.1036   63.8584   54.4212  C     
5    C        97.4173   62.6991   54.9941  C     
6    O        97.3073   60.4322   54.3578  O     
7    C        97.8241   61.9453   51.6206  C     
8    C        95.8374   64.6352   52.4861  C     
9    C        94.4606   64.1786   52.1659  C     
10   O        97.1359   64.9380   55.0052  O     
11   C        97.7579   62.5188   56.2927  C     
12   S        99.2417   61.9640   58.2444  S     
13   N        98.9637   62.0828   56.5915  N     
14   C        96.9825   62.8241   57.4048  C     
15   C        97.6692   62.5673   58.6008  C     
16   C        95.6813   63.3725   57.4621  C     
17   C        95.1077   63.6863   58.7116  C     
18   C        95.8188   63.4330   59.9023  C     
19   C        97.1022   62.8490   59.8616  C     
20   O        99.3281   60.4417   58.7085  O     
21   O       100.3056   63.0076   58.7913  O     
22   O        97.8190   62.6574   61.0139  O     
23   C        97.7689   61.3259   61.5664  C     
24   C        96.6434   61.1445   62.6065  C     
25   C        99.2652   62.4663   51.9190  C     
26   C        97.8918   60.3918   51.3663  C     
27   C        97.3368   62.6167   50.2915  C     
28   C        93.9302   64.3126   50.8626  C     
29   C        93.6326   63.6387   53.1790  C     
30   C        92.3238   63.2119   52.8893  C     
31   C        91.8033   63.3532   51.5887  C     
32   C        92.6063   63.9194   50.5733  C     
33   Cl       92.0012   64.1455   49.0062  Cl    
34   F        90.5832   62.9601   51.3453  F     
35   H        95.8444   61.8383   52.5685  H     
36   H        98.0939   60.3350   54.9456  H     
37   H        95.7105   65.5480   53.0789  H     
38   H        96.3853   64.9366   51.5909  H     
39   H        95.1583   63.5730   56.6042  H     
40   H        94.1835   64.1186   58.7534  H     
41   H        95.4028   63.6857   60.8017  H     
42   H        97.6768   60.5572   60.7942  H     
43   H        98.7222   61.1586   62.0731  H     
44   H        96.7176   61.9130   63.3783  H     
45   H        96.7302   60.1638   63.0807  H     
46   H        95.6671   61.2135   62.1264  H     
47   H        99.2569   63.5437   52.0990  H     
48   H        99.9391   62.2701   51.0822  H     
49   H        99.6794   61.9817   52.8025  H     
50   H        98.3782   59.8766   52.1917  H     
51   H        98.4625   60.1460   50.4707  H     
52   H        96.8901   59.9765   51.2528  H     
53   H        96.2651   62.4648   50.1399  H     
54   H        97.8610   62.2112   49.4216  H     
55   H        97.5301   63.6912   50.2988  H     
56   H        94.5050   64.7119   50.1142  H     
57   H        93.9789   63.5441   54.1349  H     
58   H        91.7478   62.8009   53.6306  H     
@<TRIPOS>BOND
     1    1    2 1
     2    1    5 2
     3    1    6 1
     4    2    3 1
     5    2    7 1
     6    3    4 1
     7    3    8 1
     8    4    5 1
     9    4   10 2
    10    5   11 1
    11    7   25 1
    12    7   26 1
    13    7   27 1
    14    8    9 1
    15    9   28 1
    16    9   29 2
    17   11   13 2
    18   11   14 1
    19   12   13 1
    20   12   15 1
    21   12   20 2
    22   12   21 2
    23   14   15 2
    24   14   16 1
    25   15   19 1
    26   16   17 2
    27   17   18 1
    28   18   19 2
    29   19   22 1
    30   22   23 1
    31   23   24 1
    32   28   32 2
    33   29   30 1
    34   30   31 2
    35   31   32 1
    36   31   34 1
    37   32   33 1
    38    2   35 1
    39    6   36 1
    40    8   37 1
    41    8   38 1
    42   16   39 1
    43   17   40 1
    44   18   41 1
    45   23   42 1
    46   23   43 1
    47   24   44 1
    48   24   45 1
    49   24   46 1
    50   25   47 1
    51   25   48 1
    52   25   49 1
    53   26   50 1
    54   26   51 1
    55   26   52 1
    56   27   53 1
    57   27   54 1
    58   27   55 1
    59   28   56 1
    60   29   57 1
    61   30   58 1
@<TRIPOS>PROPERTY_DATA
  Total_Score	| 6.1859
  Crash		| -0.9987
  Polar		| 1.0692
  FragIndex	| 1
  FragRMSD	| 0.152

