@<TRIPOS>MOLECULE
BindingDB_30491
 65 68 0 0 0
SMALL
NO_CHARGES


@<TRIPOS>ATOM
1    C        97.3705   61.6807   54.0515  C     
2    C        96.9081   62.1903   52.7616  C     
3    N        96.6734   63.5730   53.1315  N     
4    C        97.1405   63.8106   54.3505  C     
5    C        97.5762   62.6795   54.9175  C     
6    O        97.5306   60.3875   54.3294  O     
7    C        97.9056   61.9118   51.5514  C     
8    C        95.9059   64.5509   52.3890  C     
9    C        94.5173   64.1118   52.0665  C     
10   O        97.0569   64.8832   54.9469  O     
11   C        98.1184   62.6083   56.1609  C     
12   S        99.4799   63.4224   58.1035  S     
13   N        99.0745   63.4562   56.4766  N     
14   C        97.6576   61.8610   57.2267  C     
15   C        98.2739   62.2323   58.4283  C     
16   C        96.6954   60.8347   57.2295  C     
17   C        96.4261   60.1432   58.4259  C     
18   C        97.0207   60.5533   59.6342  C     
19   C        97.9251   61.6387   59.6644  C     
20   O       100.8665   62.7251   58.4428  O     
21   O        99.0297   64.7291   58.8999  O     
22   C        99.3448   62.4618   51.8512  C     
23   C        98.0199   60.3652   51.2752  C     
24   C        97.3945   62.5758   50.2227  C     
25   C        93.9761   64.2903   50.7741  C     
26   C        93.6841   63.5805   53.0823  C     
27   C        92.3477   63.2319   52.8077  C     
28   C        91.8163   63.4405   51.5214  C     
29   C        92.6329   63.9722   50.5040  C     
30   Cl       92.0195   64.2720   48.9620  Cl    
31   F        90.5674   63.1391   51.2987  F     
32   C        98.4446   62.1132   60.9722  C     
33   N        97.4380   62.4289   61.9662  N     
34   S        97.9371   62.4989   63.5839  S     
35   C        98.4979   60.9379   64.2840  C     
36   O        99.0982   63.5795   63.7382  O     
37   O        96.7581   62.9809   64.5437  O     
38   C        96.1188   62.9100   61.6161  C     
39   H        95.9460   61.7156   52.5504  H     
40   H        98.2520   60.3558   55.0016  H     
41   H        95.7910   65.4857   52.9463  H     
42   H        96.4771   64.8208   51.5034  H     
43   H        96.2111   60.5669   56.3757  H     
44   H        95.7971   59.3354   58.4155  H     
45   H        96.7799   60.0566   60.4976  H     
46   H        99.3136   63.5336   52.0599  H     
47   H       100.0111   62.2961   51.0004  H     
48   H        99.7827   61.9578   52.7197  H     
49   H        98.5251   59.8404   52.0965  H     
50   H        98.6001   60.1604   50.3701  H     
51   H        97.0219   59.9314   51.1563  H     
52   H        96.3231   62.4298   50.1137  H     
53   H        97.8965   62.1463   49.3517  H     
54   H        97.5869   63.6492   50.1999  H     
55   H        94.5586   64.6858   50.0326  H     
56   H        94.0512   63.4426   54.0350  H     
57   H        91.7683   62.8455   53.5543  H     
58   H        99.1123   61.3326   61.3418  H     
59   H        99.0504   63.0079   60.8680  H     
60   H        97.6914   60.1999   64.2441  H     
61   H        98.7946   61.0991   65.3225  H     
62   H        99.3615   60.5571   63.7324  H     
63   H        96.1311   63.4504   60.6704  H     
64   H        95.7049   63.6006   62.3492  H     
65   H        95.4416   62.0592   61.5239  H     
@<TRIPOS>BOND
     1    1    2 1
     2    1    5 2
     3    1    6 1
     4    2    3 1
     5    2    7 1
     6    3    4 1
     7    3    8 1
     8    4    5 1
     9    4   10 2
    10    5   11 1
    11    7   22 1
    12    7   23 1
    13    7   24 1
    14    8    9 1
    15    9   25 1
    16    9   26 2
    17   11   13 2
    18   11   14 1
    19   12   13 1
    20   12   15 1
    21   12   20 2
    22   12   21 2
    23   14   15 2
    24   14   16 1
    25   15   19 1
    26   16   17 2
    27   17   18 1
    28   18   19 2
    29   19   32 1
    30   25   29 2
    31   26   27 1
    32   27   28 2
    33   28   29 1
    34   28   31 1
    35   29   30 1
    36   32   33 1
    37   33   34 1
    38   33   38 1
    39   34   35 1
    40   34   36 2
    41   34   37 2
    42    2   39 1
    43    6   40 1
    44    8   41 1
    45    8   42 1
    46   16   43 1
    47   17   44 1
    48   18   45 1
    49   22   46 1
    50   22   47 1
    51   22   48 1
    52   23   49 1
    53   23   50 1
    54   23   51 1
    55   24   52 1
    56   24   53 1
    57   24   54 1
    58   25   55 1
    59   26   56 1
    60   27   57 1
    61   32   58 1
    62   32   59 1
    63   35   60 1
    64   35   61 1
    65   35   62 1
    66   38   63 1
    67   38   64 1
    68   38   65 1
@<TRIPOS>PROPERTY_DATA
  Total_Score	| 7.3887
  Crash		| -2.3191
  Polar		| 2.1685
  FragIndex	| 1
  FragRMSD	| 1.340

