@<TRIPOS>MOLECULE
BindingDB_30487
 59 62 0 0 0
SMALL
NO_CHARGES


@<TRIPOS>ATOM
1    C        97.1991   61.6712   54.0715  C     
2    C        96.8678   62.1738   52.7469  C     
3    N        96.7315   63.5802   53.0669  N     
4    C        97.2117   63.8155   54.2868  C     
5    C        97.4236   62.6607   54.9343  C     
6    O        97.1991   60.3721   54.3796  O     
7    C        97.9127   61.7737   51.6086  C     
8    C        95.9153   64.5609   52.3350  C     
9    C        94.4962   64.1209   52.0771  C     
10   O        97.3667   64.9163   54.7834  O     
11   C        97.6632   62.5217   56.2733  C     
12   S        98.9557   61.9604   58.3618  S     
13   N        98.8086   62.0147   56.6839  N     
14   C        96.8317   62.9067   57.3092  C     
15   C        97.4043   62.6831   58.5795  C     
16   C        95.5527   63.5001   57.2347  C     
17   C        94.9183   63.9391   58.4048  C     
18   C        95.5266   63.7503   59.6558  C     
19   C        96.7615   63.0697   59.7835  C     
20   O        98.8788   60.4803   58.9416  O     
21   O       100.0419   62.9706   58.9301  O     
22   C        97.8323   60.2375   51.3371  C     
23   C        97.6034   62.5100   50.2457  C     
24   C        99.3854   62.1390   51.9960  C     
25   C        93.9506   64.2453   50.7769  C     
26   C        93.6756   63.6210   53.1117  C     
27   C        92.3582   63.2344   52.8528  C     
28   C        91.8147   63.3659   51.5616  C     
29   C        92.6091   63.8869   50.5206  C     
30   Cl       91.9725   64.1154   48.9676  Cl    
31   F        90.5697   63.0176   51.3557  F     
32   O        97.3966   62.9087   60.9940  O     
33   C        96.5689   62.5411   62.1360  C     
34   C        97.3520   62.3370   63.3394  C     
35   N        98.4964   61.6910   63.3040  N     
36   O        96.9337   62.7044   64.4305  O     
37   H        95.8847   61.7674   52.4883  H     
38   H        97.9267   60.2540   55.0294  H     
39   H        95.8226   65.4954   52.9211  H     
40   H        96.4070   64.8292   51.4078  H     
41   H        95.0937   63.6534   56.3364  H     
42   H        94.0158   64.4294   58.3545  H     
43   H        95.0561   64.1319   60.4881  H     
44   H        98.2028   59.6747   52.1868  H     
45   H        98.4482   59.9641   50.4761  H     
46   H        96.8051   59.9284   51.1355  H     
47   H        96.5198   62.4696   50.0310  H     
48   H        98.1276   62.0131   49.3997  H     
49   H        97.9264   63.5560   50.2679  H     
50   H        99.4744   63.2052   52.2152  H     
51   H       100.0693   61.9009   51.1795  H     
52   H        99.7076   61.5815   52.8777  H     
53   H        94.5200   64.6124   50.0062  H     
54   H        94.0474   63.5231   54.0610  H     
55   H        91.7840   62.8551   53.6117  H     
56   H        95.8352   63.3298   62.3254  H     
57   H        96.0313   61.6080   61.9286  H     
58   H        98.9854   61.5340   64.1283  H     
59   H        98.8552   61.3767   62.4578  H     
@<TRIPOS>BOND
     1    1    2 1
     2    1    5 2
     3    1    6 1
     4    2    3 1
     5    2    7 1
     6    3    4 1
     7    3    8 1
     8    4    5 1
     9    4   10 2
    10    5   11 1
    11    7   22 1
    12    7   23 1
    13    7   24 1
    14    8    9 1
    15    9   25 1
    16    9   26 2
    17   11   13 2
    18   11   14 1
    19   12   13 1
    20   12   15 1
    21   12   20 2
    22   12   21 2
    23   14   15 2
    24   14   16 1
    25   15   19 1
    26   16   17 2
    27   17   18 1
    28   18   19 2
    29   19   32 1
    30   25   29 2
    31   26   27 1
    32   27   28 2
    33   28   29 1
    34   28   31 1
    35   29   30 1
    36   32   33 1
    37   33   34 1
    38   34   35 am
    39   34   36 2
    40    2   37 1
    41    6   38 1
    42    8   39 1
    43    8   40 1
    44   16   41 1
    45   17   42 1
    46   18   43 1
    47   22   44 1
    48   22   45 1
    49   22   46 1
    50   23   47 1
    51   23   48 1
    52   23   49 1
    53   24   50 1
    54   24   51 1
    55   24   52 1
    56   25   53 1
    57   26   54 1
    58   27   55 1
    59   33   56 1
    60   33   57 1
    61   35   58 1
    62   35   59 1
@<TRIPOS>PROPERTY_DATA
  Total_Score	| 7.2397
  Crash		| -1.4848
  Polar		| 3.2019
  FragIndex	| 1
  FragRMSD	| 0.307

