@<TRIPOS>MOLECULE
BindingDB_30483
 58 61 0 0 0
SMALL
NO_CHARGES


@<TRIPOS>ATOM
1    C        97.3007   61.7689   54.0797  C     
2    C        96.8652   62.2771   52.7923  C     
3    N        96.6925   63.6708   53.1370  N     
4    C        97.2210   63.9131   54.3272  C     
5    C        97.5410   62.7698   54.9335  C     
6    O        97.3025   60.4694   54.3859  O     
7    C        97.8513   61.9367   51.5921  C     
8    C        95.8774   64.6314   52.4166  C     
9    C        94.4886   64.1690   52.1169  C     
10   O        97.2961   65.0158   54.8620  O     
11   C        97.8711   62.6133   56.2380  C     
12   S        99.3257   62.0620   58.2151  S     
13   N        99.0751   62.1862   56.5595  N     
14   C        97.0615   62.8791   57.3328  C     
15   C        97.7231   62.6113   58.5359  C     
16   C        95.7418   63.3877   57.3677  C     
17   C        95.1367   63.6678   58.6104  C     
18   C        95.8266   63.4113   59.8111  C     
19   C        97.1198   62.8479   59.7880  C     
20   O        99.4278   60.5638   58.7449  O     
21   O       100.2897   63.1758   58.8118  O     
22   O        97.8160   62.6113   60.9429  O     
23   C        97.7233   61.2689   61.4653  C     
24   C        96.6028   61.1639   62.5131  C     
25   C        99.3082   62.4490   51.8484  C     
26   C        97.9174   60.3868   51.3664  C     
27   C        97.3442   62.5766   50.2603  C     
28   C        93.9235   64.3319   50.8308  C     
29   C        93.6935   63.5986   53.1381  C     
30   C        92.3725   63.1886   52.8795  C     
31   C        91.8213   63.3618   51.5981  C     
32   C        92.5959   63.9409   50.5742  C     
33   Cl       91.9276   64.1795   49.0366  Cl    
34   H        95.8863   61.8356   52.5942  H     
35   H        98.0662   60.3203   54.9851  H     
36   H        95.7579   65.5583   52.9825  H     
37   H        96.4013   64.9167   51.5030  H     
38   H        95.2324   63.5875   56.5061  H     
39   H        94.1993   64.0785   58.6426  H     
40   H        95.3871   63.6482   60.7058  H     
41   H        97.5771   60.5109   60.6866  H     
42   H        98.6704   61.0475   61.9639  H     
43   H        96.7971   61.8537   63.3393  H     
44   H        96.5487   60.1479   62.9119  H     
45   H        95.6417   61.4152   62.0620  H     
46   H        99.3227   63.5279   52.0143  H     
47   H        99.9486   62.2298   50.9882  H     
48   H        99.7464   61.9644   52.7225  H     
49   H        98.4421   59.8849   52.1834  H     
50   H        98.4556   60.1359   50.4484  H     
51   H        96.9120   59.9631   51.2949  H     
52   H        96.2738   62.4175   50.1308  H     
53   H        97.8582   62.1487   49.3968  H     
54   H        97.5388   63.6500   50.2350  H     
55   H        94.4745   64.7461   50.0764  H     
56   H        94.0696   63.4699   54.0791  H     
57   H        91.8089   62.7667   53.6242  H     
58   H        90.8556   63.0652   51.4156  H     
@<TRIPOS>BOND
     1    1    2 1
     2    1    5 2
     3    1    6 1
     4    2    3 1
     5    2    7 1
     6    3    4 1
     7    3    8 1
     8    4    5 1
     9    4   10 2
    10    5   11 1
    11    7   25 1
    12    7   26 1
    13    7   27 1
    14    8    9 1
    15    9   28 1
    16    9   29 2
    17   11   13 2
    18   11   14 1
    19   12   13 1
    20   12   15 1
    21   12   20 2
    22   12   21 2
    23   14   15 2
    24   14   16 1
    25   15   19 1
    26   16   17 2
    27   17   18 1
    28   18   19 2
    29   19   22 1
    30   22   23 1
    31   23   24 1
    32   28   32 2
    33   29   30 1
    34   30   31 2
    35   31   32 1
    36   32   33 1
    37    2   34 1
    38    6   35 1
    39    8   36 1
    40    8   37 1
    41   16   38 1
    42   17   39 1
    43   18   40 1
    44   23   41 1
    45   23   42 1
    46   24   43 1
    47   24   44 1
    48   24   45 1
    49   25   46 1
    50   25   47 1
    51   25   48 1
    52   26   49 1
    53   26   50 1
    54   26   51 1
    55   27   52 1
    56   27   53 1
    57   27   54 1
    58   28   55 1
    59   29   56 1
    60   30   57 1
    61   31   58 1
@<TRIPOS>PROPERTY_DATA
  Total_Score	| 5.8148
  Crash		| -0.9620
  Polar		| 1.0124
  FragIndex	| 1
  FragRMSD	| 0.103

