@<TRIPOS>MOLECULE
BindingDB_18018
 54 56 0 0 0
SMALL
NO_CHARGES


@<TRIPOS>ATOM
1    C         7.6427   96.3307  143.5382  C     
2    C         9.1178   94.4625  143.4297  C     
3    C         8.7448   94.2455  142.0721  C     
4    C         7.7379   95.0851  141.5305  C     
5    N         8.5587   95.5066  144.0969  N     
6    N         7.2274   96.1063  142.2685  N     
7    N         7.2142   97.3930  144.2426  N     
8    N         7.2531   94.9498  140.2814  N     
9    C        10.1167   93.6753  144.1982  C     
10   C        10.9852   94.5845  145.0977  C     
11   C         9.4557   93.3441  141.2417  C     
12   C         9.0147   92.0299  141.0142  C     
13   C         9.7734   91.1619  140.2042  C     
14   C        10.6490   93.7754  140.6233  C     
15   C        11.4368   92.9414  139.7808  C     
16   C        10.9812   91.5988  139.6044  C     
17   C        11.7582   90.6010  138.8219  C     
18   C        13.2350   91.0324  138.6255  C     
19   C        13.2983   92.5204  138.2251  C     
20   N        12.6153   93.3729  139.1861  N     
21   C        13.2260   94.6670  139.4727  C     
22   C        13.6811   94.7675  140.9636  C     
23   C        13.2896   96.0921  141.6918  C     
24   C        14.3911   97.0331  141.9103  C     
25   O        15.4940   96.6214  142.5879  O     
26   O        14.2101   98.3639  141.6342  O     
27   C        15.0503   99.4786  141.9056  C     
28   H         6.6774   98.0831  143.8200  H     
29   H         7.5861   97.5453  145.1235  H     
30   H         6.5450   95.5348  139.9616  H     
31   H         7.5800   94.2491  139.6962  H     
32   H         9.5746   92.9447  144.8194  H     
33   H        10.7720   93.1139  143.5295  H     
34   H        11.5234   95.3141  144.4578  H     
35   H        11.7201   93.9879  145.6385  H     
36   H        10.3754   95.1264  145.8263  H     
37   H         8.1579   91.6940  141.4546  H     
38   H         9.4348   90.2090  140.0724  H     
39   H        10.9431   94.7364  140.8034  H     
40   H        11.7554   89.6295  139.3265  H     
41   H        11.2836   90.4764  137.8454  H     
42   H        13.7863   90.8792  139.5622  H     
43   H        13.6977   90.4016  137.8532  H     
44   H        14.3556   92.7774  138.1061  H     
45   H        12.8185   92.6412  137.2500  H     
46   H        14.0899   94.8831  138.8390  H     
47   H        12.5136   95.4476  139.2087  H     
48   H        13.2339   93.9488  141.5273  H     
49   H        14.7666   94.5955  141.0135  H     
50   H        12.4800   96.5934  141.1483  H     
51   H        12.8967   95.8255  142.6879  H     
52   H        14.4763  100.2047  142.4952  H     
53   H        15.3561   99.9454  140.9640  H     
54   H        15.9366   99.1857  142.4676  H     
@<TRIPOS>BOND
     1    1    5 2
     2    1    6 1
     3    1    7 1
     4    2    3 2
     5    2    5 1
     6    2    9 1
     7    3    4 1
     8    3   11 1
     9    4    6 2
    10    4    8 1
    11    9   10 1
    12   11   12 2
    13   11   14 1
    14   12   13 1
    15   13   16 2
    16   14   15 2
    17   15   16 1
    18   15   20 1
    19   16   17 1
    20   17   18 1
    21   18   19 1
    22   19   20 1
    23   20   21 1
    24   21   22 1
    25   22   23 1
    26   23   24 1
    27   24   25 2
    28   24   26 1
    29   26   27 1
    30    7   28 1
    31    7   29 1
    32    8   30 1
    33    8   31 1
    34    9   32 1
    35    9   33 1
    36   10   34 1
    37   10   35 1
    38   10   36 1
    39   12   37 1
    40   13   38 1
    41   14   39 1
    42   17   40 1
    43   17   41 1
    44   18   42 1
    45   18   43 1
    46   19   44 1
    47   19   45 1
    48   21   46 1
    49   21   47 1
    50   22   48 1
    51   22   49 1
    52   23   50 1
    53   23   51 1
    54   27   52 1
    55   27   53 1
    56   27   54 1
@<TRIPOS>PROPERTY_DATA
  Total_Score	| 11.3088
  Crash		| -1.2456
  Polar		| 5.9747
  FragIndex	| 1
  FragRMSD	| 0.608

