@<TRIPOS>MOLECULE
BindingDB_17971
 53 55 0 0 0
SMALL
NO_CHARGES


@<TRIPOS>ATOM
1    C         7.3093   95.9468  143.7174  C     
2    C         7.6492   95.0522  141.5489  C     
3    C         8.8416   94.4167  141.9795  C     
4    C         9.2183   94.5698  143.3428  C     
5    N         8.4374   95.3271  144.1522  N     
6    N         6.9235   95.7976  142.4242  N     
7    N         6.6298   96.7061  144.5837  N     
8    N         7.1692   94.9739  140.2952  N     
9    C        10.3934   93.9316  143.9913  C     
10   C        11.0085   94.7643  145.1419  C     
11   C         9.6318   93.6568  141.0839  C     
12   C        10.8310   94.1983  140.5666  C     
13   C         9.3078   92.3131  140.8108  C     
14   C        10.1957   91.5124  140.0742  C     
15   C        11.7396   93.4208  139.8021  C     
16   C        11.3979   92.0563  139.5925  C     
17   C        13.0067   91.7829  137.9157  C     
18   C        13.7520   93.0453  138.4369  C     
19   O        12.2636   91.1868  138.9892  O     
20   N        12.9304   93.8892  139.2823  N     
21   C        13.4447   95.2211  139.5534  C     
22   C        13.9883   95.3909  141.0007  C     
23   C        14.1904   96.8911  141.3453  C     
24   O        15.2626   97.0836  142.2890  O     
25   C        15.1453   98.2498  143.1254  C     
26   C        13.9704   90.7291  137.3334  C     
27   H         5.8497   97.2139  144.2939  H     
28   H         6.9545   96.7863  145.4899  H     
29   H         6.3506   95.4431  140.0510  H     
30   H         7.6357   94.4572  139.6182  H     
31   H        10.1037   92.9563  144.3902  H     
32   H        11.1970   93.7421  143.2749  H     
33   H        11.2460   95.7530  144.7707  H     
34   H        11.9283   94.2814  145.4916  H     
35   H        10.3159   94.8683  145.9833  H     
36   H        11.0481   95.1749  140.7839  H     
37   H         8.4533   91.8968  141.1987  H     
38   H         9.9834   90.5245  139.9479  H     
39   H        12.3120   92.0657  137.1188  H     
40   H        14.6275   92.7397  139.0235  H     
41   H        14.0997   93.5919  137.5602  H     
42   H        14.2679   95.4898  138.8855  H     
43   H        12.6651   95.9562  139.3325  H     
44   H        13.2911   94.9442  141.7288  H     
45   H        14.9320   94.8683  141.1019  H     
46   H        14.4914   97.4176  140.4431  H     
47   H        13.2286   97.3119  141.6917  H     
48   H        15.1539   99.1817  142.5360  H     
49   H        15.9769   98.2908  143.8174  H     
50   H        14.2291   98.2130  143.7114  H     
51   H        14.5267   91.1417  136.4861  H     
52   H        13.4005   89.8619  136.9882  H     
53   H        14.6873   90.4008  138.0940  H     
@<TRIPOS>BOND
     1    1    5 2
     2    1    6 1
     3    1    7 1
     4    2    3 1
     5    2    6 2
     6    2    8 1
     7    3    4 2
     8    3   11 1
     9    4    5 1
    10    4    9 1
    11    9   10 1
    12   11   12 1
    13   11   13 2
    14   12   15 2
    15   13   14 1
    16   14   16 2
    17   15   16 1
    18   15   20 1
    19   16   19 1
    20   17   18 1
    21   17   19 1
    22   17   26 1
    23   18   20 1
    24   20   21 1
    25   21   22 1
    26   22   23 1
    27   23   24 1
    28   24   25 1
    29    7   27 1
    30    7   28 1
    31    8   29 1
    32    8   30 1
    33    9   31 1
    34    9   32 1
    35   10   33 1
    36   10   34 1
    37   10   35 1
    38   12   36 1
    39   13   37 1
    40   14   38 1
    41   17   39 1
    42   18   40 1
    43   18   41 1
    44   21   42 1
    45   21   43 1
    46   22   44 1
    47   22   45 1
    48   23   46 1
    49   23   47 1
    50   25   48 1
    51   25   49 1
    52   25   50 1
    53   26   51 1
    54   26   52 1
    55   26   53 1
@<TRIPOS>PROPERTY_DATA
  Total_Score	| 10.0933
  Crash		| -1.0982
  Polar		| 4.3394
  FragIndex	| 1
  FragRMSD	| 0.324

