@<TRIPOS>MOLECULE
BindingDB_17972
 53 55 0 0 0
SMALL
NO_CHARGES


@<TRIPOS>ATOM
1    C         7.3026   95.8627  143.7480  C     
2    C         7.6747   94.9934  141.5878  C     
3    C         8.8834   94.3830  142.0162  C     
4    C         9.2726   94.5778  143.3740  C     
5    N         8.4533   95.3005  144.1862  N     
6    N         6.9319   95.7133  142.4576  N     
7    N         6.5384   96.5704  144.5951  N     
8    N         7.2046   94.9222  140.3246  N     
9    C        10.4591   93.9302  144.0083  C     
10   C        11.1334   94.7444  145.1390  C     
11   C         9.6697   93.6071  141.1073  C     
12   C        10.9112   94.0899  140.6391  C     
13   C         9.2323   92.3338  140.6882  C     
14   C        10.0220   91.5707  139.8148  C     
15   C        11.7460   93.3349  139.7724  C     
16   C        11.2680   92.0533  139.3675  C     
17   C        13.3891   91.4025  138.5342  C     
18   C        13.7765   92.9097  138.4540  C     
19   O        11.9548   91.2735  138.4657  O     
20   N        12.9847   93.7619  139.3259  N     
21   C        13.5051   95.0968  139.5965  C     
22   C        14.1352   95.2574  141.0182  C     
23   C        13.9743   96.6764  141.6360  C     
24   O        15.1681   97.0964  142.3332  O     
25   C        15.0478   98.3804  142.9823  C     
26   C        14.0449   90.5479  137.4185  C     
27   H         5.7090   96.9817  144.2946  H     
28   H         6.8116   96.6691  145.5220  H     
29   H         6.3781   95.3705  140.0893  H     
30   H         7.6963   94.4334  139.6508  H     
31   H        10.1257   92.9791  144.4222  H     
32   H        11.2350   93.7198  143.2760  H     
33   H        11.4040   95.7423  144.7889  H     
34   H        12.0459   94.2419  145.4696  H     
35   H        10.4587   94.8262  145.9903  H     
36   H        11.2061   95.0126  140.9641  H     
37   H         8.3342   91.9569  141.0098  H     
38   H         9.6912   90.6533  139.5050  H     
39   H        13.7325   91.0021  139.4961  H     
40   H        14.8366   92.9863  138.7129  H     
41   H        13.6514   93.2619  137.4251  H     
42   H        14.2760   95.3771  138.8672  H     
43   H        12.7051   95.8239  139.4284  H     
44   H        13.6972   94.5295  141.7021  H     
45   H        15.1944   95.0039  140.9494  H     
46   H        13.7478   97.4153  140.8592  H     
47   H        13.1357   96.6608  142.3397  H     
48   H        14.7938   99.1764  142.2711  H     
49   H        16.0083   98.6284  143.4410  H     
50   H        14.2889   98.3483  143.7720  H     
51   H        13.6957   90.8666  136.4341  H     
52   H        13.7895   89.4933  137.5532  H     
53   H        15.1323   90.6451  137.4541  H     
@<TRIPOS>BOND
     1    1    5 2
     2    1    6 1
     3    1    7 1
     4    2    3 1
     5    2    6 2
     6    2    8 1
     7    3    4 2
     8    3   11 1
     9    4    5 1
    10    4    9 1
    11    9   10 1
    12   11   12 1
    13   11   13 2
    14   12   15 2
    15   13   14 1
    16   14   16 2
    17   15   16 1
    18   15   20 1
    19   16   19 1
    20   17   18 1
    21   17   19 1
    22   17   26 1
    23   18   20 1
    24   20   21 1
    25   21   22 1
    26   22   23 1
    27   23   24 1
    28   24   25 1
    29    7   27 1
    30    7   28 1
    31    8   29 1
    32    8   30 1
    33    9   31 1
    34    9   32 1
    35   10   33 1
    36   10   34 1
    37   10   35 1
    38   12   36 1
    39   13   37 1
    40   14   38 1
    41   17   39 1
    42   18   40 1
    43   18   41 1
    44   21   42 1
    45   21   43 1
    46   22   44 1
    47   22   45 1
    48   23   46 1
    49   23   47 1
    50   25   48 1
    51   25   49 1
    52   25   50 1
    53   26   51 1
    54   26   52 1
    55   26   53 1
@<TRIPOS>PROPERTY_DATA
  Total_Score	| 10.6709
  Crash		| -1.1307
  Polar		| 4.1456
  FragIndex	| 1
  FragRMSD	| 0.351

