@<TRIPOS>MOLECULE
BindingDB_17970
 53 55 0 0 0
SMALL
NO_CHARGES


@<TRIPOS>ATOM
1    C         7.4464   96.0953  143.7182  C     
2    C         7.6861   95.0872  141.5958  C     
3    C         8.9852   94.6126  141.9443  C     
4    C         9.4773   94.9452  143.2402  C     
5    N         8.6795   95.6659  144.0731  N     
6    N         6.9679   95.8231  142.4891  N     
7    N         6.7437   96.8445  144.5853  N     
8    N         7.0982   94.8536  140.4035  N     
9    C        10.8172   94.5885  143.7854  C     
10   C        11.1631   93.0858  143.7066  C     
11   C         9.7489   93.8216  141.0401  C     
12   C        10.9603   94.2953  140.4830  C     
13   C         9.3023   92.5146  140.7378  C     
14   C        10.0922   91.6712  139.9340  C     
15   C        11.7890   93.4373  139.6986  C     
16   C        11.3208   92.1244  139.4146  C     
17   C        13.4371   91.4316  138.6196  C     
18   C        13.7704   92.9214  138.3530  C     
19   O        12.0091   91.2506  138.6123  O     
20   N        13.0387   93.8087  139.2466  N     
21   C        13.6287   95.0997  139.5458  C     
22   C        14.1514   95.2016  141.0103  C     
23   C        14.0666   96.6371  141.5598  C     
24   O        15.2289   96.9471  142.3441  O     
25   C        15.1336   98.1781  143.0831  C     
26   C        14.0626   90.4803  137.5724  C     
27   H         5.8835   97.2380  144.3198  H     
28   H         7.1251   97.0558  145.4589  H     
29   H         6.2139   95.2133  140.2228  H     
30   H         7.5347   94.3239  139.7208  H     
31   H        11.5906   95.1662  143.2650  H     
32   H        10.8761   94.8741  144.8418  H     
33   H        10.3571   92.4915  144.1497  H     
34   H        12.0983   92.8864  144.2475  H     
35   H        11.3033   92.7781  142.6592  H     
36   H        11.2309   95.2629  140.6694  H     
37   H         8.4295   92.1438  141.1438  H     
38   H         9.7722   90.7226  139.7296  H     
39   H        13.8373   91.1605  139.6024  H     
40   H        14.8585   93.0379  138.4595  H     
41   H        13.5090   93.1877  137.3234  H     
42   H        14.4685   95.3175  138.8717  H     
43   H        12.8820   95.8573  139.3184  H     
44   H        13.5744   94.5522  141.6776  H     
45   H        15.1890   94.8631  141.0518  H     
46   H        13.9777   97.3328  140.7189  H     
47   H        13.1796   96.6925  142.1980  H     
48   H        15.1976   99.0340  142.3994  H     
49   H        15.9599   98.2415  143.7898  H     
50   H        14.1942   98.2389  143.6546  H     
51   H        13.6412   90.6782  136.5822  H     
52   H        13.8478   89.4422  137.8349  H     
53   H        15.1428   90.6220  137.5351  H     
@<TRIPOS>BOND
     1    1    5 2
     2    1    6 1
     3    1    7 1
     4    2    3 1
     5    2    6 2
     6    2    8 1
     7    3    4 2
     8    3   11 1
     9    4    5 1
    10    4    9 1
    11    9   10 1
    12   11   12 1
    13   11   13 2
    14   12   15 2
    15   13   14 1
    16   14   16 2
    17   15   16 1
    18   15   20 1
    19   16   19 1
    20   17   18 1
    21   17   19 1
    22   17   26 1
    23   18   20 1
    24   20   21 1
    25   21   22 1
    26   22   23 1
    27   23   24 1
    28   24   25 1
    29    7   27 1
    30    7   28 1
    31    8   29 1
    32    8   30 1
    33    9   31 1
    34    9   32 1
    35   10   33 1
    36   10   34 1
    37   10   35 1
    38   12   36 1
    39   13   37 1
    40   14   38 1
    41   17   39 1
    42   18   40 1
    43   18   41 1
    44   21   42 1
    45   21   43 1
    46   22   44 1
    47   22   45 1
    48   23   46 1
    49   23   47 1
    50   25   48 1
    51   25   49 1
    52   25   50 1
    53   26   51 1
    54   26   52 1
    55   26   53 1
@<TRIPOS>PROPERTY_DATA
  Total_Score	| 10.3222
  Crash		| -1.1439
  Polar		| 4.2342
  FragIndex	| 1
  FragRMSD	| 0.597

