@<TRIPOS>MOLECULE
BindingDB_18019
 57 59 0 0 0
SMALL
NO_CHARGES


@<TRIPOS>ATOM
1    C         7.3567   96.0977  143.6997  C     
2    C         9.2291   94.6693  143.3052  C     
3    C         8.7351   94.3886  141.9993  C     
4    C         7.5434   95.0389  141.5903  C     
5    N         8.5109   95.5068  144.0997  N     
6    N         6.8960   95.8706  142.4475  N     
7    N         6.7195   96.9230  144.5405  N     
8    N         7.0037   94.8940  140.3624  N     
9    C        10.4757   94.0374  143.8448  C     
10   C        11.1392   94.7164  145.0636  C     
11   C         9.4500   93.5367  141.1227  C     
12   C         9.0235   92.2061  140.9534  C     
13   C         9.8137   91.3233  140.2078  C     
14   C        10.6418   93.9564  140.5243  C     
15   C        11.5008   93.0912  139.8119  C     
16   C        11.0387   91.7460  139.6468  C     
17   C        11.8152   90.7565  138.8459  C     
18   C        13.3045   91.1317  138.7030  C     
19   C        13.4318   92.6344  138.3671  C     
20   N        12.7151   93.4937  139.2901  N     
21   C        13.3448   94.7874  139.5796  C     
22   C        14.0051   94.8673  140.9957  C     
23   C        13.8303   96.1983  141.7783  C     
24   C        13.7053   97.4672  140.8872  C     
25   C        14.9565   98.2562  140.7794  C     
26   C        16.1840  100.0013  139.5114  C     
27   O        15.8035   98.2916  141.8499  O     
28   O        15.1246   99.0685  139.6937  O     
29   H         5.9042   97.3844  144.2720  H     
30   H         7.0977   97.0595  145.4259  H     
31   H         6.1964   95.3760  140.1268  H     
32   H         7.4195   94.3193  139.7024  H     
33   H        10.2440   92.9994  144.1104  H     
34   H        11.2342   94.0266  143.0558  H     
35   H        11.4212   95.7471  144.8247  H     
36   H        12.0481   94.1716  145.3339  H     
37   H        10.4644   94.7140  145.9236  H     
38   H         8.1550   91.8612  141.3896  H     
39   H         9.4943   90.3558  140.0900  H     
40   H        10.9009   94.9689  140.6775  H     
41   H        11.7509   89.7721  139.3220  H     
42   H        11.3463   90.6908  137.8558  H     
43   H        13.8222   90.9231  139.6422  H     
44   H        13.7522   90.5146  137.9178  H     
45   H        14.5061   92.8434  138.2987  H     
46   H        13.0159   92.8034  137.3696  H     
47   H        14.1354   95.0202  138.8549  H     
48   H        12.6198   95.5776  139.4145  H     
49   H        13.5984   94.0698  141.6280  H     
50   H        15.0915   94.6871  140.9115  H     
51   H        12.9117   96.1163  142.4151  H     
52   H        14.6601   96.3102  142.4710  H     
53   H        13.3533   97.1966  139.8788  H     
54   H        12.9448   98.1350  141.3098  H     
55   H        16.1920  100.7353  140.3157  H     
56   H        16.0186  100.5233  138.5765  H     
57   H        17.1455   99.4877  139.4800  H     
@<TRIPOS>BOND
     1    1    5 2
     2    1    6 1
     3    1    7 1
     4    2    3 2
     5    2    5 1
     6    2    9 1
     7    3    4 1
     8    3   11 1
     9    4    6 2
    10    4    8 1
    11    9   10 1
    12   11   12 2
    13   11   14 1
    14   12   13 1
    15   13   16 2
    16   14   15 2
    17   15   16 1
    18   15   20 1
    19   16   17 1
    20   17   18 1
    21   18   19 1
    22   19   20 1
    23   20   21 1
    24   21   22 1
    25   22   23 1
    26   23   24 1
    27   24   25 1
    28   25   27 2
    29   25   28 1
    30   26   28 1
    31    7   29 1
    32    7   30 1
    33    8   31 1
    34    8   32 1
    35    9   33 1
    36    9   34 1
    37   10   35 1
    38   10   36 1
    39   10   37 1
    40   12   38 1
    41   13   39 1
    42   14   40 1
    43   17   41 1
    44   17   42 1
    45   18   43 1
    46   18   44 1
    47   19   45 1
    48   19   46 1
    49   21   47 1
    50   21   48 1
    51   22   49 1
    52   22   50 1
    53   23   51 1
    54   23   52 1
    55   24   53 1
    56   24   54 1
    57   26   55 1
    58   26   56 1
    59   26   57 1
@<TRIPOS>PROPERTY_DATA
  Total_Score	| 10.9382
  Crash		| -3.1504
  Polar		| 5.1478
  FragIndex	| 1
  FragRMSD	| 0.478

