@<TRIPOS>MOLECULE
BindingDB_50053070
 46 47 0 0 0
SMALL
NO_CHARGES


@<TRIPOS>ATOM
1    C       -28.2316   33.9483    5.5173  C     
2    C       -29.1688   32.7545    5.8912  C     
3    N       -28.8048   34.0802    7.8751  N     
4    C       -28.4786   34.9345    6.7097  C     
5    C       -29.1436   31.5341    5.0243  C     
6    C       -28.9175   32.6852    7.4239  C     
7    C       -29.5614   35.9389    6.5242  C     
8    C       -26.7184   33.5857    5.3510  C     
9    C       -29.6151   31.5793    3.6560  C     
10   C       -25.8488   34.7348    4.9994  C     
11   C       -31.2080   31.6934   -0.3570  C     
12   C       -30.7026   31.6540    0.9539  C     
13   C       -28.7649   30.3627    5.6028  C     
14   O       -29.9072   36.7257    7.5685  O     
15   O       -26.3278   35.9891    4.8513  O     
16   C       -30.0776   32.7814    3.0373  C     
17   C       -29.7069   30.4177    2.8195  C     
18   C       -30.2714   30.4407    1.5336  C     
19   C       -30.5899   32.8256    1.7307  C     
20   C       -32.0310   30.7150   -0.7934  C     
21   O       -30.2512   36.0955    5.3684  O     
22   O       -24.5287   34.5432    4.8064  O     
23   C       -30.8517   32.8103   -1.2509  C     
24   C       -29.9199   32.3928   -2.4118  C     
25   H       -28.5539   34.3982    4.5770  H     
26   H       -30.2043   33.1099    5.8443  H     
27   H       -28.0539   34.1505    8.5728  H     
28   H       -29.6879   34.3603    8.3062  H     
29   H       -27.5657   35.5041    6.9486  H     
30   H       -29.7274   32.1752    7.9442  H     
31   H       -27.9706   32.2018    7.6700  H     
32   H       -26.3170   33.1309    6.2676  H     
33   H       -26.6149   32.8460    4.5506  H     
34   H       -28.8420   29.4922    5.1520  H     
35   H       -28.4380   30.2997    6.5209  H     
36   H       -30.0858   33.6689    3.5460  H     
37   H       -29.3702   29.5031    3.1336  H     
38   H       -30.3324   29.5642    1.0057  H     
39   H       -30.9257   33.7246    1.3668  H     
40   H       -32.4116   30.7380   -1.7121  H     
41   H       -32.3075   29.9671   -0.1998  H     
42   H       -31.7662   33.2536   -1.6530  H     
43   H       -30.3207   33.6001   -0.7081  H     
44   H       -28.9590   32.0504   -2.0171  H     
45   H       -29.7448   33.2553   -3.0559  H     
46   H       -30.3691   31.5931   -3.0096  H     
@<TRIPOS>BOND
     1    1    2 1
     2    1    4 1
     3    1    8 1
     4    2    5 1
     5    2    6 1
     6    3    4 1
     7    3    6 1
     8    4    7 1
     9    5    9 1
    10    5   13 2
    11    7   14 2
    12    7   21 1
    13    8   10 1
    14    9   16 1
    15    9   17 2
    16   10   15 2
    17   10   22 1
    18   11   12 1
    19   11   20 2
    20   11   23 1
    21   12   18 2
    22   12   19 1
    23   16   19 2
    24   17   18 1
    25   23   24 1
    26    1   25 1
    27    2   26 1
    28    3   27 1
    29    3   28 1
    30    4   29 1
    31    6   30 1
    32    6   31 1
    33    8   32 1
    34    8   33 1
    35   13   34 1
    36   13   35 1
    37   16   36 1
    38   17   37 1
    39   18   38 1
    40   19   39 1
    41   20   40 1
    42   20   41 1
    43   23   42 1
    44   23   43 1
    45   24   44 1
    46   24   45 1
    47   24   46 1
@<TRIPOS>PROPERTY_DATA
  Total_Score	| 15.0427
  Crash		| -1.1963
  Polar		| 10.6111
  FragIndex	| 1
  FragRMSD	| 0.899

