@<TRIPOS>MOLECULE
BindingDB_50002369
 29 29 0 0 0
SMALL
NO_CHARGES


@<TRIPOS>ATOM
1    C       -28.2120   33.9351    5.4913  C     
2    C       -29.1383   32.7270    5.8268  C     
3    C       -28.4698   34.8892    6.7067  C     
4    C       -26.6891   33.5854    5.3340  C     
5    C       -28.9404   32.6209    7.3578  C     
6    C       -29.0251   31.5222    4.9756  C     
7    C       -29.5237   35.9213    6.5397  C     
8    C       -25.8489   34.7590    5.0145  C     
9    C       -29.1092   31.7025    3.5235  C     
10   C       -28.9510   30.2732    5.4751  C     
11   O       -29.8299   36.7233    7.5844  O     
12   O       -24.5212   34.6166    4.8063  O     
13   N       -28.8109   34.0015    7.8393  N     
14   O       -30.2306   36.0865    5.3991  O     
15   O       -26.3956   35.9828    4.8320  O     
16   H       -28.5527   34.3892    4.5552  H     
17   H       -30.1706   33.0697    5.6849  H     
18   H       -27.5591   35.4276    6.9806  H     
19   H       -26.3062   33.1390    6.2546  H     
20   H       -26.5508   32.8474    4.5424  H     
21   H       -29.7828   32.1279    7.8466  H     
22   H       -28.0185   32.0868    7.5987  H     
23   H       -30.0488   32.2003    3.2664  H     
24   H       -29.0737   30.7619    2.9655  H     
25   H       -28.2804   32.3170    3.1680  H     
26   H       -28.8997   29.4810    4.8786  H     
27   H       -28.9518   30.0973    6.4494  H     
28   H       -28.0653   34.0453    8.5379  H     
29   H       -29.6890   34.2862    8.2761  H     
@<TRIPOS>BOND
     1    1    2 1
     2    1    3 1
     3    1    4 1
     4    2    5 1
     5    2    6 1
     6    3    7 1
     7    3   13 1
     8    4    8 1
     9    5   13 1
    10    6    9 1
    11    6   10 2
    12    7   11 2
    13    7   14 1
    14    8   12 2
    15    8   15 1
    16    1   16 1
    17    2   17 1
    18    3   18 1
    19    4   19 1
    20    4   20 1
    21    5   21 1
    22    5   22 1
    23    9   23 1
    24    9   24 1
    25    9   25 1
    26   10   26 1
    27   10   27 1
    28   13   28 1
    29   13   29 1
@<TRIPOS>PROPERTY_DATA
  Total_Score	| 12.8023
  Crash		| -0.3189
  Polar		| 10.6640
  FragIndex	| 1
  FragRMSD	| 0.205

