@<TRIPOS>MOLECULE
BindingDB_50252103
 41 41 0 0 0
SMALL
NO_CHARGES


@<TRIPOS>ATOM
1    N       -28.7885   33.9806    7.8148  N     
2    C       -28.4601   34.9260    6.7278  C     
3    C       -28.3440   34.0645    5.4348  C     
4    C       -29.3392   32.8992    5.7303  C     
5    C       -29.0701   32.6544    7.2390  C     
6    C       -29.4672   36.0123    6.6334  C     
7    O       -29.7311   36.8010    7.7008  O     
8    O       -30.3074   36.1363    5.5720  O     
9    C       -29.4309   30.4934    5.1373  C     
10   C       -29.3739   31.7865    4.7539  C     
11   C       -29.4719   32.1573    3.3299  C     
12   C       -26.8725   33.6138    5.1253  C     
13   C       -25.9058   34.7192    4.9143  C     
14   O       -24.5798   34.4527    4.8255  O     
15   O       -26.3205   35.9957    4.7564  O     
16   C       -29.5873   29.4332    4.3051  C     
17   C       -30.7742   28.8126    4.1396  C     
18   C       -30.9952   27.6793    3.2369  C     
19   C       -31.1341   28.1008    1.7509  C     
20   C       -29.9619   26.6248    3.4054  C     
21   O       -28.6465   26.9245    3.4147  O     
22   O       -30.3186   25.3373    3.6085  O     
23   H       -27.9930   33.9073    8.4499  H     
24   H       -29.6006   34.3037    8.3365  H     
25   H       -27.4989   35.3828    6.9690  H     
26   H       -28.6961   34.6245    4.5601  H     
27   H       -30.3429   33.3189    5.6937  H     
28   H       -28.1987   32.0185    7.3924  H     
29   H       -29.9277   32.1993    7.7420  H     
30   H       -29.4217   30.2759    6.0995  H     
31   H       -29.8758   33.1757    3.2041  H     
32   H       -30.1391   31.5015    2.7715  H     
33   H       -28.4754   32.1300    2.8765  H     
34   H       -26.4912   32.9775    5.9391  H     
35   H       -26.8657   33.0239    4.1940  H     
36   H       -28.8077   29.1508    3.7644  H     
37   H       -31.5548   29.1367    4.6701  H     
38   H       -31.9575   27.2298    3.5193  H     
39   H       -31.9160   28.8526    1.6368  H     
40   H       -31.3973   27.2362    1.1451  H     
41   H       -30.2074   28.5161    1.3650  H     
@<TRIPOS>BOND
     1    1    2 1
     2    1    5 1
     3    2    3 1
     4    2    6 1
     5    3    4 1
     6    3   12 1
     7    4    5 1
     8    4   10 1
     9    6    7 2
    10    6    8 1
    11    9   10 2
    12    9   16 1
    13   10   11 1
    14   12   13 1
    15   13   14 2
    16   13   15 1
    17   16   17 2
    18   17   18 1
    19   18   19 1
    20   18   20 1
    21   20   21 1
    22   20   22 2
    23    1   23 1
    24    1   24 1
    25    2   25 1
    26    3   26 1
    27    4   27 1
    28    5   28 1
    29    5   29 1
    30    9   30 1
    31   11   31 1
    32   11   32 1
    33   11   33 1
    34   12   34 1
    35   12   35 1
    36   16   36 1
    37   17   37 1
    38   18   38 1
    39   19   39 1
    40   19   40 1
    41   19   41 1
@<TRIPOS>PROPERTY_DATA
  Total_Score	| 13.5314
  Crash		| -1.6428
  Polar		| 11.7503
  FragIndex	| 1
  FragRMSD	| 0.430

