@<TRIPOS>MOLECULE
BindingDB_50053061
 36 37 0 0 0
SMALL
NO_CHARGES


@<TRIPOS>ATOM
1    C       -28.3304   33.9496    5.4692  C     
2    C       -29.2491   32.7337    5.8072  C     
3    N       -28.8094   33.9710    7.8401  N     
4    C       -28.4845   34.8728    6.7220  C     
5    C       -29.1999   31.5405    4.8957  C     
6    C       -28.9625   32.6082    7.3306  C     
7    C       -29.5236   35.9272    6.5854  C     
8    C       -26.8495   33.5659    5.1218  C     
9    C       -29.6096   31.6570    3.5074  C     
10   C       -25.9344   34.7196    4.9630  C     
11   C       -28.7835   30.3562    5.4170  C     
12   O       -29.7171   36.7914    7.6053  O     
13   O       -24.5945   34.5194    4.8957  O     
14   C       -30.0990   32.8788    2.9563  C     
15   C       -29.6104   30.5530    2.5835  C     
16   O       -29.8216   36.4364    5.3618  O     
17   C       -30.4450   31.9148    0.7461  C     
18   O       -26.4070   35.9794    4.8029  O     
19   C       -30.4914   33.0165    1.6128  C     
20   C       -30.0105   30.6789    1.2418  C     
21   Cl      -30.9287   32.0690   -0.8723  Cl    
22   H       -28.6942   34.4772    4.5813  H     
23   H       -30.2886   33.0858    5.7811  H     
24   H       -28.0434   33.9920    8.5183  H     
25   H       -29.6706   34.2430    8.3020  H     
26   H       -27.5420   35.3749    6.9685  H     
27   H       -29.7719   32.0858    7.8531  H     
28   H       -28.0238   32.0970    7.5378  H     
29   H       -26.4365   32.8871    5.8762  H     
30   H       -26.8380   33.0297    4.1631  H     
31   H       -28.6804   29.5305    4.8746  H     
32   H       -28.5240   30.2487    6.3677  H     
33   H       -30.2203   33.7138    3.5206  H     
34   H       -29.3141   29.6102    2.8530  H     
35   H       -30.8130   33.9269    1.2720  H     
36   H       -29.9615   29.8643    0.6196  H     
@<TRIPOS>BOND
     1    1    2 1
     2    1    4 1
     3    1    8 1
     4    2    5 1
     5    2    6 1
     6    3    4 1
     7    3    6 1
     8    4    7 1
     9    5    9 1
    10    5   11 2
    11    7   12 2
    12    7   16 1
    13    8   10 1
    14    9   14 2
    15    9   15 1
    16   10   13 2
    17   10   18 1
    18   14   19 1
    19   15   20 2
    20   17   19 2
    21   17   20 1
    22   17   21 1
    23    1   22 1
    24    2   23 1
    25    3   24 1
    26    3   25 1
    27    4   26 1
    28    6   27 1
    29    6   28 1
    30    8   29 1
    31    8   30 1
    32   11   31 1
    33   11   32 1
    34   14   33 1
    35   15   34 1
    36   19   35 1
    37   20   36 1
@<TRIPOS>PROPERTY_DATA
  Total_Score	| 13.6075
  Crash		| -1.0163
  Polar		| 11.2901
  FragIndex	| 1
  FragRMSD	| 0.367

