@<TRIPOS>MOLECULE
BindingDB_50053060
 48 49 0 0 0
SMALL
NO_CHARGES


@<TRIPOS>ATOM
1    C       -28.2525   33.9888    5.5807  C     
2    C       -29.1920   32.7750    5.8492  C     
3    N       -28.8102   33.9256    7.9298  N     
4    C       -28.4751   34.8738    6.8447  C     
5    C       -29.1486   31.6337    4.8852  C     
6    C       -28.9709   32.5720    7.3777  C     
7    C       -29.5391   35.9048    6.6719  C     
8    C       -26.7483   33.6155    5.3478  C     
9    C       -29.5440   31.8231    3.5008  C     
10   C       -25.8614   34.7627    5.0463  C     
11   C       -30.8609   32.4307   -0.7321  C     
12   C       -30.4070   32.2453    0.7104  C     
13   C       -28.7489   30.4284    5.3589  C     
14   O       -29.7465   36.8076    7.6454  O     
15   O       -24.5266   34.5357    4.8702  O     
16   C       -29.7220   30.7516    2.5681  C     
17   C       -29.8469   33.1060    2.9494  C     
18   C       -30.2212   33.3095    1.6163  C     
19   C       -30.1449   30.9487    1.2371  C     
20   O       -29.8577   36.3632    5.4304  O     
21   O       -26.3413   36.0175    4.8395  O     
22   C       -31.9631   31.3630   -1.0547  C     
23   C       -31.4649   33.8403   -1.0560  C     
24   C       -29.6566   32.2669   -1.7174  C     
25   H       -28.5631   34.5339    4.6871  H     
26   H       -30.2258   33.1378    5.7956  H     
27   H       -28.0496   33.9484    8.6104  H     
28   H       -29.6724   34.2040    8.3941  H     
29   H       -27.5598   35.4122    7.1294  H     
30   H       -29.8380   32.0756    7.8449  H     
31   H       -28.0463   32.0283    7.6110  H     
32   H       -26.3508   33.0768    6.2318  H     
33   H       -26.6710   32.9415    4.4775  H     
34   H       -28.6558   29.6256    4.8032  H     
35   H       -28.5523   30.2680    6.3111  H     
36   H       -29.5707   29.7711    2.8255  H     
37   H       -29.8541   33.9476    3.5166  H     
38   H       -30.3836   34.2803    1.3416  H     
39   H       -30.2707   30.1218    0.6528  H     
40   H       -31.5601   30.3533   -1.0244  H     
41   H       -32.3759   31.5131   -2.0561  H     
42   H       -32.7745   31.4258   -0.3325  H     
43   H       -32.3313   34.0477   -0.4297  H     
44   H       -31.7753   33.9148   -2.1038  H     
45   H       -30.7370   34.6400   -0.8902  H     
46   H       -28.9301   33.0717   -1.5811  H     
47   H       -29.9825   32.2871   -2.7642  H     
48   H       -29.1389   31.3272   -1.5578  H     
@<TRIPOS>BOND
     1    1    2 1
     2    1    4 1
     3    1    8 1
     4    2    5 1
     5    2    6 1
     6    3    4 1
     7    3    6 1
     8    4    7 1
     9    5    9 1
    10    5   13 2
    11    7   14 2
    12    7   20 1
    13    8   10 1
    14    9   16 1
    15    9   17 2
    16   10   15 2
    17   10   21 1
    18   11   12 1
    19   11   22 1
    20   11   23 1
    21   11   24 1
    22   12   18 2
    23   12   19 1
    24   16   19 2
    25   17   18 1
    26    1   25 1
    27    2   26 1
    28    3   27 1
    29    3   28 1
    30    4   29 1
    31    6   30 1
    32    6   31 1
    33    8   32 1
    34    8   33 1
    35   13   34 1
    36   13   35 1
    37   16   36 1
    38   17   37 1
    39   18   38 1
    40   19   39 1
    41   22   40 1
    42   22   41 1
    43   22   42 1
    44   23   43 1
    45   23   44 1
    46   23   45 1
    47   24   46 1
    48   24   47 1
    49   24   48 1
@<TRIPOS>PROPERTY_DATA
  Total_Score	| 12.8566
  Crash		| -3.5036
  Polar		| 10.5860
  FragIndex	| 1
  FragRMSD	| 0.351

