@<TRIPOS>MOLECULE
BindingDB_50053059
 45 46 0 0 0
SMALL
NO_CHARGES


@<TRIPOS>ATOM
1    C       -28.2337   33.9469    5.5190  C     
2    C       -29.1492   32.7459    5.9045  C     
3    N       -28.7869   34.0648    7.8849  N     
4    C       -28.4466   34.9216    6.7281  C     
5    C       -29.1134   31.5354    5.0266  C     
6    C       -28.8793   32.6717    7.4314  C     
7    C       -29.4956   35.9616    6.5664  C     
8    C       -26.7275   33.5806    5.2801  C     
9    C       -29.5387   31.6010    3.6480  C     
10   C       -25.8536   34.7294    4.9326  C     
11   C       -28.7988   30.3459    5.6058  C     
12   O       -29.8437   36.7279    7.6249  O     
13   O       -24.5219   34.5368    4.8120  O     
14   C       -29.5815   30.4630    2.7797  C     
15   C       -30.0278   32.8067    3.0639  C     
16   O       -30.1617   36.1713    5.4074  O     
17   O       -26.3371   35.9793    4.7501  O     
18   C       -30.5689   32.8651    1.7685  C     
19   C       -30.1608   30.4988    1.4993  C     
20   C       -30.6674   31.7059    0.9726  C     
21   C       -31.3815   31.7557   -0.3341  C     
22   C       -30.8674   32.8668   -1.2991  C     
23   C       -29.8496   32.3529   -2.3441  C     
24   H       -28.5847   34.4046    4.5919  H     
25   H       -30.1868   33.0882    5.8659  H     
26   H       -28.0557   34.1448    8.5979  H     
27   H       -29.6818   34.3388    8.2977  H     
28   H       -27.5197   35.4492    6.9658  H     
29   H       -29.6828   32.1502    7.9591  H     
30   H       -27.9256   32.1899    7.6657  H     
31   H       -26.3097   33.1071    6.1729  H     
32   H       -26.6550   32.8637    4.4586  H     
33   H       -28.8501   29.4837    5.1355  H     
34   H       -28.5567   30.2691    6.5613  H     
35   H       -29.2144   29.5560    3.0668  H     
36   H       -30.0639   33.6779    3.5875  H     
37   H       -30.9438   33.7572    1.4322  H     
38   H       -30.2215   29.6363    0.9559  H     
39   H       -31.3377   30.7892   -0.8464  H     
40   H       -32.4377   31.9405   -0.1171  H     
41   H       -31.7218   33.2867   -1.8455  H     
42   H       -30.4090   33.6872   -0.7387  H     
43   H       -28.9967   31.8875   -1.8486  H     
44   H       -29.4941   33.1838   -2.9578  H     
45   H       -30.3223   31.6162   -3.0009  H     
@<TRIPOS>BOND
     1    1    2 1
     2    1    4 1
     3    1    8 1
     4    2    5 1
     5    2    6 1
     6    3    4 1
     7    3    6 1
     8    4    7 1
     9    5    9 1
    10    5   11 2
    11    7   12 2
    12    7   16 1
    13    8   10 1
    14    9   14 2
    15    9   15 1
    16   10   13 2
    17   10   17 1
    18   14   19 1
    19   15   18 2
    20   18   20 1
    21   19   20 2
    22   20   21 1
    23   21   22 1
    24   22   23 1
    25    1   24 1
    26    2   25 1
    27    3   26 1
    28    3   27 1
    29    4   28 1
    30    6   29 1
    31    6   30 1
    32    8   31 1
    33    8   32 1
    34   11   33 1
    35   11   34 1
    36   14   35 1
    37   15   36 1
    38   18   37 1
    39   19   38 1
    40   21   39 1
    41   21   40 1
    42   22   41 1
    43   22   42 1
    44   23   43 1
    45   23   44 1
    46   23   45 1
@<TRIPOS>PROPERTY_DATA
  Total_Score	| 14.3493
  Crash		| -1.2489
  Polar		| 10.6132
  FragIndex	| 1
  FragRMSD	| 0.296

