@<TRIPOS>MOLECULE
BindingDB_50240399
 31 31 0 0 0
SMALL
NO_CHARGES


@<TRIPOS>ATOM
1    C       -28.4693   34.8251    6.7311  C     
2    C       -28.1139   33.9378    5.4966  C     
3    C       -28.9471   32.6458    5.7424  C     
4    C       -28.8648   32.5055    7.2756  C     
5    N       -28.8192   33.8784    7.8148  N     
6    C       -28.5751   31.3575    4.9263  C     
7    C       -29.1148   30.0442    5.5672  C     
8    C       -29.0610   31.4463    3.4514  C     
9    C       -29.5622   35.8151    6.5525  C     
10   O       -29.8672   36.6541    7.5648  O     
11   O       -30.1604   36.0618    5.3609  O     
12   C       -26.5657   33.7149    5.3842  C     
13   C       -25.7762   34.9082    5.0168  C     
14   O       -26.3282   36.1306    4.8891  O     
15   O       -24.4428   34.7757    4.7723  O     
16   H       -27.6000   35.4053    7.0641  H     
17   H       -28.4375   34.3964    4.5625  H     
18   H       -29.9882   32.8838    5.5043  H     
19   H       -29.7327   31.9891    7.6906  H     
20   H       -27.9563   31.9793    7.5792  H     
21   H       -28.1153   33.9358    8.5560  H     
22   H       -29.7343   34.1175    8.2111  H     
23   H       -27.4848   31.2483    4.9122  H     
24   H       -28.6846   29.8975    6.5648  H     
25   H       -28.8365   29.1774    4.9549  H     
26   H       -30.2092   30.0722    5.6546  H     
27   H       -30.1521   31.5314    3.4178  H     
28   H       -28.7571   30.5581    2.8933  H     
29   H       -28.6238   32.3147    2.9597  H     
30   H       -26.1734   33.3349    6.3380  H     
31   H       -26.3387   32.9732    4.6118  H     
@<TRIPOS>BOND
     1    1    2 1
     2    1    5 1
     3    1    9 1
     4    2    3 1
     5    2   12 1
     6    3    4 1
     7    3    6 1
     8    4    5 1
     9    6    7 1
    10    6    8 1
    11    9   10 1
    12    9   11 2
    13   12   13 1
    14   13   14 1
    15   13   15 2
    16    1   16 1
    17    2   17 1
    18    3   18 1
    19    4   19 1
    20    4   20 1
    21    5   21 1
    22    5   22 1
    23    6   23 1
    24    7   24 1
    25    7   25 1
    26    7   26 1
    27    8   27 1
    28    8   28 1
    29    8   29 1
    30   12   30 1
    31   12   31 1
@<TRIPOS>PROPERTY_DATA
  Total_Score	| 12.6801
  Crash		| -0.6545
  Polar		| 10.4490
  FragIndex	| 1
  FragRMSD	| 0.844

