@<TRIPOS>MOLECULE
BindingDB_50053062
 42 43 0 0 0
SMALL
NO_CHARGES


@<TRIPOS>ATOM
1    C       -28.2895   34.0086    5.4666  C     
2    C       -29.2273   32.7985    5.7697  C     
3    C       -29.2050   31.5862    4.8717  C     
4    N       -28.8065   33.9831    7.8368  N     
5    C       -28.4419   34.8986    6.7433  C     
6    C       -29.7143   31.6348    3.5070  C     
7    C       -28.9453   32.6373    7.2963  C     
8    C       -29.4652   35.9843    6.6084  C     
9    C       -26.8405   33.5805    5.0441  C     
10   C       -25.8846   34.6936    4.9156  C     
11   C       -29.8482   32.8628    2.7860  C     
12   C       -30.1803   30.4857    2.7708  C     
13   C       -28.7697   30.4043    5.3985  C     
14   O       -29.8011   36.4636    5.3877  O     
15   O       -26.3276   35.9563    4.7482  O     
16   C       -30.3335   32.9672    1.4688  C     
17   C       -30.7125   30.5526    1.4666  C     
18   C       -30.7810   31.8020    0.8176  C     
19   O       -29.7889   36.7818    7.6502  O     
20   O       -24.5690   34.4634    4.8744  O     
21   C       -31.2601   29.3196    0.8442  C     
22   C       -30.4044   34.2997    0.8083  C     
23   H       -28.6465   34.5947    4.6220  H     
24   H       -30.2595   33.1701    5.7233  H     
25   H       -28.0665   33.9917    8.5458  H     
26   H       -29.6938   34.2375    8.2722  H     
27   H       -27.4964   35.3800    7.0315  H     
28   H       -29.7397   32.0966    7.8135  H     
29   H       -27.9889   32.1574    7.5022  H     
30   H       -26.4285   32.8226    5.7202  H     
31   H       -26.8981   33.1298    4.0461  H     
32   H       -29.6333   33.7490    3.2229  H     
33   H       -30.1787   29.5409    3.1722  H     
34   H       -28.7561   29.5463    4.9164  H     
35   H       -28.4566   30.3091    6.3225  H     
36   H       -31.1778   31.8631   -0.1218  H     
37   H       -30.4999   28.5492    0.7809  H     
38   H       -31.6457   29.4791   -0.1580  H     
39   H       -32.0865   28.9441    1.4487  H     
40   H       -31.0100   34.9698    1.4127  H     
41   H       -30.8367   34.2638   -0.1928  H     
42   H       -29.3990   34.7231    0.7392  H     
@<TRIPOS>BOND
     1    1    2 1
     2    1    5 1
     3    1    9 1
     4    2    3 1
     5    2    7 1
     6    3    6 1
     7    3   13 2
     8    4    5 1
     9    4    7 1
    10    5    8 1
    11    6   11 1
    12    6   12 2
    13    8   14 2
    14    8   19 1
    15    9   10 1
    16   10   15 2
    17   10   20 1
    18   11   16 2
    19   12   17 1
    20   16   18 1
    21   16   22 1
    22   17   18 2
    23   17   21 1
    24    1   23 1
    25    2   24 1
    26    4   25 1
    27    4   26 1
    28    5   27 1
    29    7   28 1
    30    7   29 1
    31    9   30 1
    32    9   31 1
    33   11   32 1
    34   12   33 1
    35   13   34 1
    36   13   35 1
    37   18   36 1
    38   21   37 1
    39   21   38 1
    40   21   39 1
    41   22   40 1
    42   22   41 1
    43   22   42 1
@<TRIPOS>PROPERTY_DATA
  Total_Score	| 13.8710
  Crash		| -0.8233
  Polar		| 10.6743
  FragIndex	| 1
  FragRMSD	| 1.246

