@<TRIPOS>MOLECULE
BindingDB_50053082
 48 49 0 0 0
SMALL
NO_CHARGES


@<TRIPOS>ATOM
1    C       -28.2922   33.9657    5.4742  C     
2    C       -29.2110   32.7503    5.8108  C     
3    N       -28.8134   34.0157    7.8404  N     
4    C       -28.4772   34.9073    6.7146  C     
5    C       -29.1660   31.5391    4.9259  C     
6    C       -28.9523   32.6454    7.3400  C     
7    C       -29.5202   35.9583    6.5960  C     
8    C       -26.8028   33.5730    5.1801  C     
9    C       -29.5898   31.6022    3.5413  C     
10   C       -25.8810   34.7122    4.9929  C     
11   C       -28.8185   30.3552    5.4940  C     
12   O       -29.7663   36.7709    7.6440  O     
13   O       -24.5572   34.4721    4.8245  O     
14   C       -29.6854   30.4571    2.6853  C     
15   C       -29.9951   32.8228    2.9210  C     
16   O       -30.2779   36.1423    5.4828  O     
17   O       -26.3333   35.9696    4.7957  O     
18   C       -30.4460   32.9046    1.5910  C     
19   C       -30.1690   30.5254    1.3681  C     
20   C       -30.5448   31.7531    0.7883  C     
21   C       -31.0394   31.8580   -0.6241  C     
22   C       -30.0543   32.6326   -1.5475  C     
23   C       -30.6644   33.2038   -2.8539  C     
24   C       -30.6398   32.2292   -4.0517  C     
25   H       -28.6466   34.4754    4.5802  H     
26   H       -30.2448   33.0984    5.7575  H     
27   H       -28.0703   34.0433    8.5401  H     
28   H       -29.6882   34.3070    8.2783  H     
29   H       -27.5443   35.4140    6.9568  H     
30   H       -29.7806   32.1373    7.8445  H     
31   H       -28.0168   32.1344    7.5780  H     
32   H       -26.4099   32.9316    5.9862  H     
33   H       -26.7756   32.9885    4.2432  H     
34   H       -28.8469   29.4947    5.0097  H     
35   H       -28.5502   30.2749    6.4356  H     
36   H       -29.3917   29.5296    2.9977  H     
37   H       -30.0094   33.6914    3.4356  H     
38   H       -30.7216   33.8164    1.2195  H     
39   H       -30.2404   29.6643    0.8163  H     
40   H       -31.1961   30.8610   -1.0416  H     
41   H       -32.0049   32.3633   -0.6110  H     
42   H       -29.6323   33.4758   -0.9868  H     
43   H       -29.2234   31.9715   -1.8176  H     
44   H       -31.6921   33.5255   -2.6616  H     
45   H       -30.0926   34.0895   -3.1396  H     
46   H       -29.6154   31.9288   -4.2687  H     
47   H       -31.0529   32.7270   -4.9297  H     
48   H       -31.2359   31.3437   -3.8446  H     
@<TRIPOS>BOND
     1    1    2 1
     2    1    4 1
     3    1    8 1
     4    2    5 1
     5    2    6 1
     6    3    4 1
     7    3    6 1
     8    4    7 1
     9    5    9 1
    10    5   11 2
    11    7   12 2
    12    7   16 1
    13    8   10 1
    14    9   14 2
    15    9   15 1
    16   10   13 2
    17   10   17 1
    18   14   19 1
    19   15   18 2
    20   18   20 1
    21   19   20 2
    22   20   21 1
    23   21   22 1
    24   22   23 1
    25   23   24 1
    26    1   25 1
    27    2   26 1
    28    3   27 1
    29    3   28 1
    30    4   29 1
    31    6   30 1
    32    6   31 1
    33    8   32 1
    34    8   33 1
    35   11   34 1
    36   11   35 1
    37   14   36 1
    38   15   37 1
    39   18   38 1
    40   19   39 1
    41   21   40 1
    42   21   41 1
    43   22   42 1
    44   22   43 1
    45   23   44 1
    46   23   45 1
    47   24   46 1
    48   24   47 1
    49   24   48 1
@<TRIPOS>PROPERTY_DATA
  Total_Score	| 14.1702
  Crash		| -1.4478
  Polar		| 10.6191
  FragIndex	| 1
  FragRMSD	| 0.317

