@<TRIPOS>MOLECULE
BindingDB_50053067
 36 37 0 0 0
SMALL
NO_CHARGES


@<TRIPOS>ATOM
1    C       -28.2512   33.9164    5.4850  C     
2    C       -29.1668   32.7112    5.8774  C     
3    N       -28.7992   34.0454    7.8506  N     
4    C       -28.4662   34.8980    6.6896  C     
5    C       -29.1248   31.4753    5.0401  C     
6    C       -28.9158   32.6571    7.4077  C     
7    C       -29.5230   35.9272    6.5337  C     
8    C       -26.7441   33.5610    5.2515  C     
9    C       -25.8883   34.7164    4.8913  C     
10   C       -29.5590   31.4983    3.6683  C     
11   C       -28.8346   30.2985    5.6599  C     
12   O       -29.9026   36.6646    7.5992  O     
13   O       -24.5713   34.5121    4.6493  O     
14   O       -30.1628   36.1611    5.3645  O     
15   O       -26.3592   35.9815    4.7846  O     
16   C       -30.0922   32.6738    3.0490  C     
17   C       -29.5442   30.3295    2.8356  C     
18   C       -30.1225   30.3154    1.5506  C     
19   C       -30.5983   32.6776    1.7337  C     
20   C       -30.6356   31.4905    0.9819  C     
21   H       -28.6074   34.3709    4.5591  H     
22   H       -30.2050   33.0563    5.8134  H     
23   H       -28.0556   34.1142    8.5528  H     
24   H       -29.6824   34.3287    8.2768  H     
25   H       -27.5476   35.4381    6.9327  H     
26   H       -29.7373   32.1631    7.9332  H     
27   H       -27.9736   32.1548    7.6416  H     
28   H       -26.3292   33.0897    6.1464  H     
29   H       -26.6701   32.8401    4.4322  H     
30   H       -28.9179   29.4217    5.2145  H     
31   H       -28.5750   30.2445    6.6117  H     
32   H       -30.1519   33.5678    3.5445  H     
33   H       -29.1280   29.4442    3.1465  H     
34   H       -30.1457   29.4404    1.0186  H     
35   H       -30.9737   33.5394    1.3310  H     
36   H       -31.0542   31.4768    0.0439  H     
@<TRIPOS>BOND
     1    1    2 1
     2    1    4 1
     3    1    8 1
     4    2    5 1
     5    2    6 1
     6    3    4 1
     7    3    6 1
     8    4    7 1
     9    5   10 1
    10    5   11 2
    11    7   12 2
    12    7   14 1
    13    8    9 1
    14    9   13 2
    15    9   15 1
    16   10   16 2
    17   10   17 1
    18   16   19 1
    19   17   18 2
    20   18   20 1
    21   19   20 2
    22    1   21 1
    23    2   22 1
    24    3   23 1
    25    3   24 1
    26    4   25 1
    27    6   26 1
    28    6   27 1
    29    8   28 1
    30    8   29 1
    31   11   30 1
    32   11   31 1
    33   16   32 1
    34   17   33 1
    35   18   34 1
    36   19   35 1
    37   20   36 1
@<TRIPOS>PROPERTY_DATA
  Total_Score	| 13.1189
  Crash		| -0.8535
  Polar		| 10.6505
  FragIndex	| 1
  FragRMSD	| 0.300

