@<TRIPOS>MOLECULE
BindingDB_50053068
 43 44 0 0 0
SMALL
NO_CHARGES


@<TRIPOS>ATOM
1    C       -28.2713   33.9250    5.4513  C     
2    C       -29.1977   32.7184    5.8133  C     
3    N       -28.8135   34.0258    7.8216  N     
4    C       -28.4674   34.8882    6.6699  C     
5    C       -29.1515   31.4874    4.9529  C     
6    C       -28.9427   32.6410    7.3484  C     
7    C       -29.4984   35.9441    6.5356  C     
8    C       -26.7733   33.5502    5.1927  C     
9    C       -29.6199   31.5107    3.5825  C     
10   C       -25.8652   34.6970    4.9454  C     
11   C       -31.1287   31.5690   -0.4480  C     
12   C       -30.6408   31.5572    0.8603  C     
13   C       -28.7296   30.3350    5.5260  C     
14   O       -29.7707   36.7427    7.5922  O     
15   O       -24.5311   34.4917    4.9154  O     
16   C       -29.6889   30.3434    2.7561  C     
17   C       -30.1130   32.6992    2.9638  C     
18   C       -30.5847   32.7336    1.6366  C     
19   C       -30.1954   30.3566    1.4451  C     
20   C       -32.2128   30.8391   -0.7727  C     
21   O       -30.2368   36.1118    5.4139  O     
22   O       -26.3196   35.9531    4.7384  O     
23   C       -30.3995   32.3335   -1.4531  C     
24   H       -28.6200   34.4058    4.5335  H     
25   H       -30.2323   33.0740    5.7586  H     
26   H       -28.0691   34.0735    8.5225  H     
27   H       -29.6935   34.3179    8.2495  H     
28   H       -27.5295   35.4003    6.9117  H     
29   H       -29.7613   32.1402    7.8705  H     
30   H       -28.0005   32.1381    7.5870  H     
31   H       -26.3803   32.9875    6.0462  H     
32   H       -26.7173   32.9046    4.3095  H     
33   H       -28.6501   29.4897    5.0258  H     
34   H       -28.4650   30.2749    6.4784  H     
35   H       -29.3823   29.4265    3.0866  H     
36   H       -30.1716   33.5816    3.4767  H     
37   H       -30.9307   33.6213    1.2526  H     
38   H       -30.2392   29.4772    0.9263  H     
39   H       -32.5600   30.8183   -1.7045  H     
40   H       -32.7030   30.3117   -0.0803  H     
41   H       -30.3633   33.3907   -1.1795  H     
42   H       -30.8518   32.2585   -2.4445  H     
43   H       -29.3780   31.9548   -1.5223  H     
@<TRIPOS>BOND
     1    1    2 1
     2    1    4 1
     3    1    8 1
     4    2    5 1
     5    2    6 1
     6    3    4 1
     7    3    6 1
     8    4    7 1
     9    5    9 1
    10    5   13 2
    11    7   14 2
    12    7   21 1
    13    8   10 1
    14    9   16 1
    15    9   17 2
    16   10   15 2
    17   10   22 1
    18   11   12 1
    19   11   20 2
    20   11   23 1
    21   12   18 2
    22   12   19 1
    23   16   19 2
    24   17   18 1
    25    1   24 1
    26    2   25 1
    27    3   26 1
    28    3   27 1
    29    4   28 1
    30    6   29 1
    31    6   30 1
    32    8   31 1
    33    8   32 1
    34   13   33 1
    35   13   34 1
    36   16   35 1
    37   17   36 1
    38   18   37 1
    39   19   38 1
    40   20   39 1
    41   20   40 1
    42   23   41 1
    43   23   42 1
    44   23   43 1
@<TRIPOS>PROPERTY_DATA
  Total_Score	| 14.6149
  Crash		| -0.9713
  Polar		| 10.6077
  FragIndex	| 1
  FragRMSD	| 0.319

