@<TRIPOS>MOLECULE
BindingDB_50053089
 42 43 0 0 0
SMALL
NO_CHARGES


@<TRIPOS>ATOM
1    C       -28.3171   33.9810    5.4806  C     
2    C       -29.2202   32.7572    5.8421  C     
3    N       -28.7926   33.9745    7.8728  N     
4    C       -28.4135   34.8762    6.7645  C     
5    C       -29.2021   31.5773    4.9149  C     
6    C       -28.8870   32.6102    7.3524  C     
7    C       -29.3744   36.0129    6.6197  C     
8    C       -26.8675   33.5993    5.0149  C     
9    C       -29.6570   31.7009    3.5496  C     
10   C       -25.9336   34.7331    4.8722  C     
11   C       -28.7998   30.3829    5.4167  C     
12   O       -29.6769   36.8372    7.6413  O     
13   O       -24.6029   34.5295    4.9433  O     
14   C       -29.7858   30.5994    2.6516  C     
15   C       -30.0378   32.9527    2.9864  C     
16   O       -29.8569   36.3603    5.4009  O     
17   O       -26.3898   35.9997    4.8015  O     
18   C       -30.2497   30.7392    1.3314  C     
19   C       -30.4474   33.1148    1.6508  C     
20   C       -30.5572   32.0030    0.7909  C     
21   C       -31.0101   32.0869   -0.6275  C     
22   C       -31.1716   33.4946   -1.2574  C     
23   H       -28.7518   34.5250    4.6389  H     
24   H       -30.2608   33.0997    5.8542  H     
25   H       -28.0902   34.0081    8.6111  H     
26   H       -29.6976   34.2314    8.2710  H     
27   H       -27.4432   35.3101    7.0253  H     
28   H       -29.6694   32.0683    7.8881  H     
29   H       -27.9242   32.1188    7.5292  H     
30   H       -26.4285   32.8524    5.6947  H     
31   H       -26.9411   33.1403    4.0137  H     
32   H       -28.8030   29.5480    4.8927  H     
33   H       -28.4993   30.2677    6.3505  H     
34   H       -29.5306   29.6544    2.9217  H     
35   H       -30.0601   33.7980    3.5473  H     
36   H       -30.3264   29.9041    0.7518  H     
37   H       -30.6873   34.0544    1.3261  H     
38   H       -30.2929   31.5472   -1.2551  H     
39   H       -31.9752   31.5726   -0.6971  H     
40   H       -31.9207   34.0760   -0.7179  H     
41   H       -31.4914   33.3987   -2.2952  H     
42   H       -30.2193   34.0257   -1.2298  H     
@<TRIPOS>BOND
     1    1    2 1
     2    1    4 1
     3    1    8 1
     4    2    5 1
     5    2    6 1
     6    3    4 1
     7    3    6 1
     8    4    7 1
     9    5    9 1
    10    5   11 2
    11    7   12 2
    12    7   16 1
    13    8   10 1
    14    9   14 2
    15    9   15 1
    16   10   13 2
    17   10   17 1
    18   14   18 1
    19   15   19 2
    20   18   20 2
    21   19   20 1
    22   20   21 1
    23   21   22 1
    24    1   23 1
    25    2   24 1
    26    3   25 1
    27    3   26 1
    28    4   27 1
    29    6   28 1
    30    6   29 1
    31    8   30 1
    32    8   31 1
    33   11   32 1
    34   11   33 1
    35   14   34 1
    36   15   35 1
    37   18   36 1
    38   19   37 1
    39   21   38 1
    40   21   39 1
    41   22   40 1
    42   22   41 1
    43   22   42 1
@<TRIPOS>PROPERTY_DATA
  Total_Score	| 13.6249
  Crash		| -1.3274
  Polar		| 10.5860
  FragIndex	| 1
  FragRMSD	| 0.379

