@<TRIPOS>MOLECULE
BindingDB_50053081
 43 44 0 0 0
SMALL
NO_CHARGES


@<TRIPOS>ATOM
1    C       -28.8059   33.9698    5.4400  C     
2    C       -28.5671   32.4757    5.8006  C     
3    N       -28.9623   33.8590    7.8338  N     
4    C       -28.6292   34.7899    6.7535  C     
5    C       -29.0851   31.3194    4.9767  C     
6    C       -29.0799   32.5058    7.2797  C     
7    C       -29.4268   36.0409    6.8283  C     
8    C       -27.9492   34.5288    4.2537  C     
9    C       -29.5319   31.3097    3.6002  C     
10   C       -26.5376   34.8367    4.5478  C     
11   C       -31.3101   31.0388   -0.3090  C     
12   C       -30.6824   31.1236    0.9315  C     
13   C       -29.0766   30.1237    5.6196  C     
14   O       -29.5251   36.7323    7.9824  O     
15   O       -25.5828   33.8834    4.5063  O     
16   C       -29.4666   30.1239    2.8026  C     
17   C       -30.1076   32.4165    2.9191  C     
18   C       -30.6608   32.3437    1.6281  C     
19   C       -30.0674   30.0111    1.5337  C     
20   C       -32.5037   30.4261   -0.4029  C     
21   O       -30.1646   36.4924    5.7902  O     
22   O       -26.1700   36.1082    4.8063  O     
23   C       -30.7821   31.7872   -1.4416  C     
24   H       -29.8802   34.0581    5.2158  H     
25   H       -27.4830   32.3348    5.8569  H     
26   H       -28.2129   33.8799    8.5310  H     
27   H       -29.8421   34.1162    8.2816  H     
28   H       -27.5837   35.0589    6.9120  H     
29   H       -30.1316   32.2168    7.3277  H     
30   H       -28.5041   31.8328    7.9189  H     
31   H       -27.9493   33.8432    3.4093  H     
32   H       -28.4307   35.4468    3.9151  H     
33   H       -29.5389   29.3255    5.2584  H     
34   H       -28.6579   29.9972    6.5099  H     
35   H       -28.9869   29.2891    3.1466  H     
36   H       -30.1512   33.3259    3.3325  H     
37   H       -31.0837   33.1823    1.2168  H     
38   H       -30.0434   29.1106    1.0494  H     
39   H       -33.0181   30.4402   -1.2524  H     
40   H       -32.9076   29.9541    0.3737  H     
41   H       -31.3545   32.7104   -1.5700  H     
42   H       -30.8540   31.1995   -2.3636  H     
43   H       -29.7328   32.0487   -1.2962  H     
@<TRIPOS>BOND
     1    1    2 1
     2    1    4 1
     3    1    8 1
     4    2    5 1
     5    2    6 1
     6    3    4 1
     7    3    6 1
     8    4    7 1
     9    5    9 1
    10    5   13 2
    11    7   14 2
    12    7   21 1
    13    8   10 1
    14    9   16 2
    15    9   17 1
    16   10   15 2
    17   10   22 1
    18   11   12 1
    19   11   20 2
    20   11   23 1
    21   12   18 1
    22   12   19 2
    23   16   19 1
    24   17   18 2
    25    1   24 1
    26    2   25 1
    27    3   26 1
    28    3   27 1
    29    4   28 1
    30    6   29 1
    31    6   30 1
    32    8   31 1
    33    8   32 1
    34   13   33 1
    35   13   34 1
    36   16   35 1
    37   17   36 1
    38   18   37 1
    39   19   38 1
    40   20   39 1
    41   20   40 1
    42   23   41 1
    43   23   42 1
    44   23   43 1
@<TRIPOS>PROPERTY_DATA
  Total_Score	| 13.2580
  Crash		| -1.5327
  Polar		| 9.6909
  FragIndex	| 1
  FragRMSD	| 0.775

