@<TRIPOS>MOLECULE
BindingDB_50053069
 36 37 0 0 0
SMALL
NO_CHARGES


@<TRIPOS>ATOM
1    C       -28.6792   33.8375    5.4667  C     
2    C       -28.4690   32.3898    5.9413  C     
3    N       -28.8630   33.9559    7.8552  N     
4    C       -28.5969   34.7942    6.6863  C     
5    C       -29.1189   31.2862    5.1411  C     
6    C       -28.9356   32.5495    7.4304  C     
7    C       -29.4848   35.9807    6.6264  C     
8    C       -27.7245   34.2763    4.2942  C     
9    C       -26.3678   34.7340    4.6474  C     
10   C       -29.5707   31.3236    3.7484  C     
11   C       -29.2401   30.1236    5.8357  C     
12   O       -29.5892   36.7616    7.7212  O     
13   O       -26.1211   36.0488    4.8119  O     
14   O       -30.0846   36.4147    5.4898  O     
15   O       -25.3357   33.8730    4.7668  O     
16   C       -30.0071   32.4654    2.9768  C     
17   C       -29.5918   30.0984    3.0020  C     
18   C       -30.1111   29.9797    1.7006  C     
19   C       -30.5113   32.3553    1.6648  C     
20   C       -30.5884   31.1107    1.0322  C     
21   H       -29.7498   33.7953    5.1970  H     
22   H       -27.3954   32.1759    5.9671  H     
23   H       -28.0948   34.0935    8.5188  H     
24   H       -29.7417   34.2253    8.3014  H     
25   H       -27.5807   35.1675    6.8304  H     
26   H       -29.9754   32.2398    7.5429  H     
27   H       -28.3218   31.9452    8.1037  H     
28   H       -27.5659   33.4548    3.5959  H     
29   H       -28.2281   35.0748    3.7461  H     
30   H       -29.7904   29.3671    5.5105  H     
31   H       -28.8308   29.9898    6.7303  H     
32   H       -29.9559   33.4471    3.2855  H     
33   H       -29.1948   29.2387    3.3892  H     
34   H       -30.1249   29.0723    1.2313  H     
35   H       -30.8185   33.1929    1.1622  H     
36   H       -30.9596   31.0335    0.0809  H     
@<TRIPOS>BOND
     1    1    2 1
     2    1    4 1
     3    1    8 1
     4    2    5 1
     5    2    6 1
     6    3    4 1
     7    3    6 1
     8    4    7 1
     9    5   10 1
    10    5   11 2
    11    7   12 2
    12    7   14 1
    13    8    9 1
    14    9   13 2
    15    9   15 1
    16   10   16 2
    17   10   17 1
    18   16   19 1
    19   17   18 2
    20   18   20 1
    21   19   20 2
    22    1   21 1
    23    2   22 1
    24    3   23 1
    25    3   24 1
    26    4   25 1
    27    6   26 1
    28    6   27 1
    29    8   28 1
    30    8   29 1
    31   11   30 1
    32   11   31 1
    33   16   32 1
    34   17   33 1
    35   18   34 1
    36   19   35 1
    37   20   36 1
@<TRIPOS>PROPERTY_DATA
  Total_Score	| 12.4319
  Crash		| -1.1230
  Polar		| 10.2050
  FragIndex	| 1
  FragRMSD	| 1.020

