@<TRIPOS>MOLECULE
BindingDB_50053083
 39 40 0 0 0
SMALL
NO_CHARGES


@<TRIPOS>ATOM
1    C       -28.2647   33.9433    5.4799  C     
2    C       -29.2031   32.7434    5.8410  C     
3    N       -28.8062   34.0432    7.8411  N     
4    C       -29.1618   31.5215    4.9709  C     
5    C       -28.4969   34.9141    6.6898  C     
6    C       -28.9595   32.6584    7.3763  C     
7    C       -29.6263   31.5772    3.5975  C     
8    C       -29.5937   35.9035    6.5345  C     
9    C       -26.7557   33.5665    5.2794  C     
10   C       -25.8577   34.6980    4.9630  C     
11   C       -30.0223   32.8046    2.9741  C     
12   C       -28.7505   30.3601    5.5358  C     
13   O       -29.8703   36.7403    7.5575  O     
14   O       -24.5140   34.4998    4.9387  O     
15   O       -30.2529   36.1123    5.3654  O     
16   O       -26.3119   35.9644    4.7921  O     
17   C       -30.4315   32.9026    1.6231  C     
18   C       -29.7598   30.4251    2.7616  C     
19   C       -30.2058   30.4946    1.4294  C     
20   C       -30.5304   31.7272    0.8534  C     
21   C       -30.7291   34.2356    1.0438  C     
22   H       -28.5795   34.4098    4.5447  H     
23   H       -30.2449   33.0938    5.7886  H     
24   H       -28.0303   34.0912    8.5128  H     
25   H       -29.6699   34.3339    8.3100  H     
26   H       -27.5878   35.4759    6.9299  H     
27   H       -29.7879   32.1732    7.9004  H     
28   H       -28.0290   32.1420    7.6285  H     
29   H       -26.3694   33.0645    6.1790  H     
30   H       -26.6631   32.8567    4.4466  H     
31   H       -30.0394   33.6813    3.4948  H     
32   H       -28.6509   29.5157    5.0354  H     
33   H       -28.4982   30.2860    6.4862  H     
34   H       -29.5577   29.4831    3.0902  H     
35   H       -30.2948   29.6365    0.8844  H     
36   H       -30.8289   31.7645   -0.1248  H     
37   H       -31.5249   34.7144    1.6189  H     
38   H       -31.0475   34.1697    0.0026  H     
39   H       -29.8295   34.8570    1.0933  H     
@<TRIPOS>BOND
     1    1    2 1
     2    1    5 1
     3    1    9 1
     4    2    4 1
     5    2    6 1
     6    3    5 1
     7    3    6 1
     8    4    7 1
     9    4   12 2
    10    5    8 1
    11    7   11 2
    12    7   18 1
    13    8   13 2
    14    8   15 1
    15    9   10 1
    16   10   14 2
    17   10   16 1
    18   11   17 1
    19   17   20 2
    20   17   21 1
    21   18   19 2
    22   19   20 1
    23    1   22 1
    24    2   23 1
    25    3   24 1
    26    3   25 1
    27    5   26 1
    28    6   27 1
    29    6   28 1
    30    9   29 1
    31    9   30 1
    32   11   31 1
    33   12   32 1
    34   12   33 1
    35   18   34 1
    36   19   35 1
    37   20   36 1
    38   21   37 1
    39   21   38 1
    40   21   39 1
@<TRIPOS>PROPERTY_DATA
  Total_Score	| 13.8433
  Crash		| -0.8779
  Polar		| 10.6448
  FragIndex	| 1
  FragRMSD	| 0.319

