@<TRIPOS>MOLECULE
BindingDB_50053088
 39 40 0 0 0
SMALL
NO_CHARGES


@<TRIPOS>ATOM
1    C       -28.2218   33.9796    5.4993  C     
2    C       -29.1696   32.7790    5.8270  C     
3    N       -28.7755   34.0382    7.8612  N     
4    C       -28.4655   34.9239    6.7185  C     
5    C       -29.1496   31.5872    4.9126  C     
6    C       -28.9335   32.6656    7.3676  C     
7    C       -29.5522   35.9270    6.5674  C     
8    C       -26.7195   33.6025    5.3123  C     
9    C       -29.6035   31.6826    3.5483  C     
10   C       -25.8259   34.7376    4.9838  C     
11   C       -28.7817   30.3932    5.4545  C     
12   O       -29.8717   36.7256    7.6111  O     
13   O       -26.2757   35.9961    4.7885  O     
14   C       -29.7441   30.5564    2.6766  C     
15   C       -30.0134   32.9214    2.9630  C     
16   O       -30.2862   36.0714    5.4373  O     
17   O       -24.4969   34.5230    4.8292  O     
18   C       -30.2795   30.6476    1.3755  C     
19   C       -30.4922   33.0356    1.6451  C     
20   C       -30.6381   31.8962    0.8306  C     
21   C       -31.1724   31.9941   -0.5499  C     
22   H       -28.5313   34.4590    4.5674  H     
23   H       -30.1988   33.1376    5.7791  H     
24   H       -27.9957   34.0713    8.5362  H     
25   H       -29.6363   34.3231    8.3308  H     
26   H       -27.5577   35.4866    6.9661  H     
27   H       -29.7634   32.1826    7.8769  H     
28   H       -28.0083   32.1447    7.6226  H     
29   H       -26.3275   33.1197    6.2178  H     
30   H       -26.6258   32.8843    4.4844  H     
31   H       -28.8107   29.5386    4.9584  H     
32   H       -28.5069   30.2959    6.4003  H     
33   H       -29.4672   29.6128    2.9656  H     
34   H       -29.9863   33.7939    3.4848  H     
35   H       -30.3782   29.7969    0.8160  H     
36   H       -30.7540   33.9665    1.2917  H     
37   H       -30.4285   31.6021   -1.2476  H     
38   H       -31.3998   33.0286   -0.8330  H     
39   H       -32.0913   31.4040   -0.6212  H     
@<TRIPOS>BOND
     1    1    2 1
     2    1    4 1
     3    1    8 1
     4    2    5 1
     5    2    6 1
     6    3    4 1
     7    3    6 1
     8    4    7 1
     9    5    9 1
    10    5   11 2
    11    7   12 2
    12    7   16 1
    13    8   10 1
    14    9   14 2
    15    9   15 1
    16   10   13 2
    17   10   17 1
    18   14   18 1
    19   15   19 2
    20   18   20 2
    21   19   20 1
    22   20   21 1
    23    1   22 1
    24    2   23 1
    25    3   24 1
    26    3   25 1
    27    4   26 1
    28    6   27 1
    29    6   28 1
    30    8   29 1
    31    8   30 1
    32   11   31 1
    33   11   32 1
    34   14   33 1
    35   15   34 1
    36   18   35 1
    37   19   36 1
    38   21   37 1
    39   21   38 1
    40   21   39 1
@<TRIPOS>PROPERTY_DATA
  Total_Score	| 13.7613
  Crash		| -0.8059
  Polar		| 10.5594
  FragIndex	| 1
  FragRMSD	| 0.898

