@<TRIPOS>MOLECULE
BindingDB_13815
 63 67 0 0 0
SMALL
NO_CHARGES


@<TRIPOS>ATOM
1    C        -4.1603   73.0643   67.2709  C     
2    C        -3.1618   74.0684   67.2177  C     
3    C        -2.1605   74.1519   68.2004  C     
4    C        -3.1477   72.2824   69.3724  C     
5    C        -4.1486   72.1880   68.3849  C     
6    C        -5.1865   72.9624   66.1773  C     
7    F        -4.5499   72.6733   64.9912  F     
8    F        -6.0736   71.9267   66.3752  F     
9    P        -6.1071   74.3432   65.9864  P     
10   O        -7.0301   74.2095   64.7561  O     
11   O        -6.9933   74.5741   67.2243  O     
12   O        -5.3062   75.5278   65.7770  O     
13   C        -2.1019   73.2368   69.2779  C     
14   C        -0.9786   73.2947   70.2728  C     
15   C         1.1170   72.0950   71.3607  C     
16   C         1.7001   70.9170   71.9140  C     
17   C         2.8907   70.9578   72.6637  C     
18   C         3.5328   72.1845   72.8912  C     
19   C         2.9790   73.3685   72.3761  C     
20   C         1.7881   73.3238   71.6233  C     
21   N        -0.9983   70.9999   71.1101  N     
22   N        -1.3631   69.8881   70.5837  N     
23   N        -2.0993   69.1784   71.3392  N     
24   C        -1.5395   71.0345   72.3614  C     
25   C        -2.2543   69.8508   72.4807  C     
26   C        -1.5036   71.9462   73.4336  C     
27   C        -2.2012   71.6357   74.6276  C     
28   C        -2.9337   70.4315   74.7290  C     
29   C        -2.9748   69.5276   73.6476  C     
30   C        -0.1143   71.9747   70.4683  C     
31   C         0.4154   71.4649   69.0512  C     
32   C         1.6153   72.0925   68.4944  C     
33   C         1.6340   73.2944   67.8716  C     
34   C         2.7231   73.9940   67.3496  C     
35   C         3.5452   76.0378   66.2223  C     
36   C         2.4888   75.2663   66.7443  C     
37   C         4.0664   73.5431   67.4015  C     
38   C         5.1295   74.3229   66.9043  C     
39   C         4.8688   75.5721   66.3124  C     
40   H        -3.1484   74.7367   66.4453  H     
41   H        -1.4694   74.8988   68.1117  H     
42   H        -3.2014   71.6469   70.1643  H     
43   H        -4.8660   71.4627   68.4868  H     
44   H        -0.3127   74.1046   69.9709  H     
45   H        -1.4087   73.6046   71.2266  H     
46   H         1.2647   70.0055   71.7526  H     
47   H         3.2990   70.0897   73.0248  H     
48   H         4.4084   72.2115   73.4246  H     
49   H         3.4526   74.2632   72.5286  H     
50   H         1.4428   74.2096   71.2491  H     
51   H        -0.9734   72.8120   73.3705  H     
52   H        -2.1765   72.2842   75.4147  H     
53   H        -3.4378   70.2132   75.5917  H     
54   H        -3.5070   68.6524   73.7087  H     
55   H         0.6549   70.3987   69.1377  H     
56   H        -0.3803   71.5209   68.3004  H     
57   H         2.4727   71.5911   68.5731  H     
58   H         0.7466   73.7156   67.7547  H     
59   H         3.3509   76.9404   65.7805  H     
60   H         1.5404   75.6394   66.6649  H     
61   H         4.2987   72.6430   67.8188  H     
62   H         6.0898   73.9912   66.9757  H     
63   H         5.6395   76.1344   65.9430  H     
@<TRIPOS>BOND
     1    1    2 1
     2    1    5 2
     3    1    6 1
     4    2    3 2
     5    3   13 1
     6    4    5 1
     7    4   13 2
     8    6    7 1
     9    6    8 1
    10    6    9 1
    11    9   10 1
    12    9   11 1
    13    9   12 2
    14   13   14 1
    15   14   30 1
    16   15   16 2
    17   15   20 1
    18   15   30 1
    19   16   17 1
    20   17   18 2
    21   18   19 1
    22   19   20 2
    23   21   22 1
    24   21   24 1
    25   21   30 1
    26   22   23 2
    27   23   25 1
    28   24   25 2
    29   24   26 1
    30   25   29 1
    31   26   27 2
    32   27   28 1
    33   28   29 2
    34   30   31 1
    35   31   32 1
    36   32   33 2
    37   33   34 1
    38   34   36 2
    39   34   37 1
    40   35   36 1
    41   35   39 2
    42   37   38 2
    43   38   39 1
    44    2   40 1
    45    3   41 1
    46    4   42 1
    47    5   43 1
    48   14   44 1
    49   14   45 1
    50   16   46 1
    51   17   47 1
    52   18   48 1
    53   19   49 1
    54   20   50 1
    55   26   51 1
    56   27   52 1
    57   28   53 1
    58   29   54 1
    59   31   55 1
    60   31   56 1
    61   32   57 1
    62   33   58 1
    63   35   59 1
    64   36   60 1
    65   37   61 1
    66   38   62 1
    67   39   63 1
@<TRIPOS>PROPERTY_DATA
  Total_Score	| 10.0133
  Crash		| -1.0989
  Polar		| 2.7067
  FragIndex	| 1
  FragRMSD	| 0.614

