@<TRIPOS>MOLECULE
BindingDB_13599
 72 77 0 0 0
SMALL
NO_CHARGES


@<TRIPOS>ATOM
1    C         3.7093   72.1958   73.1426  C     
2    C         3.1404   70.9555   72.8025  C     
3    C         1.9917   70.9139   71.9964  C     
4    C         1.3663   72.0911   71.4902  C     
5    C         1.9558   73.3283   71.8857  C     
6    C         3.1085   73.3794   72.6943  C     
7    C        -0.6330   73.3233   70.3208  C     
8    C        -1.8720   73.4544   69.4793  C     
9    C        -2.7423   72.3895   69.1321  C     
10   C        -3.8980   72.5990   68.3696  C     
11   C        -4.2406   73.9017   67.9396  C     
12   C        -3.4048   74.9823   68.2855  C     
13   C        -2.2399   74.7599   69.0434  C     
14   C        -5.4062   74.1051   67.1722  C     
15   C        -5.4252   73.7023   65.8229  C     
16   C        -6.6021   73.8203   65.0698  C     
17   C        -7.7744   74.3240   65.6616  C     
18   C        -7.7798   74.7348   67.0173  C     
19   C        -6.5756   74.6357   67.7601  C     
20   C         0.1559   71.9619   70.5617  C     
21   C         0.6688   71.4391   69.1534  C     
22   C         1.4120   72.4042   68.2880  C     
23   C         2.7890   72.6396   68.4706  C     
24   C         3.4722   73.5721   67.6671  C     
25   C         2.8085   74.2957   66.6508  C     
26   C         1.4267   74.0341   66.4560  C     
27   C         0.7455   73.0972   67.2504  C     
28   C         3.5182   75.3041   65.7943  C     
29   F         2.7639   76.4469   65.6847  F     
30   F         4.7235   75.7189   66.3287  F     
31   P         3.8510   74.7161   64.2736  P     
32   O         2.6728   74.3553   63.5250  O     
33   O         4.5658   75.7790   63.4200  O     
34   O         4.7789   73.4912   64.2861  O     
35   N        -0.7383   70.9861   71.1958  N     
36   N        -1.0698   69.8501   70.6694  N     
37   N        -1.8943   69.1872   71.3558  N     
38   C        -2.1331   69.8872   72.4656  C     
39   C        -1.3641   71.0446   72.3907  C     
40   C        -2.1822   71.6926   74.5870  C     
41   C        -1.3679   71.9541   73.4677  C     
42   C        -2.9617   69.6099   73.5585  C     
43   C        -2.9835   70.5277   74.6298  C     
44   P        -9.1178   75.2618   67.7252  P     
45   O        -8.9197   76.5822   68.2615  O     
46   O       -10.3369   75.3222   66.7829  O     
47   O        -9.4872   74.3312   68.8978  O     
48   H         4.5512   72.2308   73.7229  H     
49   H         3.5666   70.0882   73.1405  H     
50   H         1.6004   69.9963   71.7852  H     
51   H         1.5706   74.2203   71.5843  H     
52   H         3.5185   74.2836   72.9450  H     
53   H         0.0927   74.0061   69.8781  H     
54   H        -0.8873   73.7631   71.2790  H     
55   H        -2.5684   71.4468   69.4192  H     
56   H        -4.4946   71.8000   68.1326  H     
57   H        -3.6321   75.9357   67.9819  H     
58   H        -1.6501   75.5660   69.2779  H     
59   H        -4.5844   73.3111   65.3803  H     
60   H        -6.6071   73.5216   64.0969  H     
61   H        -8.6188   74.3713   65.0871  H     
62   H        -6.5505   74.9227   68.7452  H     
63   H         1.3001   70.5577   69.2866  H     
64   H        -0.1934   71.0728   68.5900  H     
65   H         3.3130   72.1315   69.1883  H     
66   H         4.4721   73.7116   67.8339  H     
67   H         0.9017   74.5336   65.7314  H     
68   H        -0.2510   72.9381   67.0786  H     
69   H        -2.1923   72.3462   75.3711  H     
70   H        -0.7847   72.7914   73.4537  H     
71   H        -3.5266   68.7561   73.5850  H     
72   H        -3.5812   70.3496   75.4406  H     
@<TRIPOS>BOND
     1    1    2 2
     2    1    6 1
     3    2    3 1
     4    3    4 2
     5    4    5 1
     6    4   20 1
     7    5    6 2
     8    7    8 1
     9    7   20 1
    10    8    9 1
    11    8   13 2
    12    9   10 2
    13   10   11 1
    14   11   12 2
    15   11   14 1
    16   12   13 1
    17   14   15 2
    18   14   19 1
    19   15   16 1
    20   16   17 2
    21   17   18 1
    22   18   19 2
    23   18   44 1
    24   20   21 1
    25   20   35 1
    26   21   22 1
    27   22   23 1
    28   22   27 2
    29   23   24 2
    30   24   25 1
    31   25   26 2
    32   25   28 1
    33   26   27 1
    34   28   29 1
    35   28   30 1
    36   28   31 1
    37   31   32 2
    38   31   33 1
    39   31   34 1
    40   35   36 1
    41   35   39 1
    42   36   37 2
    43   37   38 1
    44   38   39 2
    45   38   42 1
    46   39   41 1
    47   40   41 2
    48   40   43 1
    49   42   43 2
    50   44   45 2
    51   44   46 1
    52   44   47 1
    53    1   48 1
    54    2   49 1
    55    3   50 1
    56    5   51 1
    57    6   52 1
    58    7   53 1
    59    7   54 1
    60    9   55 1
    61   10   56 1
    62   12   57 1
    63   13   58 1
    64   15   59 1
    65   16   60 1
    66   17   61 1
    67   19   62 1
    68   21   63 1
    69   21   64 1
    70   23   65 1
    71   24   66 1
    72   26   67 1
    73   27   68 1
    74   40   69 1
    75   41   70 1
    76   42   71 1
    77   43   72 1
@<TRIPOS>PROPERTY_DATA
  Total_Score	| 14.9359
  Crash		| -1.2010
  Polar		| 8.6491
  FragIndex	| 1
  FragRMSD	| 0.292

