@<TRIPOS>MOLECULE
BindingDB_50142328
 71 75 0 0 0
SMALL
NO_CHARGES


@<TRIPOS>ATOM
1    N        -0.8549   70.9636   71.0319  N     
2    N        -1.1519   69.8360   70.4892  N     
3    C         0.0112   71.9787   70.4301  C     
4    P        -6.1849   74.5742   66.2480  P     
5    P         3.8863   74.7492   64.2276  P     
6    C         3.4940   75.3615   65.7320  C     
7    C        -5.3465   73.1282   66.2449  C     
8    N        -1.9265   69.1200   71.1786  N     
9    C        -1.4865   70.9861   72.2304  C     
10   C        -2.1821   69.7861   72.3067  C     
11   C         4.1189   72.9461   74.4639  C     
12   C         1.1401   72.2584   71.4229  C     
13   C         2.7999   74.3634   66.6053  C     
14   C        -4.2092   73.1078   67.2230  C     
15   C         0.6742   71.4654   69.0831  C     
16   C        -0.9073   73.2374   70.0989  C     
17   O        -5.3209   75.7223   66.1201  O     
18   O         4.5557   75.7314   63.4183  O     
19   C         3.1828   72.6955   73.4261  C     
20   F        -4.8628   72.8939   64.9793  F     
21   F         2.6781   76.4570   65.5659  F     
22   F        -6.2714   72.1342   66.4707  F     
23   F         4.6597   75.8493   66.2833  F     
24   O         4.8022   74.1194   74.5005  O     
25   O        -7.1814   74.6164   65.0751  O     
26   O         4.8031   73.5143   64.2823  O     
27   O         2.6665   74.3362   63.3845  O     
28   O        -6.9963   74.7288   67.5465  O     
29   C         1.7368   73.5334   71.6279  C     
30   C         1.6417   71.2014   72.2373  C     
31   C         2.6288   71.4138   73.2186  C     
32   C         2.7388   73.7460   72.5852  C     
33   C         1.4369   74.0490   66.3820  C     
34   C        -4.1056   72.1473   68.2658  C     
35   C         3.4541   73.6953   67.6725  C     
36   C        -3.1920   74.0903   67.1475  C     
37   C        -2.0085   73.1437   69.0891  C     
38   C         1.4137   72.4523   68.2442  C     
39   O         4.2667   72.0830   75.5112  O     
40   C        -3.0387   72.1765   69.1864  C     
41   C         2.7771   72.7578   68.4750  C     
42   C         0.7726   73.0892   67.1565  C     
43   C        -2.1319   74.1159   68.0640  C     
44   C        -1.5568   71.9047   73.2959  C     
45   C        -2.9845   69.4527   73.4095  C     
46   C         5.1004   72.2922   76.6528  C     
47   C        -2.3499   71.5894   74.4223  C     
48   C        -3.0620   70.3732   74.4775  C     
49   H         1.3564   70.6389   69.2967  H     
50   H        -0.1226   71.0207   68.4731  H     
51   H        -1.3632   73.6102   71.0158  H     
52   H        -0.2363   74.0342   69.7695  H     
53   H         1.4510   74.3570   71.0985  H     
54   H         1.2607   70.2569   72.1351  H     
55   H         2.9234   70.6211   73.7971  H     
56   H         3.1121   74.6917   72.7002  H     
57   H         0.9121   74.5142   65.6349  H     
58   H        -4.8299   71.4324   68.3864  H     
59   H         4.4399   73.8795   67.8743  H     
60   H        -3.2178   74.8184   66.4249  H     
61   H        -3.0409   71.4963   69.9492  H     
62   H         3.2929   72.2853   69.2195  H     
63   H        -0.1908   72.8546   66.9171  H     
64   H        -1.4410   74.8699   67.9719  H     
65   H        -1.0417   72.7849   73.2683  H     
66   H        -3.4915   68.5648   73.4420  H     
67   H         6.1484   72.3725   76.3447  H     
68   H         4.9880   71.4502   77.3382  H     
69   H         4.8045   73.2132   77.1684  H     
70   H        -2.4122   72.2521   75.1976  H     
71   H        -3.6377   70.1539   75.2956  H     
@<TRIPOS>BOND
     1    1    2 1
     2    1    3 1
     3    1    9 1
     4    2    8 2
     5    3   12 1
     6    3   15 1
     7    3   16 1
     8    4    7 1
     9    4   17 2
    10    4   25 1
    11    4   28 1
    12    5    6 1
    13    5   18 2
    14    5   26 1
    15    5   27 1
    16    6   13 1
    17    6   21 1
    18    6   23 1
    19    7   14 1
    20    7   20 1
    21    7   22 1
    22    8   10 1
    23    9   10 2
    24    9   44 1
    25   10   45 1
    26   11   19 1
    27   11   24 2
    28   11   39 1
    29   12   29 2
    30   12   30 1
    31   13   33 2
    32   13   35 1
    33   14   34 1
    34   14   36 2
    35   15   38 1
    36   16   37 1
    37   19   31 1
    38   19   32 2
    39   29   32 1
    40   30   31 2
    41   33   42 1
    42   34   40 2
    43   35   41 2
    44   36   43 1
    45   37   40 1
    46   37   43 2
    47   38   41 1
    48   38   42 2
    49   39   46 1
    50   44   47 2
    51   45   48 2
    52   47   48 1
    53   15   49 1
    54   15   50 1
    55   16   51 1
    56   16   52 1
    57   29   53 1
    58   30   54 1
    59   31   55 1
    60   32   56 1
    61   33   57 1
    62   34   58 1
    63   35   59 1
    64   36   60 1
    65   40   61 1
    66   41   62 1
    67   42   63 1
    68   43   64 1
    69   44   65 1
    70   45   66 1
    71   46   67 1
    72   46   68 1
    73   46   69 1
    74   47   70 1
    75   48   71 1
@<TRIPOS>PROPERTY_DATA
  Total_Score	| 16.3782
  Crash		| -1.2720
  Polar		| 9.1442
  FragIndex	| 1
  FragRMSD	| 0.613

