@<TRIPOS>MOLECULE
BindingDB_50142323
 65 69 0 0 0
SMALL
NO_CHARGES


@<TRIPOS>ATOM
1    N        -0.7471   70.9526   71.0393  N     
2    N        -1.0598   69.8483   70.4644  N     
3    C         3.3636   75.4604   65.6173  C     
4    C         0.1134   71.9801   70.4346  C     
5    P         3.8456   74.7766   64.1757  P     
6    C         2.7553   74.4322   66.5277  C     
7    P        -6.1576   74.3865   66.1968  P     
8    C        -5.1712   73.0387   66.2188  C     
9    N        -1.8460   69.1217   71.1338  N     
10   C        -1.3701   70.9454   72.2464  C     
11   C         3.4913   73.6707   67.4794  C     
12   C        -2.0926   69.7589   72.2763  C     
13   C         1.3841   74.1122   66.3667  C     
14   C        -4.0984   73.1014   67.2684  C     
15   C         0.7425   71.4946   69.0626  C     
16   C        -0.8034   73.2529   70.1656  C     
17   O         4.5719   75.7068   63.3566  O     
18   O        -7.1062   74.3262   65.1154  O     
19   C         1.2702   72.1925   71.4114  C     
20   C         2.8343   72.7560   68.3318  C     
21   F         2.4542   76.4648   65.3354  F     
22   F         4.4141   76.1469   66.1655  F     
23   C         1.4502   72.5011   68.2101  C     
24   F        -4.5877   72.8930   64.9818  F     
25   F        -5.9973   71.9460   66.3568  F     
26   O         4.7396   73.5350   64.3461  O     
27   O         2.6398   74.3245   63.3381  O     
28   O        -6.9304   74.5379   67.5217  O     
29   O        -5.3338   75.6723   65.9725  O     
30   C        -3.1167   74.1183   67.2352  C     
31   C        -4.0063   72.1533   68.3181  C     
32   Br        5.3533   73.7055   67.5935  Br    
33   C         0.7617   73.1384   67.1566  C     
34   C        -1.9492   73.1821   69.1923  C     
35   C        -2.0845   74.1679   68.1787  C     
36   C        -2.9736   72.2145   69.2695  C     
37   C        -1.4248   71.8203   73.3506  C     
38   C        -2.9120   69.4059   73.3610  C     
39   C         1.8198   73.4598   71.7486  C     
40   C         1.8821   71.0641   72.0317  C     
41   C        -2.2504   71.4949   74.4484  C     
42   C        -2.9946   70.2944   74.4525  C     
43   C         2.9214   71.1898   72.9681  C     
44   C         2.8795   73.5922   72.6673  C     
45   C         3.4227   72.4579   73.2913  C     
46   H         0.8277   74.5613   65.6332  H     
47   H         1.4364   70.6682   69.2397  H     
48   H        -0.0616   71.0553   68.4618  H     
49   H        -1.2249   73.6054   71.1011  H     
50   H        -0.1463   74.0498   69.8250  H     
51   H         3.3833   72.2356   69.0172  H     
52   H        -3.1395   74.8317   66.5095  H     
53   H        -4.7012   71.4063   68.4054  H     
54   H        -0.1925   72.8828   66.9351  H     
55   H        -1.3972   74.9245   68.1036  H     
56   H        -2.9877   71.5328   70.0178  H     
57   H        -0.8833   72.6861   73.3661  H     
58   H        -3.4389   68.5305   73.3545  H     
59   H         1.4715   74.3182   71.3271  H     
60   H         1.5482   70.1213   71.8257  H     
61   H        -2.3126   72.1313   75.2473  H     
62   H        -3.5956   70.0666   75.2485  H     
63   H         3.3103   70.3571   73.4200  H     
64   H         3.2559   74.5182   72.8904  H     
65   H         4.1772   72.5528   73.9764  H     
@<TRIPOS>BOND
     1    1    2 1
     2    1    4 1
     3    1   10 1
     4    2    9 2
     5    3    5 1
     6    3    6 1
     7    3   21 1
     8    3   22 1
     9    4   15 1
    10    4   16 1
    11    4   19 1
    12    5   17 2
    13    5   26 1
    14    5   27 1
    15    6   11 1
    16    6   13 2
    17    7    8 1
    18    7   18 2
    19    7   28 1
    20    7   29 1
    21    8   14 1
    22    8   24 1
    23    8   25 1
    24    9   12 1
    25   10   12 2
    26   10   37 1
    27   11   20 2
    28   11   32 1
    29   12   38 1
    30   13   33 1
    31   14   30 2
    32   14   31 1
    33   15   23 1
    34   16   34 1
    35   19   39 1
    36   19   40 2
    37   20   23 1
    38   23   33 2
    39   30   35 1
    40   31   36 2
    41   34   35 2
    42   34   36 1
    43   37   41 2
    44   38   42 2
    45   39   44 2
    46   40   43 1
    47   41   42 1
    48   43   45 2
    49   44   45 1
    50   13   46 1
    51   15   47 1
    52   15   48 1
    53   16   49 1
    54   16   50 1
    55   20   51 1
    56   30   52 1
    57   31   53 1
    58   33   54 1
    59   35   55 1
    60   36   56 1
    61   37   57 1
    62   38   58 1
    63   39   59 1
    64   40   60 1
    65   41   61 1
    66   42   62 1
    67   43   63 1
    68   44   64 1
    69   45   65 1
@<TRIPOS>PROPERTY_DATA
  Total_Score	| 14.9970
  Crash		| -2.7031
  Polar		| 8.8661
  FragIndex	| 1
  FragRMSD	| 0.623

