@<TRIPOS>MOLECULE
BindingDB_13595
 65 69 0 0 0
SMALL
NO_CHARGES


@<TRIPOS>ATOM
1    C        -1.4979   71.9428   73.2941  C     
2    C        -2.3589   71.6943   74.3884  C     
3    C        -3.0764   70.4800   74.4613  C     
4    C        -2.9606   69.5145   73.4382  C     
5    C        -1.3902   70.9839   72.2671  C     
6    C        -2.0885   69.7858   72.3687  C     
7    N        -1.7873   69.0652   71.2845  N     
8    N        -0.9813   69.7614   70.5936  N     
9    N        -0.7225   70.9136   71.0912  N     
10   C         1.2661   72.2049   71.4109  C     
11   C         2.0067   71.1329   71.9819  C     
12   C         3.1087   71.3615   72.8234  C     
13   C         3.5030   72.6706   73.1235  C     
14   C         2.8088   73.7522   72.5637  C     
15   C         1.7081   73.5230   71.7247  C     
16   C         0.7670   71.3643   69.1196  C     
17   C         1.5083   72.3347   68.2568  C     
18   C         2.9008   72.5545   68.3865  C     
19   C         3.5550   73.5084   67.5825  C     
20   C         2.8434   74.2614   66.6150  C     
21   C         1.4581   74.0089   66.4743  C     
22   C         0.8060   73.0542   67.2673  C     
23   C         3.5047   75.2937   65.7554  C     
24   F         2.6949   76.4011   65.6325  F     
25   F         4.6731   75.7735   66.3029  F     
26   P         3.8671   74.7280   64.2310  P     
27   O         4.5420   75.7214   63.4379  O     
28   O         4.8011   73.5081   64.2685  O     
29   O         2.6258   74.3183   63.4213  O     
30   C         0.1136   71.9201   70.4511  C     
31   C        -0.8155   73.1616   70.0882  C     
32   C        -1.9955   73.0977   69.1494  C     
33   C        -2.1478   74.1306   68.1964  C     
34   C        -3.2103   74.1121   67.2677  C     
35   C        -4.0679   72.0931   68.2512  C     
36   C        -3.0071   72.0984   69.1749  C     
37   C        -4.2045   73.0988   67.2572  C     
38   P        -6.2446   74.3431   65.8277  P     
39   O        -6.8955   74.2268   64.5377  O     
40   O        -7.3438   74.6433   66.8879  O     
41   O        -5.4399   75.6608   65.7369  O     
42   C        -5.2983   73.0082   66.2352  C     
43   F        -4.7169   72.5533   65.0641  F     
44   F        -6.2191   72.0503   66.6366  F     
45   H        -0.9455   72.8044   73.2599  H     
46   H        -2.4564   72.3884   75.1235  H     
47   H        -3.7212   70.3191   75.2330  H     
48   H        -3.4664   68.6268   73.4915  H     
49   H         1.7465   70.1631   71.7780  H     
50   H         3.6200   70.5705   73.2097  H     
51   H         4.3001   72.8321   73.7310  H     
52   H         3.0983   74.7048   72.7629  H     
53   H         1.2520   74.3424   71.3297  H     
54   H        -0.0155   70.8856   68.5163  H     
55   H         1.4581   70.5506   69.3497  H     
56   H         3.4528   72.0198   69.0634  H     
57   H         4.5631   73.6408   67.7069  H     
58   H         0.9035   74.5236   65.7866  H     
59   H        -0.1955   72.9002   67.1293  H     
60   H        -1.1958   73.6042   71.0058  H     
61   H        -0.1647   73.9188   69.6603  H     
62   H        -1.4664   74.8923   68.1497  H     
63   H        -3.1996   74.8494   66.5503  H     
64   H        -4.7544   71.3335   68.3051  H     
65   H        -2.9745   71.3279   69.8427  H     
@<TRIPOS>BOND
     1    1    2 2
     2    1    5 1
     3    2    3 1
     4    3    4 2
     5    4    6 1
     6    5    6 2
     7    5    9 1
     8    6    7 1
     9    7    8 2
    10    8    9 1
    11    9   30 1
    12   10   11 1
    13   10   15 2
    14   30   10 1
    15   11   12 2
    16   12   13 1
    17   13   14 2
    18   14   15 1
    19   16   17 1
    20   16   30 1
    21   17   18 2
    22   17   22 1
    23   18   19 1
    24   19   20 2
    25   20   21 1
    26   20   23 1
    27   21   22 2
    28   23   24 1
    29   23   25 1
    30   23   26 1
    31   26   27 2
    32   26   28 1
    33   26   29 1
    34   30   31 1
    35   31   32 1
    36   32   33 1
    37   32   36 2
    38   33   34 2
    39   34   37 1
    40   35   36 1
    41   35   37 2
    42   37   42 1
    43   38   39 2
    44   38   40 1
    45   38   41 1
    46   38   42 1
    47   42   43 1
    48   42   44 1
    49    1   45 1
    50    2   46 1
    51    3   47 1
    52    4   48 1
    53   11   49 1
    54   12   50 1
    55   13   51 1
    56   14   52 1
    57   15   53 1
    58   16   54 1
    59   16   55 1
    60   18   56 1
    61   19   57 1
    62   21   58 1
    63   22   59 1
    64   31   60 1
    65   31   61 1
    66   33   62 1
    67   34   63 1
    68   35   64 1
    69   36   65 1
@<TRIPOS>PROPERTY_DATA
  Total_Score	| 16.3917
  Crash		| -1.3087
  Polar		| 9.0731
  FragIndex	| 1
  FragRMSD	| 0.755

