@<TRIPOS>MOLECULE
BindingDB_50142326
 71 77 0 0 0
SMALL
NO_CHARGES


@<TRIPOS>ATOM
1    N        -0.5946   70.5796   71.2036  N     
2    N        -1.1449   69.5202   70.7516  N     
3    P         3.8519   74.6768   64.2629  P     
4    C         3.5302   75.1949   65.8133  C     
5    N        -2.0844   69.0911   71.4842  N     
6    C        -5.8217   74.0317   66.9539  C     
7    C         0.4696   71.2637   70.4817  C     
8    C        -1.2260   70.9046   72.3558  C     
9    N        -6.6150   74.0482   65.8742  N     
10   N        -6.0422   73.3923   64.9683  N     
11   N        -4.7563   73.3094   66.5753  N     
12   N        -4.9692   72.9721   65.3833  N     
13   C        -6.0795   74.6679   68.2072  C     
14   C        -2.1903   69.9168   72.5289  C     
15   C        -0.0566   71.9248   69.1342  C     
16   C        -5.1678   74.6704   69.3155  C     
17   C         2.6822   74.2395   66.5958  C     
18   O         2.6701   74.3465   63.5100  O     
19   C        -3.9129   74.0094   69.3030  C     
20   C        -1.3700   72.6747   69.2904  C     
21   C         0.9503   72.6236   68.2370  C     
22   C         1.3802   72.0050   71.4286  C     
23   F         2.8921   76.4163   65.7410  F     
24   F         4.7495   75.4461   66.4155  F     
25   O         4.5619   75.7918   63.4746  O     
26   O         4.8056   73.4731   64.2137  O     
27   C         3.1911   73.4994   67.6953  C     
28   C         1.3141   74.0630   66.2670  C     
29   C        -2.7136   74.7544   69.2519  C     
30   C        -3.8389   72.5994   69.3856  C     
31   C         2.3503   72.6811   68.4793  C     
32   C         0.4772   73.2520   67.0575  C     
33   C        -2.5886   71.9495   69.3581  C     
34   C        -1.4645   74.0923   69.2408  C     
35   C        -1.1150   71.9493   73.2969  C     
36   C        -7.3120   75.3670   68.3546  C     
37   C        -5.5136   75.3637   70.5022  C     
38   C        -3.0564   69.9061   73.6401  C     
39   C         1.4868   73.4195   71.4544  C     
40   C         2.2499   71.2596   72.2781  C     
41   C        -1.9717   71.9619   74.4189  C     
42   C        -6.7392   76.0411   70.6202  C     
43   C        -7.6398   76.0369   69.5437  C     
44   C        -2.9356   70.9432   74.5925  C     
45   C         3.1783   71.9063   73.1163  C     
46   C         2.4306   74.0656   72.2771  C     
47   C         3.2718   73.3110   73.1152  C     
48   H         1.1174   70.4622   70.1025  H     
49   H        -4.3873   72.4458   64.8692  H     
50   H        -0.3074   71.0546   68.5116  H     
51   H         4.1832   73.5546   67.9401  H     
52   H         0.8954   74.5587   65.4762  H     
53   H        -2.7391   75.7779   69.1841  H     
54   H        -4.6964   72.0350   69.4447  H     
55   H         2.7769   72.1590   69.2412  H     
56   H        -0.5116   73.1685   66.7948  H     
57   H        -2.5838   70.9263   69.3490  H     
58   H        -0.6293   74.6684   69.1355  H     
59   H        -0.4270   72.6938   73.1820  H     
60   H        -7.9875   75.4001   67.5915  H     
61   H        -4.8747   75.3824   71.3063  H     
62   H        -3.7557   69.1678   73.7566  H     
63   H         0.8922   73.9944   70.8671  H     
64   H         2.2144   70.2325   72.2815  H     
65   H        -1.8909   72.7185   75.1089  H     
66   H        -6.9725   76.5402   71.4792  H     
67   H        -8.5273   76.5367   69.6208  H     
68   H        -3.5593   70.9586   75.4100  H     
69   H         3.7966   71.3555   73.7180  H     
70   H         2.5068   75.0866   72.2620  H     
71   H         3.9670   73.7824   73.7057  H     
@<TRIPOS>BOND
     1    1    2 1
     2    1    7 1
     3    1    8 1
     4    2    5 2
     5    3    4 1
     6    3   18 2
     7    3   25 1
     8    3   26 1
     9    4   17 1
    10    4   23 1
    11    4   24 1
    12    5   14 1
    13    6    9 1
    14    6   11 2
    15    6   13 1
    16    7   15 1
    17    7   22 1
    18    8   14 2
    19    8   35 1
    20    9   10 2
    21   10   12 1
    22   11   12 1
    23   13   16 2
    24   13   36 1
    25   14   38 1
    26   15   20 1
    27   15   21 1
    28   16   19 1
    29   16   37 1
    30   17   27 2
    31   17   28 1
    32   19   29 1
    33   19   30 2
    34   20   33 2
    35   20   34 1
    36   21   31 2
    37   21   32 1
    38   22   39 2
    39   22   40 1
    40   27   31 1
    41   28   32 2
    42   29   34 2
    43   30   33 1
    44   35   41 2
    45   36   43 2
    46   37   42 2
    47   38   44 2
    48   39   46 1
    49   40   45 2
    50   41   44 1
    51   42   43 1
    52   45   47 1
    53   46   47 2
    54    7   48 1
    55   12   49 1
    56   15   50 1
    57   27   51 1
    58   28   52 1
    59   29   53 1
    60   30   54 1
    61   31   55 1
    62   32   56 1
    63   33   57 1
    64   34   58 1
    65   35   59 1
    66   36   60 1
    67   37   61 1
    68   38   62 1
    69   39   63 1
    70   40   64 1
    71   41   65 1
    72   42   66 1
    73   43   67 1
    74   44   68 1
    75   45   69 1
    76   46   70 1
    77   47   71 1
@<TRIPOS>PROPERTY_DATA
  Total_Score	| 12.2911
  Crash		| -1.5630
  Polar		| 7.5326
  FragIndex	| 1
  FragRMSD	| 0.442

