@<TRIPOS>MOLECULE
BindingDB_13593
 46 49 0 0 0
SMALL
NO_CHARGES


@<TRIPOS>ATOM
1    C        -1.2490   72.0162   73.2718  C     
2    C        -1.9547   71.7783   74.4703  C     
3    C        -2.8057   70.6548   74.5877  C     
4    C        -2.9573   69.7580   73.5092  C     
5    C        -1.3887   71.1032   72.2062  C     
6    C        -2.2264   70.0063   72.3345  C     
7    N        -2.1210   69.3165   71.1974  N     
8    N        -1.2959   69.9195   70.4555  N     
9    N        -0.8106   70.9781   70.9937  N     
10   C         0.2088   71.8283   70.4142  C     
11   C         1.3594   72.0374   71.3562  C     
12   C         1.9272   70.9428   72.0582  C     
13   C         2.9917   71.1308   72.9576  C     
14   C         3.5329   72.4134   73.1509  C     
15   C         2.9963   73.5093   72.4507  C     
16   C         1.9176   73.3228   71.5637  C     
17   C         0.7516   71.3357   69.0247  C     
18   C         1.4464   72.3889   68.2370  C     
19   C         2.8077   72.6950   68.4622  C     
20   C         3.4581   73.6823   67.6997  C     
21   C         2.7765   74.3838   66.6733  C     
22   C         1.4107   74.0659   66.4547  C     
23   C         0.7553   73.0915   67.2238  C     
24   C         3.4733   75.3742   65.7946  C     
25   F         2.6771   76.4883   65.6311  F     
26   F         4.6461   75.8561   66.3316  F     
27   P         3.8453   74.7142   64.3046  P     
28   O         4.7190   73.5717   64.3677  O     
29   O         2.6154   74.2732   63.4973  O     
30   O         4.5566   75.7523   63.4234  O     
31   H        -0.6206   72.8174   73.1975  H     
32   H        -1.8376   72.4167   75.2601  H     
33   H        -3.3138   70.4918   75.4604  H     
34   H        -3.5614   68.9363   73.5865  H     
35   H        -0.2902   72.7921   70.2468  H     
36   H         1.5402   70.0030   71.9455  H     
37   H         3.3567   70.3370   73.4880  H     
38   H         4.3143   72.5454   73.7950  H     
39   H         3.3905   74.4406   72.5855  H     
40   H         1.5403   74.1349   71.0728  H     
41   H         1.4398   70.4994   69.1729  H     
42   H        -0.0698   70.9381   68.4264  H     
43   H         3.3391   72.1920   69.1770  H     
44   H         4.4476   73.8652   67.8816  H     
45   H         0.8793   74.5453   65.7213  H     
46   H        -0.2308   72.8878   67.0323  H     
@<TRIPOS>BOND
     1    1    2 2
     2    1    5 1
     3    2    3 1
     4    3    4 2
     5    4    6 1
     6    5    6 2
     7    5    9 1
     8    6    7 1
     9    7    8 2
    10    8    9 1
    11    9   10 1
    12   10   11 1
    13   10   17 1
    14   11   12 1
    15   11   16 2
    16   12   13 2
    17   13   14 1
    18   14   15 2
    19   15   16 1
    20   17   18 1
    21   18   19 2
    22   18   23 1
    23   19   20 1
    24   20   21 2
    25   21   22 1
    26   21   24 1
    27   22   23 2
    28   24   25 1
    29   24   26 1
    30   24   27 1
    31   27   28 2
    32   27   29 1
    33   27   30 1
    34    1   31 1
    35    2   32 1
    36    3   33 1
    37    4   34 1
    38   10   35 1
    39   12   36 1
    40   13   37 1
    41   14   38 1
    42   15   39 1
    43   16   40 1
    44   17   41 1
    45   17   42 1
    46   19   43 1
    47   20   44 1
    48   22   45 1
    49   23   46 1
@<TRIPOS>PROPERTY_DATA
  Total_Score	| 12.1159
  Crash		| -0.7985
  Polar		| 7.4752
  FragIndex	| 1
  FragRMSD	| 0.662

