@<TRIPOS>MOLECULE
BindingDB_13598
 69 74 0 0 0
SMALL
NO_CHARGES


@<TRIPOS>ATOM
1    C         3.5237   72.3162   73.1608  C     
2    C         3.0134   71.0624   72.7976  C     
3    C         1.8970   70.9759   71.9485  C     
4    C         1.2539   72.1417   71.4192  C     
5    C         1.7888   73.3919   71.8198  C     
6    C         2.9085   73.4866   72.6658  C     
7    C        -0.8076   73.2540   70.2125  C     
8    C        -2.0454   73.1533   69.3724  C     
9    C        -2.2084   73.9700   68.2289  C     
10   C        -3.3682   73.9085   67.4414  C     
11   C        -4.4902   73.0910   67.7814  C     
12   C        -4.3363   72.3493   68.9931  C     
13   C        -3.1518   72.3572   69.7480  C     
14   C        -5.7037   73.0303   66.9677  C     
15   C        -6.7850   72.1448   67.2710  C     
16   C        -7.9661   72.1133   66.5149  C     
17   C        -8.1055   72.9438   65.3898  C     
18   C        -7.0532   73.7969   65.0297  C     
19   C        -5.8852   73.8458   65.8023  C     
20   C         0.0758   71.9556   70.4667  C     
21   C         0.6733   71.4556   69.0835  C     
22   C         1.4316   72.4345   68.2427  C     
23   C         2.7971   72.7203   68.4691  C     
24   C         3.4855   73.6522   67.6671  C     
25   C         2.8394   74.3247   66.5986  C     
26   C         1.4763   74.0212   66.3705  C     
27   C         0.8018   73.0703   67.1490  C     
28   C         3.5412   75.3280   65.7318  C     
29   F         2.7523   76.4492   65.6115  F     
30   F         4.7370   75.7650   66.2612  F     
31   P         3.8830   74.7444   64.2061  P     
32   O         4.5498   75.7342   63.4001  O     
33   O         4.8022   73.5120   64.2436  O     
34   O         2.6414   74.3340   63.3919  O     
35   N        -0.8094   70.9566   71.0700  N     
36   N        -1.1872   69.8780   70.4841  N     
37   N        -1.9867   69.1767   71.1574  N     
38   C        -2.1752   69.8001   72.3217  C     
39   C        -1.4004   70.9523   72.2911  C     
40   C        -2.2054   71.5059   74.5223  C     
41   C        -1.4039   71.8225   73.4032  C     
42   C        -2.9767   69.4596   73.4219  C     
43   C        -2.9925   70.3327   74.5301  C     
44   H         4.3416   72.3874   73.7750  H     
45   H         3.4565   70.2089   73.1620  H     
46   H         1.5464   70.0450   71.7211  H     
47   H         1.3946   74.2706   71.4845  H     
48   H         3.2799   74.4045   72.9250  H     
49   H        -0.1619   74.0076   69.7589  H     
50   H        -1.1026   73.6779   71.1738  H     
51   H        -1.4731   74.6337   67.9558  H     
52   H        -3.3526   74.4946   66.6088  H     
53   H        -5.0993   71.7961   69.3856  H     
54   H        -3.1360   71.8101   70.6080  H     
55   H        -6.7470   71.4852   68.0495  H     
56   H        -8.7198   71.4702   66.7670  H     
57   H        -8.9629   72.9176   64.8328  H     
58   H        -7.1382   74.3888   64.1964  H     
59   H        -5.1866   74.5158   65.4908  H     
60   H         1.3276   70.5993   69.2503  H     
61   H        -0.1528   71.0637   68.4869  H     
62   H         3.3120   72.2427   69.2136  H     
63   H         4.4703   73.8313   67.8717  H     
64   H         0.9591   74.4848   65.6180  H     
65   H        -0.1619   72.8491   66.9070  H     
66   H        -2.2199   72.1310   75.3325  H     
67   H        -0.8319   72.6675   73.4111  H     
68   H        -3.5393   68.6062   73.4157  H     
69   H        -3.5787   70.1128   75.3401  H     
@<TRIPOS>BOND
     1    1    2 2
     2    1    6 1
     3    2    3 1
     4    3    4 2
     5    4    5 1
     6    4   20 1
     7    5    6 2
     8    7    8 1
     9    7   20 1
    10    8    9 1
    11    8   13 2
    12    9   10 2
    13   10   11 1
    14   11   12 2
    15   11   14 1
    16   12   13 1
    17   14   15 2
    18   14   19 1
    19   15   16 1
    20   16   17 2
    21   17   18 1
    22   18   19 2
    23   20   21 1
    24   20   35 1
    25   21   22 1
    26   22   23 1
    27   22   27 2
    28   23   24 2
    29   24   25 1
    30   25   26 2
    31   25   28 1
    32   26   27 1
    33   28   29 1
    34   28   30 1
    35   28   31 1
    36   31   32 2
    37   31   33 1
    38   31   34 1
    39   35   36 1
    40   35   39 1
    41   36   37 2
    42   37   38 1
    43   38   39 2
    44   38   42 1
    45   39   41 1
    46   40   41 2
    47   40   43 1
    48   42   43 2
    49    1   44 1
    50    2   45 1
    51    3   46 1
    52    5   47 1
    53    6   48 1
    54    7   49 1
    55    7   50 1
    56    9   51 1
    57   10   52 1
    58   12   53 1
    59   13   54 1
    60   15   55 1
    61   16   56 1
    62   17   57 1
    63   18   58 1
    64   19   59 1
    65   21   60 1
    66   21   61 1
    67   23   62 1
    68   24   63 1
    69   26   64 1
    70   27   65 1
    71   40   66 1
    72   41   67 1
    73   42   68 1
    74   43   69 1
@<TRIPOS>PROPERTY_DATA
  Total_Score	| 15.0788
  Crash		| -1.2369
  Polar		| 7.6041
  FragIndex	| 1
  FragRMSD	| 0.238

