@<TRIPOS>MOLECULE
BindingDB_13596
 65 69 0 0 0
SMALL
NO_CHARGES


@<TRIPOS>ATOM
1    C        -1.5394   71.8564   73.3523  C     
2    C        -2.3324   71.5188   74.4719  C     
3    C        -3.0201   70.2850   74.5159  C     
4    C        -2.9149   69.3757   73.4436  C     
5    C        -1.4458   70.9502   72.2737  C     
6    C        -2.1193   69.7364   72.3423  C     
7    N        -1.8418   69.0774   71.2183  N     
8    N        -1.0822   69.8157   70.5321  N     
9    N        -0.8093   70.9462   71.0775  N     
10   C         1.2115   72.2133   71.4180  C     
11   C         1.8948   71.0904   71.9695  C     
12   C         3.0232   71.2445   72.7960  C     
13   C         3.5103   72.5260   73.1020  C     
14   C         2.8503   73.6587   72.5790  C     
15   C         1.7176   73.5013   71.7572  C     
16   C         0.6485   71.4838   69.0880  C     
17   C         1.4136   72.4664   68.2607  C     
18   C         0.7842   73.1080   67.1713  C     
19   C         1.4668   74.0475   66.3868  C     
20   C         2.8324   74.3414   66.6138  C     
21   C         3.4774   73.6679   67.6825  C     
22   C         2.7816   72.7462   68.4898  C     
23   C         3.5357   75.3359   65.7397  C     
24   F         2.7469   76.4568   65.5992  F     
25   F         4.7240   75.7849   66.2774  F     
26   P         3.8883   74.7383   64.2212  P     
27   O         4.5547   75.7198   63.4041  O     
28   O         4.8018   73.5022   64.2674  O     
29   O         2.6409   74.3328   63.4164  O     
30   C         0.0380   71.9814   70.4682  C     
31   C        -0.8866   73.2486   70.2031  C     
32   C        -2.0075   73.1873   69.2007  C     
33   C        -3.0432   72.2290   69.2862  C     
34   C        -4.0785   72.1787   68.3308  C     
35   C        -3.1445   74.1094   67.2199  C     
36   C        -2.1111   74.1575   68.1725  C     
37   C        -4.1353   73.1002   67.2541  C     
38   P        -6.1193   74.3831   66.0285  P     
39   O        -5.3285   75.5686   65.8049  O     
40   O        -7.0955   74.2314   64.8437  O     
41   O        -6.9813   74.5896   67.2884  O     
42   C        -5.1782   73.0138   66.1753  C     
43   F        -4.5690   72.7714   64.9657  F     
44   F        -6.0457   71.9611   66.3592  F     
45   F         4.5647   72.6568   73.8685  F     
46   F         3.2885   74.8567   72.8475  F     
47   H        -1.0395   72.7453   73.3345  H     
48   H        -2.4104   72.1705   75.2573  H     
49   H        -3.5923   70.0470   75.3294  H     
50   H        -3.4029   68.4761   73.4662  H     
51   H         1.5713   70.1371   71.7724  H     
52   H         3.4875   70.4127   73.1789  H     
53   H         1.2760   74.3507   71.3917  H     
54   H        -0.1725   71.0889   68.4819  H     
55   H         1.3081   70.6283   69.2523  H     
56   H        -0.1859   72.8956   66.9348  H     
57   H         0.9524   74.5127   65.6347  H     
58   H         4.4666   73.8380   67.8818  H     
59   H         3.2922   72.2643   69.2326  H     
60   H        -1.3332   73.5656   71.1481  H     
61   H        -0.2279   74.0659   69.9017  H     
62   H        -3.0652   71.5579   70.0529  H     
63   H        -4.7927   71.4565   68.4327  H     
64   H        -3.1532   74.8135   66.4811  H     
65   H        -1.4198   74.9091   68.0986  H     
@<TRIPOS>BOND
     1    1    2 2
     2    1    5 1
     3    2    3 1
     4    3    4 2
     5    4    6 1
     6    5    6 2
     7    5    9 1
     8    6    7 1
     9    7    8 2
    10    8    9 1
    11    9   30 1
    12   10   11 1
    13   10   15 2
    14   30   10 1
    15   11   12 2
    16   12   13 1
    17   13   14 2
    18   13   45 1
    19   14   15 1
    20   14   46 1
    21   16   17 1
    22   16   30 1
    23   17   18 2
    24   17   22 1
    25   18   19 1
    26   19   20 2
    27   20   21 1
    28   20   23 1
    29   21   22 2
    30   23   24 1
    31   23   25 1
    32   23   26 1
    33   26   27 2
    34   26   28 1
    35   26   29 1
    36   30   31 1
    37   31   32 1
    38   32   33 1
    39   32   36 2
    40   33   34 2
    41   34   37 1
    42   35   36 1
    43   35   37 2
    44   37   42 1
    45   38   39 2
    46   38   40 1
    47   38   41 1
    48   38   42 1
    49   42   43 1
    50   42   44 1
    51    1   47 1
    52    2   48 1
    53    3   49 1
    54    4   50 1
    55   11   51 1
    56   12   52 1
    57   15   53 1
    58   16   54 1
    59   16   55 1
    60   18   56 1
    61   19   57 1
    62   21   58 1
    63   22   59 1
    64   31   60 1
    65   31   61 1
    66   33   62 1
    67   34   63 1
    68   35   64 1
    69   36   65 1
@<TRIPOS>PROPERTY_DATA
  Total_Score	| 16.6855
  Crash		| -1.1656
  Polar		| 9.1032
  FragIndex	| 1
  FragRMSD	| 0.534

