@<TRIPOS>MOLECULE
BindingDB_50359815
 28 30 0 0 0
SMALL
NO_CHARGES


@<TRIPOS>ATOM
1    C        20.6277   -1.2378    8.4990  C     
2    C        20.0180   -0.1264    8.0427  C     
3    C        18.7104   -1.8871    9.7269  C     
4    C        19.9834   -2.1098    9.3337  C     
5    C        18.0177   -0.7523    9.2815  C     
6    C        18.6960    0.1523    8.4170  C     
7    C        18.0114    1.2983    7.9739  C     
8    N        16.7320    1.5086    8.3696  N     
9    C        16.0327    0.6775    9.1901  C     
10   C        16.6835   -0.4892    9.6564  C     
11   N        14.7681    1.0935    9.4530  N     
12   C        13.8058    0.5777   10.2730  C     
13   C        12.5326    1.1935   10.2999  C     
14   N        11.5722    0.6976   11.1239  N     
15   C        11.7800   -0.3676   11.9401  C     
16   C        13.0473   -0.9831   11.9279  C     
17   N        13.9981   -0.4827   11.1033  N     
18   C        10.8222   -0.7976   12.6985  C     
19   N         9.9741   -1.1846   13.3687  N     
20   H        21.5646   -1.4307    8.2204  H     
21   H        20.5076    0.4886    7.4338  H     
22   H        18.2726   -2.5383   10.3376  H     
23   H        20.4626   -2.9203    9.6578  H     
24   H        18.4577    1.9826    7.3613  H     
25   H        16.2034   -1.1535   10.2611  H     
26   H        14.5011    1.9093    8.9927  H     
27   H        12.3210    2.0010    9.7121  H     
28   H        13.2649   -1.7866   12.5201  H     
@<TRIPOS>BOND
     1    1    2 2
     2    1    4 1
     3    2    6 1
     4    3    4 2
     5    3    5 1
     6    5    6 1
     7    5   10 2
     8    6    7 2
     9    7    8 1
    10    8    9 2
    11    9   10 1
    12    9   11 1
    13   11   12 1
    14   12   13 2
    15   12   17 1
    16   13   14 1
    17   14   15 2
    18   15   16 1
    19   15   18 1
    20   16   17 2
    21   18   19 3
    22    1   20 1
    23    2   21 1
    24    3   22 1
    25    4   23 1
    26    7   24 1
    27   10   25 1
    28   11   26 1
    29   13   27 1
    30   16   28 1
@<TRIPOS>PROPERTY_DATA
  Total_Score	| 5.8222
  Crash		| -0.2820
  Polar		| 2.2307
  FragIndex	| 1
  FragRMSD	| 0.134

