@<TRIPOS>MOLECULE
BindingDB_50359818
 25 27 0 0 0
SMALL
NO_CHARGES


@<TRIPOS>ATOM
1    C        17.9493    1.1503    8.0479  C     
2    N        16.6764    1.4021    8.4582  N     
3    C        15.9540    0.5915    9.2882  C     
4    C        16.5585   -0.6044    9.7558  C     
5    N        14.7085    1.0491    9.5658  N     
6    C        13.7265    0.5534   10.3709  C     
7    C        12.4888    1.2394   10.4148  C     
8    N        11.4925    0.7756   11.2144  N     
9    C        11.6360   -0.3294   11.9913  C     
10   C        12.8694   -1.0195   11.9649  C     
11   N        13.8577   -0.5498   11.1586  N     
12   C        10.6441   -0.7105   12.7386  C     
13   N         9.7658   -1.0462   13.4021  N     
14   C        18.5676   -0.0223    8.5025  C     
15   C        17.8719   -0.8864    9.3426  C     
16   N        18.6905   -1.9070    9.6113  N     
17   C        19.8491   -1.6856    8.9650  C     
18   N        19.7890   -0.5294    8.2768  N     
19   H        18.4346    1.7963    7.4238  H     
20   H        16.0783   -1.2618   10.3670  H     
21   H        14.4799    1.8804    9.1209  H     
22   H        12.3250    2.0791    9.8536  H     
23   H        13.0363   -1.8547   12.5340  H     
24   H        18.4875   -2.6652   10.1813  H     
25   H        20.6621   -2.3008    8.9944  H     
@<TRIPOS>BOND
     1    1    2 1
     2    1   14 2
     3    2    3 2
     4    3    4 1
     5    3    5 1
     6    4   15 2
     7    5    6 1
     8    6    7 2
     9    6   11 1
    10    7    8 1
    11    8    9 2
    12    9   10 1
    13    9   12 1
    14   10   11 2
    15   12   13 3
    16   14   15 1
    17   14   18 1
    18   15   16 1
    19   16   17 1
    20   17   18 2
    21    1   19 1
    22    4   20 1
    23    5   21 1
    24    7   22 1
    25   10   23 1
    26   16   24 1
    27   17   25 1
@<TRIPOS>PROPERTY_DATA
  Total_Score	| 5.2317
  Crash		| -0.3836
  Polar		| 2.2021
  FragIndex	| 1
  FragRMSD	| 0.681

