@<TRIPOS>MOLECULE
BindingDB_50359825
 39 41 0 0 0
SMALL
NO_CHARGES


@<TRIPOS>ATOM
1    N        18.4347   -0.1981    8.6529  N     
2    C        17.9631    0.9869    8.1965  C     
3    N        16.7082    1.3752    8.5246  N     
4    C        15.9011    0.6148    9.3079  C     
5    C        16.4060   -0.6265    9.7695  C     
6    C        17.7112   -1.0558    9.4255  C     
7    N        14.6802    1.1484    9.5740  N     
8    C        13.6723    0.6956   10.3756  C     
9    C        12.4115    1.3279   10.3380  C     
10   N        11.4111    0.8806   11.1406  N     
11   C        11.5671   -0.1660   12.0001  C     
12   C        12.8253   -0.7955   12.0633  C     
13   N        13.8100   -0.3371   11.2557  N     
14   N        18.2615   -2.2517    9.8272  N     
15   C        17.4834   -3.4160   10.2423  C     
16   C        17.8769   -3.8719   11.6731  C     
17   C        19.4008   -4.1577   11.7311  C     
18   C        20.1886   -2.9202   11.2391  C     
19   C        19.7081   -2.4631    9.8299  C     
20   C        10.5773   -0.5740   12.7340  C     
21   N         9.7014   -0.9484   13.3728  N     
22   N        19.8337   -4.5489   13.0798  N     
23   H        18.5479    1.5766    7.6039  H     
24   H        15.8524   -1.1952   10.3880  H     
25   H        14.4855    1.9818    9.1108  H     
26   H        12.2331    2.1186    9.7184  H     
27   H        13.0074   -1.5912   12.6829  H     
28   H        16.4016   -3.2888   10.2050  H     
29   H        17.6881   -4.2418    9.5501  H     
30   H        17.6196   -3.0856   12.3881  H     
31   H        17.3158   -4.7695   11.9350  H     
32   H        19.6215   -5.0041   11.0743  H     
33   H        20.0583   -2.0968   11.9492  H     
34   H        21.2574   -3.1529   11.1937  H     
35   H        19.9594   -3.2293    9.0910  H     
36   H        20.2948   -1.5768    9.5714  H     
37   H        19.7438   -3.7665   13.7243  H     
38   H        20.8150   -4.8334   13.0428  H     
39   H        19.2719   -5.3369   13.4071  H     
@<TRIPOS>BOND
     1    1    2 2
     2    1    6 1
     3    2    3 1
     4    3    4 2
     5    4    5 1
     6    4    7 1
     7    5    6 2
     8    6   14 1
     9    7    8 1
    10    8    9 2
    11    8   13 1
    12    9   10 1
    13   10   11 2
    14   11   12 1
    15   11   20 1
    16   12   13 2
    17   14   15 1
    18   14   19 1
    19   15   16 1
    20   16   17 1
    21   17   18 1
    22   17   22 1
    23   18   19 1
    24   20   21 3
    25    2   23 1
    26    5   24 1
    27    7   25 1
    28    9   26 1
    29   12   27 1
    30   15   28 1
    31   15   29 1
    32   16   30 1
    33   16   31 1
    34   17   32 1
    35   18   33 1
    36   18   34 1
    37   19   35 1
    38   19   36 1
    39   22   37 1
    40   22   38 1
    41   22   39 1
@<TRIPOS>PROPERTY_DATA
  Total_Score	| 7.2892
  Crash		| -0.8384
  Polar		| 3.6221
  FragIndex	| 1
  FragRMSD	| 1.027

