@<TRIPOS>MOLECULE
BindingDB_50359828
 42 44 0 0 0
SMALL
NO_CHARGES


@<TRIPOS>ATOM
1    N        18.5653    0.0015    8.4837  N     
2    C        18.0193    1.1605    8.0432  C     
3    N        16.7361    1.4515    8.3645  N     
4    C        15.9534    0.6088    9.0889  C     
5    C        16.4955   -0.6421    9.4689  C     
6    C        17.8561   -0.9090    9.1994  C     
7    N        14.7140    1.0844    9.3694  N     
8    C        13.7453    0.6356   10.2256  C     
9    C        12.4658    1.2235   10.1129  C     
10   N        11.4663    0.8752   10.9619  N     
11   C        11.6303   -0.0325   11.9557  C     
12   C        12.8863   -0.6290   12.1485  C     
13   C        13.9447   -0.2742   11.2933  C     
14   N        18.5501   -1.9981    9.6073  N     
15   C        18.0800   -3.1803   10.2661  C     
16   C        17.6479   -3.0389   11.7623  C     
17   C        17.7723   -4.4045   12.5117  C     
18   C        17.3979   -4.2849   14.0130  C     
19   N        18.1478   -3.1884   14.6683  N     
20   C        17.9813   -1.8761   14.0170  C     
21   C        18.4280   -1.9322   12.5355  C     
22   H        18.5763    1.8208    7.4999  H     
23   H        15.9149   -1.3508    9.9086  H     
24   H        14.4832    1.9040    8.8991  H     
25   H        12.2724    1.9250    9.3947  H     
26   H        10.8482   -0.2606   12.5716  H     
27   H        13.0353   -1.2868   12.9171  H     
28   H        14.8683   -0.6532   11.4958  H     
29   H        19.5037   -1.9733    9.4263  H     
30   H        17.2562   -3.6055    9.6862  H     
31   H        18.9082   -3.8902   10.2138  H     
32   H        16.5909   -2.7619   11.7788  H     
33   H        17.1224   -5.1470   12.0399  H     
34   H        18.8016   -4.7689   12.4434  H     
35   H        16.3236   -4.1082   14.1172  H     
36   H        17.6365   -5.2211   14.5226  H     
37   H        17.8507   -3.0890   15.6415  H     
38   H        19.1453   -3.4005   14.6560  H     
39   H        16.9349   -1.5662   14.0868  H     
40   H        18.5910   -1.1485   14.5551  H     
41   H        19.5023   -2.1328   12.4881  H     
42   H        18.2439   -0.9533   12.0854  H     
@<TRIPOS>BOND
     1    1    2 2
     2    1    6 1
     3    2    3 1
     4    3    4 2
     5    4    5 1
     6    4    7 1
     7    5    6 2
     8    6   14 1
     9    7    8 1
    10    8    9 2
    11    8   13 1
    12    9   10 1
    13   10   11 2
    14   11   12 1
    15   12   13 2
    16   14   15 1
    17   15   16 1
    18   16   17 1
    19   16   21 1
    20   17   18 1
    21   18   19 1
    22   19   20 1
    23   20   21 1
    24    2   22 1
    25    5   23 1
    26    7   24 1
    27    9   25 1
    28   11   26 1
    29   12   27 1
    30   13   28 1
    31   14   29 1
    32   15   30 1
    33   15   31 1
    34   16   32 1
    35   17   33 1
    36   17   34 1
    37   18   35 1
    38   18   36 1
    39   19   37 1
    40   19   38 1
    41   20   39 1
    42   20   40 1
    43   21   41 1
    44   21   42 1
@<TRIPOS>PROPERTY_DATA
  Total_Score	| 7.8328
  Crash		| -0.9446
  Polar		| 4.0019
  FragIndex	| 1
  FragRMSD	| 0.156

