@<TRIPOS>MOLECULE
BindingDB_50359827
 41 43 0 0 0
SMALL
NO_CHARGES


@<TRIPOS>ATOM
1    N        18.2833   -0.3833    8.8738  N     
2    C        17.9579    0.8550    8.4271  C     
3    N        16.7018    1.3245    8.6253  N     
4    C        15.7427    0.5829    9.2381  C     
5    C        16.0600   -0.7436    9.6053  C     
6    C        17.3818   -1.2269    9.4539  C     
7    N        14.5590    1.2036    9.4731  N     
8    C        13.5417    0.8292   10.3030  C     
9    C        12.2993    1.4895   10.2127  C     
10   N        11.3051    1.1519   11.0738  N     
11   C        11.4548    0.2020   12.0339  C     
12   C        12.6912   -0.4570   12.1452  C     
13   N        13.6801   -0.1017   11.2930  N     
14   N        17.7680   -2.4620    9.9098  N     
15   C        16.8611   -3.5885   10.0533  C     
16   C        16.6845   -3.9522   11.5505  C     
17   C        18.0632   -4.2288   12.2212  C     
18   C        19.0614   -3.0625   11.9176  C     
19   C        19.1140   -2.6982   10.4038  C     
20   C        17.8840   -4.5003   13.7470  C     
21   N        19.1382   -4.9336   14.3760  N     
22   H        18.6561    1.4386    7.9672  H     
23   H        15.3544   -1.3261   10.0432  H     
24   H        14.4460    2.0663    9.0449  H     
25   H        12.1353    2.2155    9.5089  H     
26   H        10.6849   -0.0162   12.6660  H     
27   H        12.8534   -1.1725   12.8579  H     
28   H        15.8793   -3.4194    9.6111  H     
29   H        17.2733   -4.4525    9.5222  H     
30   H        16.1872   -3.1222   12.0612  H     
31   H        16.0466   -4.8358   11.6327  H     
32   H        18.4710   -5.1417   11.7693  H     
33   H        18.7637   -2.1724   12.4803  H     
34   H        20.0678   -3.3444   12.2435  H     
35   H        19.5683   -3.5164    9.8396  H     
36   H        19.7794   -1.8383   10.2912  H     
37   H        17.5254   -3.6036   14.2611  H     
38   H        17.1515   -5.2963   13.8965  H     
39   H        19.5275   -5.7373   13.8639  H     
40   H        18.9602   -5.2083   15.3496  H     
41   H        19.8075   -4.1621   14.3525  H     
@<TRIPOS>BOND
     1    1    2 2
     2    1    6 1
     3    2    3 1
     4    3    4 2
     5    4    5 1
     6    4    7 1
     7    5    6 2
     8    6   14 1
     9    7    8 1
    10    8    9 2
    11    8   13 1
    12    9   10 1
    13   10   11 2
    14   11   12 1
    15   12   13 2
    16   14   15 1
    17   14   19 1
    18   15   16 1
    19   16   17 1
    20   17   18 1
    21   17   20 1
    22   18   19 1
    23   20   21 1
    24    2   22 1
    25    5   23 1
    26    7   24 1
    27    9   25 1
    28   11   26 1
    29   12   27 1
    30   15   28 1
    31   15   29 1
    32   16   30 1
    33   16   31 1
    34   17   32 1
    35   18   33 1
    36   18   34 1
    37   19   35 1
    38   19   36 1
    39   20   37 1
    40   20   38 1
    41   21   39 1
    42   21   40 1
    43   21   41 1
@<TRIPOS>PROPERTY_DATA
  Total_Score	| 7.4568
  Crash		| -0.9504
  Polar		| 3.7306
  FragIndex	| 1
  FragRMSD	| 0.802

