@<TRIPOS>MOLECULE
BindingDB_50359816
 45 48 0 0 0
SMALL
NO_CHARGES


@<TRIPOS>ATOM
1    C        18.0085    1.1613    8.1832  C     
2    N        16.7140    1.4252    8.5166  N     
3    C        15.8976    0.5599    9.1921  C     
4    C        16.4181   -0.7140    9.5434  C     
5    N        14.6570    1.0371    9.4779  N     
6    C        13.6768    0.5293   10.2825  C     
7    C        12.4528    1.2225   10.3911  C     
8    N        11.4867    0.7448   11.2153  N     
9    C        11.6463   -0.3808   11.9631  C     
10   C        12.8699   -1.0801   11.8818  C     
11   N        13.8143   -0.5944   11.0388  N     
12   C        10.6602   -0.7926   12.6996  C     
13   N         9.7876   -1.1650   13.3502  N     
14   C        18.5548   -0.0714    8.5693  C     
15   C        17.7607   -0.9931    9.2421  C     
16   N        18.5145   -2.0662    9.4885  N     
17   C        19.7362   -1.8270    8.9833  C     
18   N        19.7769   -0.6055    8.4131  N     
19   O        13.0892   -2.2840   12.5042  O     
20   C        13.6414   -2.2629   13.8396  C     
21   C        15.1134   -2.7674   13.8373  C     
22   C        16.0867   -1.6908   13.2734  C     
23   C        17.5540   -2.1889   13.2728  C     
24   N        17.9570   -2.6553   14.6144  N     
25   C        17.0836   -3.6985   15.1932  C     
26   C        15.6075   -3.2203   15.2457  C     
27   H        18.5666    1.8553    7.6848  H     
28   H        15.8603   -1.4399    9.9861  H     
29   H        14.4543    1.9054    9.0903  H     
30   H        12.2794    2.0773    9.8552  H     
31   H        18.2310   -2.8753    9.9432  H     
32   H        20.5190   -2.4791    9.0204  H     
33   H        13.5733   -1.2872   14.3305  H     
34   H        13.0385   -2.9610   14.4265  H     
35   H        15.1549   -3.6391   13.1794  H     
36   H        15.8186   -1.4450   12.2496  H     
37   H        16.0162   -0.7761   13.8757  H     
38   H        17.6720   -3.0012   12.5512  H     
39   H        18.2142   -1.3743   12.9705  H     
40   H        18.9166   -2.9973   14.5598  H     
41   H        17.9412   -1.8549   15.2482  H     
42   H        17.1576   -4.6120   14.5977  H     
43   H        17.4282   -3.9240   16.2033  H     
44   H        15.5272   -2.3873   15.9527  H     
45   H        14.9786   -4.0361   15.6167  H     
@<TRIPOS>BOND
     1    1    2 1
     2    1   14 2
     3    2    3 2
     4    3    4 1
     5    3    5 1
     6    4   15 2
     7    5    6 1
     8    6    7 2
     9    6   11 1
    10    7    8 1
    11    8    9 2
    12    9   10 1
    13    9   12 1
    14   10   11 2
    15   10   19 1
    16   12   13 3
    17   14   15 1
    18   14   18 1
    19   15   16 1
    20   16   17 1
    21   17   18 2
    22   19   20 1
    23   20   21 1
    24   21   22 1
    25   21   26 1
    26   22   23 1
    27   23   24 1
    28   24   25 1
    29   25   26 1
    30    1   27 1
    31    4   28 1
    32    5   29 1
    33    7   30 1
    34   16   31 1
    35   17   32 1
    36   20   33 1
    37   20   34 1
    38   21   35 1
    39   22   36 1
    40   22   37 1
    41   23   38 1
    42   23   39 1
    43   24   40 1
    44   24   41 1
    45   25   42 1
    46   25   43 1
    47   26   44 1
    48   26   45 1
@<TRIPOS>PROPERTY_DATA
  Total_Score	| 8.7625
  Crash		| -0.7812
  Polar		| 5.1985
  FragIndex	| 1
  FragRMSD	| 0.640

