@<TRIPOS>MOLECULE
BindingDB_50359820
 40 42 0 0 0
SMALL
NO_CHARGES


@<TRIPOS>ATOM
1    N        18.6089    0.0587    8.5841  N     
2    C        18.0529    1.1982    8.0983  C     
3    N        16.7455    1.4624    8.3426  N     
4    C        15.9485    0.6031    9.0300  C     
5    C        16.5065   -0.6268    9.4636  C     
6    C        17.8852   -0.8623    9.2715  C     
7    N        14.6824    1.0398    9.2636  N     
8    C        13.7409    0.5626   10.1323  C     
9    C        12.4638    1.1635   10.1846  C     
10   N        11.5449    0.7045   11.0778  N     
11   C        11.8080   -0.3122   11.9414  C     
12   C        13.0805   -0.9038   11.9157  C     
13   N        13.9865   -0.4396   11.0236  N     
14   N        18.5554   -1.9456    9.7245  N     
15   C        10.8926   -0.7260   12.7580  C     
16   N        10.0852   -1.1114   13.4783  N     
17   C        18.0142   -3.1470   10.2856  C     
18   C        17.5378   -3.0485   11.7688  C     
19   C        17.4377   -4.4711   12.3941  C     
20   C        17.0038   -4.3849   13.8796  C     
21   O        17.8766   -3.5181   14.6346  O     
22   C        17.9563   -2.1704   14.1243  C     
23   C        18.4445   -2.1418   12.6507  C     
24   H        18.6198    1.8678    7.5812  H     
25   H        15.9378   -1.3552    9.8930  H     
26   H        14.4369    1.8637    8.8116  H     
27   H        12.2199    1.9419    9.5632  H     
28   H        13.3412   -1.6686   12.5418  H     
29   H        19.5188   -1.9251    9.6176  H     
30   H        17.1858   -3.4871    9.6607  H     
31   H        18.7966   -3.9057   10.2188  H     
32   H        16.5291   -2.6099   11.7807  H     
33   H        16.7105   -5.0783   11.8436  H     
34   H        18.4125   -4.9694   12.3408  H     
35   H        15.9643   -4.0404   13.9454  H     
36   H        17.0576   -5.3824   14.3202  H     
37   H        16.9769   -1.6827   14.2077  H     
38   H        18.6611   -1.6128   14.7458  H     
39   H        19.4792   -2.5003   12.6113  H     
40   H        18.4229   -1.1074   12.2891  H     
@<TRIPOS>BOND
     1    1    2 2
     2    1    6 1
     3    2    3 1
     4    3    4 2
     5    4    5 1
     6    4    7 1
     7    5    6 2
     8    6   14 1
     9    7    8 1
    10    8    9 2
    11    8   13 1
    12    9   10 1
    13   10   11 2
    14   11   12 1
    15   11   15 1
    16   12   13 2
    17   14   17 1
    18   15   16 3
    19   17   18 1
    20   18   19 1
    21   18   23 1
    22   19   20 1
    23   20   21 1
    24   21   22 1
    25   22   23 1
    26    2   24 1
    27    5   25 1
    28    7   26 1
    29    9   27 1
    30   12   28 1
    31   14   29 1
    32   17   30 1
    33   17   31 1
    34   18   32 1
    35   19   33 1
    36   19   34 1
    37   20   35 1
    38   20   36 1
    39   22   37 1
    40   22   38 1
    41   23   39 1
    42   23   40 1
@<TRIPOS>PROPERTY_DATA
  Total_Score	| 7.0337
  Crash		| -0.4060
  Polar		| 2.2113
  FragIndex	| 1
  FragRMSD	| 0.176

