@<TRIPOS>MOLECULE
BindingDB_50359822
 42 44 0 0 0
SMALL
NO_CHARGES


@<TRIPOS>ATOM
1    N        18.5233   -0.0118    8.5032  N     
2    C        18.0049    1.1449    8.0213  C     
3    N        16.7052    1.4676    8.2575  N     
4    C        15.8883    0.6537    8.9800  C     
5    C        16.4169   -0.5675    9.4831  C     
6    C        17.7755   -0.8849    9.2222  C     
7    N        14.6416    1.1313    9.2423  N     
8    C        13.6730    0.5693   10.0161  C     
9    C        13.1459    1.2967   11.1128  C     
10   N        12.2491    0.6959   11.9369  N     
11   C        11.7937   -0.5712   11.7358  C     
12   C        12.2773   -1.2847   10.6224  C     
13   N        13.1936   -0.6935    9.8190  N     
14   N        18.3903   -2.0194    9.6379  N     
15   C        10.9559   -1.0995   12.5666  C     
16   N        10.2029   -1.5424   13.3186  N     
17   C        17.7715   -3.1446   10.2858  C     
18   C        17.4898   -3.0655   11.8392  C     
19   C        17.7346   -4.4497   12.5365  C     
20   C        17.3899   -4.4093   14.0518  C     
21   N        18.1093   -3.3030   14.7239  N     
22   C        17.8539   -1.9659   14.1306  C     
23   C        18.2413   -1.9477   12.6244  C     
24   H        18.5848    1.7716    7.4690  H     
25   H        15.8623   -1.1943   10.0753  H     
26   H        14.4564    2.0365    8.9433  H     
27   H        13.4494    2.2514   11.3115  H     
28   H        11.9679   -2.2429   10.4156  H     
29   H        19.3020   -2.1627    9.3208  H     
30   H        16.8392   -3.3705    9.7583  H     
31   H        18.4134   -3.9962   10.0714  H     
32   H        16.4120   -2.8609   11.9340  H     
33   H        17.1129   -5.2197   12.0622  H     
34   H        18.7872   -4.7247   12.4170  H     
35   H        16.3082   -4.2946   14.1889  H     
36   H        17.6961   -5.3505   14.5091  H     
37   H        17.8271   -3.2801   15.7122  H     
38   H        19.1143   -3.4960   14.6700  H     
39   H        16.7950   -1.6957   14.2646  H     
40   H        18.4672   -1.2436   14.6814  H     
41   H        19.3298   -2.0801   12.5355  H     
42   H        17.9720   -0.9609   12.2117  H     
@<TRIPOS>BOND
     1    1    2 2
     2    1    6 1
     3    2    3 1
     4    3    4 2
     5    4    5 1
     6    4    7 1
     7    5    6 2
     8    6   14 1
     9    7    8 1
    10    8    9 2
    11    8   13 1
    12    9   10 1
    13   10   11 2
    14   11   12 1
    15   11   15 1
    16   12   13 2
    17   14   17 1
    18   15   16 3
    19   17   18 1
    20   18   19 1
    21   18   23 1
    22   19   20 1
    23   20   21 1
    24   21   22 1
    25   22   23 1
    26    2   24 1
    27    5   25 1
    28    7   26 1
    29    9   27 1
    30   12   28 1
    31   14   29 1
    32   17   30 1
    33   17   31 1
    34   18   32 1
    35   19   33 1
    36   19   34 1
    37   20   35 1
    38   20   36 1
    39   21   37 1
    40   21   38 1
    41   22   39 1
    42   22   40 1
    43   23   41 1
    44   23   42 1
@<TRIPOS>PROPERTY_DATA
  Total_Score	| 9.0664
  Crash		| -0.4413
  Polar		| 4.2507
  FragIndex	| 1
  FragRMSD	| 0.215

