@<TRIPOS>MOLECULE
BindingDB_50359813
 28 30 0 0 0
SMALL
NO_CHARGES


@<TRIPOS>ATOM
1    C        20.6789   -1.2851    8.5527  C     
2    C        20.1140   -0.1471    8.0926  C     
3    C        18.7086   -1.9218    9.6892  C     
4    C        19.9867   -2.1595    9.3407  C     
5    C        18.0560   -0.7630    9.2515  C     
6    C        18.7754    0.1558    8.4287  C     
7    C        18.0912    1.3176    8.0036  C     
8    N        16.8065    1.5307    8.3781  N     
9    C        16.0868    0.6881    9.1613  C     
10   C        16.7162   -0.4957    9.6102  C     
11   N        14.8168    1.0921    9.4118  N     
12   C        13.8580    0.5579   10.2198  C     
13   C        12.5499    1.0793   10.1464  C     
14   N        11.5903    0.5919   10.9742  N     
15   C        11.8350   -0.3856   11.8837  C     
16   C        13.1378   -0.9117   11.9715  C     
17   N        14.0896   -0.4140   11.1435  N     
18   C        10.8742   -0.8052   12.6477  C     
19   N        10.0240   -1.1771   13.3211  N     
20   Cl       21.0480    0.8459    7.1276  Cl    
21   H        21.6189   -1.5092    8.3139  H     
22   H        18.2314   -2.5844   10.2572  H     
23   H        20.4349   -2.9885    9.6598  H     
24   H        18.5413    2.0215    7.4180  H     
25   H        16.2075   -1.1725   10.1765  H     
26   H        14.5486    1.9042    8.9499  H     
27   H        12.3103    1.8207    9.4853  H     
28   H        13.3825   -1.6475   12.6387  H     
@<TRIPOS>BOND
     1    1    2 2
     2    1    4 1
     3    2    6 1
     4    2   20 1
     5    3    4 2
     6    3    5 1
     7    5    6 1
     8    5   10 2
     9    6    7 2
    10    7    8 1
    11    8    9 2
    12    9   10 1
    13    9   11 1
    14   11   12 1
    15   12   13 2
    16   12   17 1
    17   13   14 1
    18   14   15 2
    19   15   16 1
    20   15   18 1
    21   16   17 2
    22   18   19 3
    23    1   21 1
    24    3   22 1
    25    4   23 1
    26    7   24 1
    27   10   25 1
    28   11   26 1
    29   13   27 1
    30   16   28 1
@<TRIPOS>PROPERTY_DATA
  Total_Score	| 6.1476
  Crash		| -0.2784
  Polar		| 2.2195
  FragIndex	| 1
  FragRMSD	| 0.169

