@<TRIPOS>MOLECULE
BindingDB_50359823
 35 36 0 0 0
SMALL
NO_CHARGES


@<TRIPOS>ATOM
1    N        18.5252   -0.0339    8.4059  N     
2    C        17.9643    1.1319    7.9966  C     
3    N        16.6911    1.4275    8.3689  N     
4    C        15.9519    0.5977    9.1525  C     
5    C        16.5318   -0.6357    9.5496  C     
6    C        17.8658   -0.9308    9.1874  C     
7    N        14.7236    1.0790    9.4746  N     
8    C        13.7591    0.5724   10.2894  C     
9    C        12.5453    1.2677   10.4187  C     
10   N        11.5730    0.7800   11.2319  N     
11   C        11.7238   -0.3714   11.9428  C     
12   C        12.9380   -1.0681   11.8385  C     
13   N        13.8974   -0.5707   11.0219  N     
14   N        18.5827   -1.9950    9.6139  N     
15   C        18.1632   -3.2003   10.2724  C     
16   C        17.6950   -3.0841   11.7464  C     
17   C        10.7491   -0.7974   12.6876  C     
18   N         9.8995   -1.1805   13.3478  N     
19   C        18.1259   -1.7773   12.5095  C     
20   N        19.5799   -1.5587   12.5128  N     
21   H        18.4726    1.7696    7.3796  H     
22   H        16.0026   -1.3262   10.0708  H     
23   H        14.4970    1.9363    9.0631  H     
24   H        12.3783    2.1405    9.9059  H     
25   H        13.1066   -1.9425   12.3498  H     
26   H        19.5078   -1.9823    9.3352  H     
27   H        17.3734   -3.6855    9.6930  H     
28   H        19.0197   -3.8645   10.2752  H     
29   H        16.6007   -3.1433   11.8035  H     
30   H        18.0521   -3.9543   12.3023  H     
31   H        17.6707   -0.8933   12.0406  H     
32   H        17.7857   -1.8442   13.5560  H     
33   H        20.0299   -2.2481   13.1408  H     
34   H        19.7517   -0.6163   12.8807  H     
35   H        19.9637   -1.6313   11.5713  H     
@<TRIPOS>BOND
     1    1    2 2
     2    1    6 1
     3    2    3 1
     4    3    4 2
     5    4    5 1
     6    4    7 1
     7    5    6 2
     8    6   14 1
     9    7    8 1
    10    8    9 2
    11    8   13 1
    12    9   10 1
    13   10   11 2
    14   11   12 1
    15   11   17 1
    16   12   13 2
    17   14   15 1
    18   15   16 1
    19   16   19 1
    20   17   18 3
    21   19   20 1
    22    2   21 1
    23    5   22 1
    24    7   23 1
    25    9   24 1
    26   12   25 1
    27   14   26 1
    28   15   27 1
    29   15   28 1
    30   16   29 1
    31   16   30 1
    32   19   31 1
    33   19   32 1
    34   20   33 1
    35   20   34 1
    36   20   35 1
@<TRIPOS>PROPERTY_DATA
  Total_Score	| 7.5434
  Crash		| -0.6859
  Polar		| 3.9216
  FragIndex	| 1
  FragRMSD	| 0.605

