@<TRIPOS>MOLECULE
BindingDB_50359821
 33 34 0 0 0
SMALL
NO_CHARGES


@<TRIPOS>ATOM
1    N        18.5595    0.0079    8.4643  N     
2    C        17.9869    1.1586    8.0371  C     
3    N        16.6962    1.4106    8.3609  N     
4    C        15.9322    0.5529    9.0979  C     
5    C        16.5363   -0.6645    9.5337  C     
6    C        17.8884   -0.9013    9.2257  C     
7    N        14.6858    0.9987    9.3741  N     
8    C        13.7312    0.5265   10.2339  C     
9    C        12.4688    1.1574   10.2679  C     
10   N        11.5202    0.7176   11.1374  N     
11   C        11.7354   -0.3190   11.9878  C     
12   C        12.9934   -0.9561   11.9644  C     
13   N        13.9377   -0.5111   11.0947  N     
14   N        18.6154   -1.9677    9.6449  N     
15   C        18.1849   -3.1347   10.3552  C     
16   C        17.6960   -2.8947   11.8098  C     
17   C        10.7899   -0.7045   12.7952  C     
18   N         9.9646   -1.0557   13.5130  N     
19   C        18.2843   -1.6639   12.5514  C     
20   O        19.7030   -1.5861   12.4371  O     
21   H        18.5164    1.8235    7.4669  H     
22   H        15.9912   -1.3779   10.0190  H     
23   H        14.4454    1.8378    8.9428  H     
24   H        12.2559    1.9534    9.6615  H     
25   H        13.2045   -1.7375   12.5914  H     
26   H        19.5375   -1.9826    9.3359  H     
27   H        17.4093   -3.6627    9.7896  H     
28   H        19.0555   -3.7881   10.4010  H     
29   H        16.6055   -2.7990   11.8282  H     
30   H        17.9421   -3.7880   12.3940  H     
31   H        17.8548   -0.7477   12.1424  H     
32   H        18.0274   -1.7193   13.6190  H     
33   H        20.0632   -2.2300   13.0893  H     
@<TRIPOS>BOND
     1    1    2 2
     2    1    6 1
     3    2    3 1
     4    3    4 2
     5    4    5 1
     6    4    7 1
     7    5    6 2
     8    6   14 1
     9    7    8 1
    10    8    9 2
    11    8   13 1
    12    9   10 1
    13   10   11 2
    14   11   12 1
    15   11   17 1
    16   12   13 2
    17   14   15 1
    18   15   16 1
    19   16   19 1
    20   17   18 3
    21   19   20 1
    22    2   21 1
    23    5   22 1
    24    7   23 1
    25    9   24 1
    26   12   25 1
    27   14   26 1
    28   15   27 1
    29   15   28 1
    30   16   29 1
    31   16   30 1
    32   19   31 1
    33   19   32 1
    34   20   33 1
@<TRIPOS>PROPERTY_DATA
  Total_Score	| 7.2405
  Crash		| -0.4999
  Polar		| 3.6527
  FragIndex	| 1
  FragRMSD	| 0.627

