@<TRIPOS>MOLECULE
BindingDB_50359826
 42 44 0 0 0
SMALL
NO_CHARGES


@<TRIPOS>ATOM
1    N        18.4884   -0.1067    8.8233  N     
2    C        18.0633    1.0611    8.2841  C     
3    N        16.7526    1.3970    8.3859  N     
4    C        15.8397    0.5797    8.9637  C     
5    C        16.2658   -0.6989    9.3832  C     
6    C        17.6444   -1.0196    9.3756  C     
7    N        14.5985    1.0967    9.1590  N     
8    C        13.6375    0.6743   10.0337  C     
9    C        12.4161    1.3756   10.1284  C     
10   N        11.4979    0.9853   11.0532  N     
11   C        11.7054   -0.0532   11.9077  C     
12   C        12.9270   -0.7460   11.8347  C     
13   N        13.8364   -0.3446   10.9140  N     
14   N        18.1305   -2.1423    9.9955  N     
15   C        19.2506   -2.0400   10.9128  C     
16   C        18.7222   -2.1912   12.3728  C     
17   C        17.8198   -3.4580   12.5988  C     
18   C        16.7669   -3.5824   11.4514  C     
19   C        17.4101   -3.4008   10.0514  C     
20   C        18.6431   -4.7707   12.7927  C     
21   N        19.0807   -4.9274   14.1862  N     
22   C        10.7907   -0.3939   12.7635  C     
23   N         9.9830   -0.7041   13.5182  N     
24   H        18.7297    1.7038    7.8567  H     
25   H        15.5917   -1.3514    9.7665  H     
26   H        14.4106    1.9398    8.7140  H     
27   H        12.2112    2.1684    9.5136  H     
28   H        13.1473   -1.5268   12.4602  H     
29   H        19.9852   -2.8200   10.6915  H     
30   H        19.7749   -1.0820   10.8471  H     
31   H        19.5703   -2.2033   13.0642  H     
32   H        18.1248   -1.2995   12.6127  H     
33   H        17.2492   -3.3013   13.5239  H     
34   H        16.2535   -4.5517   11.4931  H     
35   H        16.0014   -2.8092   11.5908  H     
36   H        16.6341   -3.4844    9.2869  H     
37   H        18.1031   -4.2258    9.8624  H     
38   H        18.0347   -5.6449   12.5461  H     
39   H        19.5214   -4.7774   12.1454  H     
40   H        19.5642   -4.0866   14.5019  H     
41   H        19.7139   -5.7283   14.2504  H     
42   H        18.2680   -5.0876   14.7879  H     
@<TRIPOS>BOND
     1    1    2 2
     2    1    6 1
     3    2    3 1
     4    3    4 2
     5    4    5 1
     6    4    7 1
     7    5    6 2
     8    6   14 1
     9    7    8 1
    10    8    9 2
    11    8   13 1
    12    9   10 1
    13   10   11 2
    14   11   12 1
    15   11   22 1
    16   12   13 2
    17   14   15 1
    18   14   19 1
    19   15   16 1
    20   16   17 1
    21   17   18 1
    22   17   20 1
    23   18   19 1
    24   20   21 1
    25   22   23 3
    26    2   24 1
    27    5   25 1
    28    7   26 1
    29    9   27 1
    30   12   28 1
    31   15   29 1
    32   15   30 1
    33   16   31 1
    34   16   32 1
    35   17   33 1
    36   18   34 1
    37   18   35 1
    38   19   36 1
    39   19   37 1
    40   20   38 1
    41   20   39 1
    42   21   40 1
    43   21   41 1
    44   21   42 1
@<TRIPOS>PROPERTY_DATA
  Total_Score	| 7.7289
  Crash		| -0.8508
  Polar		| 3.8322
  FragIndex	| 1
  FragRMSD	| 0.777

