@<TRIPOS>MOLECULE
BindingDB_50359819
 49 51 0 0 0
SMALL
NO_CHARGES


@<TRIPOS>ATOM
1    C        18.6885    0.1463    8.4280  C     
2    C        17.9789    1.2918    7.9919  C     
3    N        16.6851    1.4852    8.3345  N     
4    C        15.9657    0.6264    9.0980  C     
5    C        16.6013   -0.5618    9.5155  C     
6    C        17.9636   -0.8138    9.2011  C     
7    N        14.6943    1.0313    9.3613  N     
8    C        13.7602    0.5341   10.2210  C     
9    C        12.4572    1.0764   10.1818  C     
10   N        11.5246    0.6379   11.0628  N     
11   C        11.7908   -0.3055   12.0033  C     
12   C        13.0901   -0.8400   12.0677  C     
13   N        14.0180   -0.3963   11.1814  N     
14   N        18.5909   -1.9349    9.6474  N     
15   C        10.8490   -0.6920   12.8107  C     
16   N        10.0177   -1.0390   13.5171  N     
17   C        18.0640   -3.1078   10.2780  C     
18   C        17.6371   -2.9970   11.7837  C     
19   C        17.7537   -4.3808   12.5039  C     
20   C        17.3459   -4.2897   13.9994  C     
21   N        18.1034   -3.2182   14.6904  N     
22   C        17.9662   -1.8852   14.0785  C     
23   C        18.4096   -1.9090   12.5936  C     
24   C        20.0684    0.0334    8.0538  C     
25   O        20.8645   -0.9726    8.4938  O     
26   O        20.6399    0.9424    7.2155  O     
27   C        22.0033    0.9737    6.7809  C     
28   H        18.4266    2.0121    7.4176  H     
29   H        16.0783   -1.2459   10.0541  H     
30   H        14.4232    1.8470    8.9089  H     
31   H        12.2003    1.7927    9.4981  H     
32   H        13.3497   -1.5475   12.7612  H     
33   H        19.5364   -1.9836    9.4619  H     
34   H        17.2357   -3.5010    9.6850  H     
35   H        18.8677   -3.8379   10.1932  H     
36   H        16.5816   -2.7169   11.8016  H     
37   H        17.1208   -5.1191   12.0032  H     
38   H        18.7852   -4.7385   12.4527  H     
39   H        16.2721   -4.1015   14.0833  H     
40   H        17.5604   -5.2391   14.4932  H     
41   H        17.8075   -3.1460   15.6646  H     
42   H        19.0976   -3.4509   14.6722  H     
43   H        16.9314   -1.5428   14.1642  H     
44   H        18.6023   -1.1975   14.6373  H     
45   H        19.4835   -2.1050   12.5485  H     
46   H        18.2216   -0.9205   12.1761  H     
47   H        22.6656    1.0918    7.6401  H     
48   H        22.1462    1.8179    6.1037  H     
49   H        22.2496    0.0499    6.2546  H     
@<TRIPOS>BOND
     1    1    2 2
     2    1    6 1
     3    1   24 1
     4    2    3 1
     5    3    4 2
     6    4    5 1
     7    4    7 1
     8    5    6 2
     9    6   14 1
    10    7    8 1
    11    8    9 2
    12    8   13 1
    13    9   10 1
    14   10   11 2
    15   11   12 1
    16   11   15 1
    17   12   13 2
    18   14   17 1
    19   15   16 3
    20   17   18 1
    21   18   19 1
    22   18   23 1
    23   19   20 1
    24   20   21 1
    25   21   22 1
    26   22   23 1
    27   24   25 2
    28   24   26 1
    29   26   27 1
    30    2   28 1
    31    5   29 1
    32    7   30 1
    33    9   31 1
    34   12   32 1
    35   14   33 1
    36   17   34 1
    37   17   35 1
    38   18   36 1
    39   19   37 1
    40   19   38 1
    41   20   39 1
    42   20   40 1
    43   21   41 1
    44   21   42 1
    45   22   43 1
    46   22   44 1
    47   23   45 1
    48   23   46 1
    49   27   47 1
    50   27   48 1
    51   27   49 1
@<TRIPOS>PROPERTY_DATA
  Total_Score	| 9.2084
  Crash		| -0.9483
  Polar		| 3.8503
  FragIndex	| 1
  FragRMSD	| 0.110

