@<TRIPOS>MOLECULE
BindingDB_50359824
 32 33 0 0 0
SMALL
NO_CHARGES


@<TRIPOS>ATOM
1    N        18.6508    0.0890    8.4337  N     
2    C        18.0510    1.2179    7.9858  C     
3    N        16.7623    1.4630    8.3239  N     
4    C        16.0275    0.6092    9.0856  C     
5    C        16.6438   -0.5922    9.5146  C     
6    C        17.9997   -0.8298    9.1930  C     
7    N        14.7665    1.0357    9.3600  N     
8    C        13.8135    0.5219   10.1908  C     
9    C        12.5471    1.1427   10.2401  C     
10   N        11.6008    0.6618   11.0878  N     
11   C        11.8181   -0.4010   11.9046  C     
12   C        13.0797   -1.0241   11.8718  C     
13   N        14.0172   -0.5339   11.0242  N     
14   N        18.7416   -1.9010    9.5687  N     
15   C        18.4679   -2.9002   10.5582  C     
16   C        18.0824   -2.3909   11.9735  C     
17   C        10.8731   -0.8183   12.6884  C     
18   N        10.0364   -1.1928   13.3796  N     
19   N        19.1509   -1.6389   12.6504  N     
20   H        18.5682    1.8857    7.4132  H     
21   H        16.1234   -1.2854   10.0353  H     
22   H        14.5140    1.8686    8.9271  H     
23   H        12.3278    1.9497    9.6524  H     
24   H        13.3050   -1.8265   12.4645  H     
25   H        19.5652   -2.0284    9.0704  H     
26   H        17.6930   -3.5758   10.1861  H     
27   H        19.3838   -3.4893   10.6637  H     
28   H        17.1989   -1.7575   11.9197  H     
29   H        17.8212   -3.2451   12.6016  H     
30   H        19.8392   -2.2698   13.0681  H     
31   H        18.7362   -1.0849   13.4032  H     
32   H        19.6103   -1.0097   11.9906  H     
@<TRIPOS>BOND
     1    1    2 2
     2    1    6 1
     3    2    3 1
     4    3    4 2
     5    4    5 1
     6    4    7 1
     7    5    6 2
     8    6   14 1
     9    7    8 1
    10    8    9 2
    11    8   13 1
    12    9   10 1
    13   10   11 2
    14   11   12 1
    15   11   17 1
    16   12   13 2
    17   14   15 1
    18   15   16 1
    19   16   19 1
    20   17   18 3
    21    2   20 1
    22    5   21 1
    23    7   22 1
    24    9   23 1
    25   12   24 1
    26   14   25 1
    27   15   26 1
    28   15   27 1
    29   16   28 1
    30   16   29 1
    31   19   30 1
    32   19   31 1
    33   19   32 1
@<TRIPOS>PROPERTY_DATA
  Total_Score	| 7.5207
  Crash		| -0.3975
  Polar		| 3.6795
  FragIndex	| 1
  FragRMSD	| 0.240

