@<TRIPOS>MOLECULE
BindingDB_50359817
 44 47 0 0 0
SMALL
NO_CHARGES


@<TRIPOS>ATOM
1    C        18.0556    1.1529    8.1202  C     
2    N        16.7573    1.4268    8.4131  N     
3    C        15.9357    0.5810    9.1040  C     
4    C        16.4481   -0.6809    9.5065  C     
5    N        14.6936    1.0630    9.3686  N     
6    C        13.7317    0.5784   10.2096  C     
7    C        12.4592    1.1933   10.2442  C     
8    N        11.5150    0.7281   11.1039  N     
9    C        11.7425   -0.3080   11.9538  C     
10   C        13.0117   -0.9163   11.9471  C     
11   N        13.9407   -0.4416   11.0844  N     
12   C        10.7978   -0.7248   12.7353  C     
13   N         9.9541   -1.1015   13.4192  N     
14   C        18.6038   -0.0590    8.5737  C     
15   C        17.8037   -0.9707    9.2587  C     
16   N        18.5776   -2.0284    9.5790  N     
17   C        19.8118   -1.7502    9.0954  C     
18   N        19.8445   -0.5562    8.4741  N     
19   C        18.1916   -3.2360   10.2697  C     
20   C        17.7075   -3.0332   11.7422  C     
21   C        17.7266   -4.3862   12.5323  C     
22   C        17.3257   -4.1986   14.0223  C     
23   N        18.1247   -3.1280   14.6711  N     
24   C        18.0487   -1.8280   13.9750  C     
25   C        18.5332   -1.9560   12.5096  C     
26   H        18.6219    1.8275    7.6047  H     
27   H        15.8758   -1.3912    9.9643  H     
28   H        14.4714    1.9115    8.9508  H     
29   H        12.2378    1.9828    9.6351  H     
30   H        13.2482   -1.6972   12.5700  H     
31   H        20.6311   -2.3594    9.1735  H     
32   H        17.3860   -3.7079    9.7013  H     
33   H        19.0320   -3.9386   10.2697  H     
34   H        16.6627   -2.6843   11.7040  H     
35   H        17.0312   -5.0916   12.0632  H     
36   H        18.7310   -4.8209   12.4988  H     
37   H        16.2636   -3.9458   14.0948  H     
38   H        17.4908   -5.1360   14.5641  H     
39   H        17.8003   -2.9852   15.6348  H     
40   H        19.1143   -3.3863   14.6979  H     
41   H        17.0152   -1.4678   14.0057  H     
42   H        18.6823   -1.1155   14.5129  H     
43   H        19.5956   -2.2243   12.5029  H     
44   H        18.4188   -0.9795   12.0259  H     
@<TRIPOS>BOND
     1    1    2 1
     2    1   14 2
     3    2    3 2
     4    3    4 1
     5    3    5 1
     6    4   15 2
     7    5    6 1
     8    6    7 2
     9    6   11 1
    10    7    8 1
    11    8    9 2
    12    9   10 1
    13    9   12 1
    14   10   11 2
    15   12   13 3
    16   14   15 1
    17   14   18 1
    18   15   16 1
    19   16   17 1
    20   16   19 1
    21   17   18 2
    22   19   20 1
    23   20   21 1
    24   20   25 1
    25   21   22 1
    26   22   23 1
    27   23   24 1
    28   24   25 1
    29    1   26 1
    30    4   27 1
    31    5   28 1
    32    7   29 1
    33   10   30 1
    34   17   31 1
    35   19   32 1
    36   19   33 1
    37   20   34 1
    38   21   35 1
    39   21   36 1
    40   22   37 1
    41   22   38 1
    42   23   39 1
    43   23   40 1
    44   24   41 1
    45   24   42 1
    46   25   43 1
    47   25   44 1
@<TRIPOS>PROPERTY_DATA
  Total_Score	| 8.6717
  Crash		| -0.8899
  Polar		| 4.1209
  FragIndex	| 1
  FragRMSD	| 0.079

