@<TRIPOS>MOLECULE
BindingDB_15821
 88 89 0 0 0
SMALL
NO_CHARGES


@<TRIPOS>ATOM
1    C        33.9155   28.7690   21.0865  C     
2    C        34.7432   29.2991   20.0549  C     
3    C        34.1833   30.2610   19.1697  C     
4    C        32.0393   30.0881   20.2638  C     
5    C        32.6028   29.2636   21.2400  C     
6    N        34.2674   27.7008   21.9050  N     
7    C        34.5227   27.9273   23.2115  C     
8    O        34.4650   27.0165   24.0293  O     
9    C        34.9409   29.1505   23.7115  C     
10   O        36.1727   29.6205   23.3824  O     
11   O        34.3346   29.7511   24.7642  O     
12   C        33.9598   26.4207   21.4282  C     
13   C        34.5174   24.1041   20.8231  C     
14   C        33.2122   23.8889   20.3676  C     
15   C        32.2739   24.9179   20.4283  C     
16   C        32.6399   26.1625   20.9692  C     
17   C        34.9179   25.3544   21.3572  C     
18   C        36.2730   25.4723   21.7858  C     
19   O        37.2389   24.6433   21.3340  O     
20   O        36.6788   26.3394   22.7341  O     
21   C        36.1432   28.7975   19.9035  C     
22   C        37.0731   29.4609   18.8641  C     
23   C        32.8159   30.6343   19.2068  C     
24   C        32.2043   31.3691   18.0389  C     
25   C        31.1290   32.4748   18.2784  C     
26   N        30.6865   33.2253   17.1342  N     
27   C        30.9551   33.0703   15.8414  C     
28   C        30.2682   33.9145   14.8910  C     
29   O        31.6781   32.1730   15.4220  O     
30   C        29.9252   31.9840   18.9306  C     
31   O        29.9354   31.8643   20.1529  O     
32   N        28.9245   31.4877   18.2189  N     
33   C        27.8459   30.6550   18.6744  C     
34   C        26.9081   31.2041   19.7948  C     
35   C        27.1276   30.5489   21.1974  C     
36   C        26.1308   31.0123   22.2995  C     
37   C        24.9451   30.1774   22.4051  C     
38   O        24.4938   29.6614   21.3902  O     
39   N        24.3602   29.9860   23.5879  N     
40   C        23.1843   29.2064   23.8731  C     
41   C        23.1834   27.9003   23.1588  C     
42   O        22.0355   27.1987   23.0077  O     
43   C        21.8976   30.0789   23.6806  C     
44   C        20.8040   29.9767   24.7776  C     
45   C        20.2382   32.3466   26.1312  C     
46   S        21.1853   30.8206   26.3408  S     
47   O        24.3658   27.3273   22.7846  O     
48   C        24.5373   26.0709   22.1320  C     
49   H        34.7610   30.6427   18.4151  H     
50   H        31.0434   30.2372   20.3183  H     
51   H        31.9996   28.8836   21.9777  H     
52   H        35.1731   23.3228   20.7599  H     
53   H        32.9521   22.9771   19.9768  H     
54   H        31.3246   24.7717   20.0785  H     
55   H        31.9218   26.8843   21.0094  H     
56   H        36.6426   28.8852   20.8654  H     
57   H        36.0864   27.7375   19.6545  H     
58   H        36.7067   29.2848   17.8532  H     
59   H        38.0768   29.0393   18.9446  H     
60   H        37.1466   30.5390   19.0443  H     
61   H        33.0097   31.8453   17.4640  H     
62   H        31.7749   30.6032   17.3769  H     
63   H        31.6160   33.2126   18.9253  H     
64   H        29.9773   33.8582   17.3324  H     
65   H        29.2005   33.6878   14.9144  H     
66   H        30.6335   33.7644   13.8688  H     
67   H        30.4163   34.9711   15.1586  H     
68   H        28.9584   31.6495   17.2605  H     
69   H        27.2372   30.4417   17.7899  H     
70   H        28.2791   29.7010   18.9846  H     
71   H        27.0259   32.2888   19.8756  H     
72   H        25.8765   31.0123   19.4968  H     
73   H        27.0795   29.4566   21.1042  H     
74   H        28.1366   30.7824   21.5428  H     
75   H        26.6656   31.0165   23.2583  H     
76   H        25.8235   32.0440   22.1088  H     
77   H        24.7550   30.4433   24.3445  H     
78   H        23.2635   28.9527   24.9316  H     
79   H        22.1915   31.1299   23.6127  H     
80   H        21.4416   29.8249   22.7178  H     
81   H        19.8675   30.3803   24.3844  H     
82   H        20.6234   28.9274   25.0117  H     
83   H        20.5715   32.8956   25.2495  H     
84   H        20.4013   32.9763   27.0072  H     
85   H        19.1808   32.1203   26.0464  H     
86   H        24.1057   25.2652   22.7292  H     
87   H        25.6032   25.8778   21.9974  H     
88   H        24.0560   26.0935   21.1483  H     
@<TRIPOS>BOND
     1    1    2 2
     2    1    5 1
     3    1    6 1
     4    2    3 1
     5    2   21 1
     6    3   23 2
     7    4    5 2
     8    4   23 1
     9    6    7 am
    10    6   12 1
    11    7    8 2
    12    7    9 1
    13    9   10 2
    14    9   11 1
    15   12   16 2
    16   12   17 1
    17   13   14 1
    18   13   17 2
    19   14   15 2
    20   15   16 1
    21   17   18 1
    22   18   19 2
    23   18   20 1
    24   21   22 1
    25   23   24 1
    26   24   25 1
    27   25   26 1
    28   25   30 1
    29   26   27 am
    30   27   28 1
    31   27   29 2
    32   30   31 2
    33   30   32 am
    34   32   33 1
    35   33   34 1
    36   34   35 1
    37   35   36 1
    38   36   37 1
    39   37   38 2
    40   37   39 am
    41   39   40 1
    42   40   41 1
    43   40   43 1
    44   41   42 2
    45   41   47 1
    46   43   44 1
    47   44   46 1
    48   45   46 1
    49   47   48 1
    50    3   49 1
    51    4   50 1
    52    5   51 1
    53   13   52 1
    54   14   53 1
    55   15   54 1
    56   16   55 1
    57   21   56 1
    58   21   57 1
    59   22   58 1
    60   22   59 1
    61   22   60 1
    62   24   61 1
    63   24   62 1
    64   25   63 1
    65   26   64 1
    66   28   65 1
    67   28   66 1
    68   28   67 1
    69   32   68 1
    70   33   69 1
    71   33   70 1
    72   34   71 1
    73   34   72 1
    74   35   73 1
    75   35   74 1
    76   36   75 1
    77   36   76 1
    78   39   77 1
    79   40   78 1
    80   43   79 1
    81   43   80 1
    82   44   81 1
    83   44   82 1
    84   45   83 1
    85   45   84 1
    86   45   85 1
    87   48   86 1
    88   48   87 1
    89   48   88 1
@<TRIPOS>PROPERTY_DATA
  Total_Score	| 18.4110
  Crash		| -3.5368
  Polar		| 14.7933
  FragIndex	| 1
  FragRMSD	| 0.910

