@<TRIPOS>MOLECULE
BindingDB_13975
 71 72 0 0 0
SMALL
NO_CHARGES


@<TRIPOS>ATOM
1    C        34.4925   27.9345   23.1267  C     
2    O        34.3166   27.0648   23.9396  O     
3    C        34.9306   29.1577   23.6250  C     
4    O        36.1349   29.6548   23.2289  O     
5    O        34.2682   29.8362   24.6025  O     
6    C        33.9297   26.4684   21.3385  C     
7    C        34.4982   24.1186   20.8725  C     
8    C        33.2015   23.8637   20.4200  C     
9    C        32.2558   24.8885   20.4064  C     
10   C        32.6177   26.1681   20.8645  C     
11   C        34.8908   25.4114   21.3270  C     
12   C        36.2490   25.5528   21.7370  C     
13   O        36.6460   26.4294   22.7019  O     
14   O        37.2301   24.7415   21.2869  O     
15   N        34.1902   27.7477   21.8231  N     
16   C        33.7740   28.8332   21.0459  C     
17   C        31.9428   30.4287   20.6150  C     
18   C        32.5091   29.3933   21.3646  C     
19   C        34.5139   29.3931   19.9503  C     
20   C        33.9111   30.4411   19.1921  C     
21   C        32.6223   30.9538   19.5002  C     
22   C        31.9612   32.0189   18.6859  C     
23   C        30.9185   31.4694   17.6534  C     
24   N        30.3612   32.5587   16.9009  N     
25   C        30.4819   34.9635   15.4359  C     
26   C        29.8272   30.7410   18.2731  C     
27   O        29.6960   29.5473   18.0318  O     
28   N        29.0066   31.3507   19.1098  N     
29   C        27.9857   30.7532   19.9178  C     
30   C        26.7626   31.6944   20.0390  C     
31   C        25.7517   31.3108   21.1496  C     
32   C        26.2680   31.5554   22.5944  C     
33   C        25.2340   31.1828   23.6827  C     
34   C        35.8245   28.9577   19.7118  C     
35   C        36.4317   28.8555   18.5066  C     
36   C        37.7399   28.5319   18.3207  C     
37   O        38.1030   28.0543   17.2514  O     
38   N        38.6683   28.7491   19.2315  N     
39   S        31.0418   33.2505   15.5219  S     
40   O        32.6277   33.2709   15.5976  O     
41   O        30.5302   32.4819   14.2234  O     
42   H        35.1574   23.3440   20.8701  H     
43   H        32.9417   22.9329   20.0846  H     
44   H        31.3086   24.7205   20.0602  H     
45   H        31.8874   26.8868   20.8429  H     
46   H        31.0214   30.7790   20.8841  H     
47   H        31.9704   29.0200   22.1501  H     
48   H        34.4232   30.8784   18.4236  H     
49   H        31.4764   32.7476   19.3480  H     
50   H        32.7232   32.5715   18.1430  H     
51   H        31.4600   30.8072   16.9668  H     
52   H        29.5587   32.9826   17.2439  H     
53   H        29.4000   34.9931   15.4051  H     
54   H        30.8864   35.4437   14.5446  H     
55   H        30.8296   35.5035   16.3204  H     
56   H        29.1553   32.3087   19.2535  H     
57   H        27.6467   29.8005   19.4732  H     
58   H        28.4131   30.5366   20.8914  H     
59   H        27.1147   32.7286   20.2254  H     
60   H        26.2473   31.7089   19.0846  H     
61   H        24.8507   31.9040   21.0070  H     
62   H        25.4722   30.2486   21.0332  H     
63   H        27.1785   30.9774   22.7711  H     
64   H        26.5107   32.6132   22.7094  H     
65   H        24.3007   31.7334   23.5298  H     
66   H        25.6289   31.4455   24.6688  H     
67   H        25.0229   30.1130   23.6659  H     
68   H        36.3651   28.6886   20.4990  H     
69   H        35.8916   28.9911   17.6847  H     
70   H        39.5896   28.5111   19.0523  H     
71   H        38.4339   29.1552   20.0843  H     
@<TRIPOS>BOND
     1    1    2 2
     2    1    3 1
     3    1   15 am
     4    3    4 2
     5    3    5 1
     6    6   10 2
     7    6   11 1
     8    6   15 1
     9    7    8 1
    10    7   11 2
    11    8    9 2
    12    9   10 1
    13   11   12 1
    14   12   13 1
    15   12   14 2
    16   15   16 1
    17   16   18 1
    18   16   19 2
    19   17   18 2
    20   17   21 1
    21   19   20 1
    22   19   34 1
    23   20   21 2
    24   21   22 1
    25   22   23 1
    26   23   24 1
    27   23   26 1
    28   24   39 1
    29   25   39 1
    30   26   27 2
    31   26   28 am
    32   28   29 1
    33   29   30 1
    34   30   31 1
    35   31   32 1
    36   32   33 1
    37   34   35 2
    38   35   36 1
    39   36   37 2
    40   36   38 am
    41   39   40 2
    42   39   41 2
    43    7   42 1
    44    8   43 1
    45    9   44 1
    46   10   45 1
    47   17   46 1
    48   18   47 1
    49   20   48 1
    50   22   49 1
    51   22   50 1
    52   23   51 1
    53   24   52 1
    54   25   53 1
    55   25   54 1
    56   25   55 1
    57   28   56 1
    58   29   57 1
    59   29   58 1
    60   30   59 1
    61   30   60 1
    62   31   61 1
    63   31   62 1
    64   32   63 1
    65   32   64 1
    66   33   65 1
    67   33   66 1
    68   33   67 1
    69   34   68 1
    70   35   69 1
    71   38   70 1
    72   38   71 1
@<TRIPOS>PROPERTY_DATA
  Total_Score	| 19.0226
  Crash		| -2.4303
  Polar		| 15.5003
  FragIndex	| 1
  FragRMSD	| 0.293

