@<TRIPOS>MOLECULE
BindingDB_13967
 58 59 0 0 0
SMALL
NO_CHARGES


@<TRIPOS>ATOM
1    C        34.4766   27.9178   23.1926  C     
2    O        34.5629   26.9929   23.9878  O     
3    C        34.9119   29.1337   23.6944  C     
4    O        36.1106   29.6375   23.3096  O     
5    O        34.2241   29.7788   24.6789  O     
6    C        33.7448   26.4438   21.4214  C     
7    C        34.3412   24.1693   20.6742  C     
8    C        33.0687   23.9931   20.1148  C     
9    C        32.1210   25.0204   20.2090  C     
10   C        32.4582   26.2284   20.8547  C     
11   C        34.6937   25.3697   21.3442  C     
12   C        35.9959   25.4322   21.8962  C     
13   O        36.1663   25.2538   23.2398  O     
14   O        37.1203   25.3053   21.1437  O     
15   N        34.0322   27.7191   21.9316  N     
16   C        33.5949   28.8117   21.1863  C     
17   C        32.3854   29.4500   21.5399  C     
18   C        31.8992   30.5433   20.8150  C     
19   C        33.8100   30.3972   19.3276  C     
20   C        34.2996   29.3001   20.0589  C     
21   C        32.6129   31.0509   19.7114  C     
22   C        32.0422   32.1699   18.9106  C     
23   C        31.1439   31.6821   17.7277  C     
24   N        30.6901   32.8278   16.9185  N     
25   C        30.0025   30.9067   18.2011  C     
26   O        29.9963   29.6872   18.0201  O     
27   N        29.0522   31.4943   18.9107  N     
28   C        28.0526   30.8278   19.6885  C     
29   C        26.8677   31.7783   20.0031  C     
30   C        25.9058   31.2720   21.1128  C     
31   C        26.4208   31.5217   22.5543  C     
32   C        25.3772   31.1547   23.6347  C     
33   H        35.0023   23.3897   20.5977  H     
34   H        32.8375   23.1124   19.6402  H     
35   H        31.1937   24.8895   19.7988  H     
36   H        31.7370   26.9655   20.8896  H     
37   H        31.8367   29.0974   22.3309  H     
38   H        31.0135   30.9692   21.1032  H     
39   H        34.3307   30.7286   18.5112  H     
40   H        35.1699   28.8507   19.7650  H     
41   H        31.4534   32.8481   19.5419  H     
42   H        32.8664   32.7641   18.5107  H     
43   H        31.7615   31.0658   17.0684  H     
44   H        30.1010   33.4578   17.4759  H     
45   H        30.1543   32.4869   16.1162  H     
46   H        31.5077   33.3430   16.5801  H     
47   H        29.0882   32.4645   18.9730  H     
48   H        27.6686   29.9558   19.1532  H     
49   H        28.5256   30.4932   20.6123  H     
50   H        27.2465   32.7667   20.2774  H     
51   H        26.2847   31.8905   19.0863  H     
52   H        24.9542   31.7998   20.9979  H     
53   H        25.7166   30.2045   20.9679  H     
54   H        27.3241   30.9364   22.7338  H     
55   H        26.6704   32.5825   22.6634  H     
56   H        24.4322   31.6723   23.4540  H     
57   H        25.7517   31.4475   24.6199  H     
58   H        25.1952   30.0740   23.6353  H     
@<TRIPOS>BOND
     1    1    2 2
     2    1    3 1
     3    1   15 am
     4    3    4 2
     5    3    5 1
     6    6   10 2
     7    6   11 1
     8    6   15 1
     9    7    8 1
    10    7   11 2
    11    8    9 2
    12    9   10 1
    13   11   12 1
    14   12   13 1
    15   12   14 2
    16   15   16 1
    17   16   17 2
    18   16   20 1
    19   17   18 1
    20   18   21 2
    21   19   20 2
    22   19   21 1
    23   21   22 1
    24   22   23 1
    25   23   24 1
    26   23   25 1
    27   25   26 2
    28   25   27 am
    29   27   28 1
    30   28   29 1
    31   29   30 1
    32   30   31 1
    33   31   32 1
    34    7   33 1
    35    8   34 1
    36    9   35 1
    37   10   36 1
    38   17   37 1
    39   18   38 1
    40   19   39 1
    41   20   40 1
    42   22   41 1
    43   22   42 1
    44   23   43 1
    45   24   44 1
    46   24   45 1
    47   24   46 1
    48   27   47 1
    49   28   48 1
    50   28   49 1
    51   29   50 1
    52   29   51 1
    53   30   52 1
    54   30   53 1
    55   31   54 1
    56   31   55 1
    57   32   56 1
    58   32   57 1
    59   32   58 1
@<TRIPOS>PROPERTY_DATA
  Total_Score	| 17.1275
  Crash		| -2.4016
  Polar		| 13.9807
  FragIndex	| 1
  FragRMSD	| 0.332

