@<TRIPOS>MOLECULE
BindingDB_15822
 84 85 0 0 0
SMALL
NO_CHARGES


@<TRIPOS>ATOM
1    C        34.9910   28.3489   20.6277  C     
2    C        34.4813   29.5470   20.0282  C     
3    C        35.2784   30.1824   19.0306  C     
4    C        36.9518   28.4482   19.1202  C     
5    C        36.2211   27.8252   20.1392  C     
6    N        34.3796   27.6354   21.6547  N     
7    C        34.2509   28.1021   22.9169  C     
8    O        33.6109   27.4328   23.7304  O     
9    C        34.8064   29.2729   23.4477  C     
10   O        36.0119   29.7266   23.0530  O     
11   O        34.2129   29.9260   24.4797  O     
12   C        33.9750   26.3427   21.3212  C     
13   C        34.2508   23.9104   21.2502  C     
14   C        33.0372   23.7740   20.5687  C     
15   C        32.2895   24.9150   20.2467  C     
16   C        32.7652   26.1876   20.5965  C     
17   C        34.7297   25.1787   21.6728  C     
18   C        35.9810   25.2193   22.3526  C     
19   O        36.7016   26.3448   22.5258  O     
20   O        36.6156   24.0982   22.7652  O     
21   C        33.1538   30.2178   20.2641  C     
22   C        32.0350   29.6769   21.1836  C     
23   C        36.4910   29.6450   18.5493  C     
24   C        37.2761   30.3472   17.4876  C     
25   C        36.5521   30.7756   16.1550  C     
26   N        37.1432   30.2498   14.9553  N     
27   C        37.7376   29.0775   14.7699  C     
28   C        38.2644   28.7838   13.4590  C     
29   O        37.8588   28.2594   15.6732  O     
30   C        35.0957   30.6163   16.0889  C     
31   O        34.3784   31.6090   16.2062  O     
32   N        34.5518   29.4081   16.0058  N     
33   C        33.1545   29.1249   16.1943  C     
34   C        32.9071   27.6073   16.4327  C     
35   C        32.8032   26.7791   15.1150  C     
36   C        32.1510   25.3750   15.2487  C     
37   C        32.7669   24.4489   16.1881  C     
38   O        32.0437   23.8400   16.9594  O     
39   N        34.0780   24.2346   16.1605  N     
40   C        34.8135   23.2924   16.9668  C     
41   C        35.6367   22.4749   16.0466  C     
42   O        36.7664   22.9721   15.4944  O     
43   C        35.6754   24.0450   18.0276  C     
44   C        36.7793   23.1454   18.6469  C     
45   C        38.5194   22.6574   20.6658  C     
46   S        37.8633   24.0756   19.7585  S     
47   O        35.2710   21.2167   15.7385  O     
48   H        34.9421   31.0494   18.6119  H     
49   H        37.8342   28.0167   18.8156  H     
50   H        36.5994   26.9616   20.5161  H     
51   H        34.7942   23.0600   21.4219  H     
52   H        32.7193   22.8523   20.2787  H     
53   H        31.4040   24.8276   19.7327  H     
54   H        32.2210   26.9983   20.3041  H     
55   H        33.3652   31.2328   20.6085  H     
56   H        32.6874   30.3154   19.2809  H     
57   H        31.8055   28.6386   20.9694  H     
58   H        31.1206   30.2570   21.0150  H     
59   H        32.3044   29.7983   22.2363  H     
60   H        37.6838   31.2329   17.9543  H     
61   H        38.1519   29.7555   17.2243  H     
62   H        36.7440   31.8540   16.0542  H     
63   H        37.1245   30.8316   14.1768  H     
64   H        37.4539   28.7611   12.7363  H     
65   H        38.7737   27.8248   13.4388  H     
66   H        38.9723   29.5585   13.1680  H     
67   H        35.1526   28.6469   15.9267  H     
68   H        32.8076   29.6621   17.0731  H     
69   H        32.5902   29.4814   15.3299  H     
70   H        33.7256   27.1804   17.0409  H     
71   H        31.9705   27.4809   17.0141  H     
72   H        32.1931   27.3505   14.3965  H     
73   H        33.8095   26.6805   14.6896  H     
74   H        31.1010   25.5119   15.5063  H     
75   H        32.1807   24.9083   14.2598  H     
76   H        34.5946   24.7717   15.5430  H     
77   H        34.1336   22.6223   17.4969  H     
78   H        36.1210   24.9284   17.5801  H     
79   H        35.0107   24.3837   18.8304  H     
80   H        36.3114   22.3293   19.2003  H     
81   H        37.3960   22.7326   17.8506  H     
82   H        37.7150   22.1452   21.1928  H     
83   H        39.2481   23.0101   21.3944  H     
84   H        39.0088   21.9634   19.9848  H     
@<TRIPOS>BOND
     1    1    2 2
     2    1    5 1
     3    1    6 1
     4    2    3 1
     5    2   21 1
     6    3   23 2
     7    4    5 2
     8    4   23 1
     9    6    7 am
    10    6   12 1
    11    7    8 2
    12    7    9 1
    13    9   10 2
    14    9   11 1
    15   12   16 2
    16   12   17 1
    17   13   14 1
    18   13   17 2
    19   14   15 2
    20   15   16 1
    21   17   18 1
    22   18   19 2
    23   18   20 1
    24   21   22 1
    25   23   24 1
    26   24   25 1
    27   25   26 1
    28   25   30 1
    29   26   27 am
    30   27   28 1
    31   27   29 2
    32   30   31 2
    33   30   32 am
    34   32   33 1
    35   33   34 1
    36   34   35 1
    37   35   36 1
    38   36   37 1
    39   37   38 2
    40   37   39 am
    41   39   40 1
    42   40   41 1
    43   40   43 1
    44   41   42 2
    45   41   47 1
    46   43   44 1
    47   44   46 1
    48   45   46 1
    49    3   48 1
    50    4   49 1
    51    5   50 1
    52   13   51 1
    53   14   52 1
    54   15   53 1
    55   16   54 1
    56   21   55 1
    57   21   56 1
    58   22   57 1
    59   22   58 1
    60   22   59 1
    61   24   60 1
    62   24   61 1
    63   25   62 1
    64   26   63 1
    65   28   64 1
    66   28   65 1
    67   28   66 1
    68   32   67 1
    69   33   68 1
    70   33   69 1
    71   34   70 1
    72   34   71 1
    73   35   72 1
    74   35   73 1
    75   36   74 1
    76   36   75 1
    77   39   76 1
    78   40   77 1
    79   43   78 1
    80   43   79 1
    81   44   80 1
    82   44   81 1
    83   45   82 1
    84   45   83 1
    85   45   84 1
@<TRIPOS>PROPERTY_DATA
  Total_Score	| 10.4346
  Crash		| -4.3764
  Polar		| 11.4470
  FragIndex	| 1
  FragRMSD	| 0.767

