@<TRIPOS>MOLECULE
BindingDB_13972
 71 72 0 0 0
SMALL
NO_CHARGES


@<TRIPOS>ATOM
1    C        34.4911   27.9244   23.1860  C     
2    O        34.5129   26.9781   23.9639  O     
3    C        34.9535   29.1265   23.6989  C     
4    O        36.1439   29.6231   23.2875  O     
5    O        34.2883   29.7981   24.6703  O     
6    C        33.7783   26.4882   21.4029  C     
7    C        34.2982   24.1174   20.9972  C     
8    C        33.0690   23.9389   20.3501  C     
9    C        32.1751   25.0079   20.2377  C     
10   C        32.5229   26.2606   20.7678  C     
11   C        34.6792   25.3785   21.5279  C     
12   C        35.9492   25.4500   22.1669  C     
13   O        36.8071   26.4707   21.9600  O     
14   O        36.4493   24.4086   22.8670  O     
15   N        34.0473   27.7647   21.9165  N     
16   C        33.6130   28.8777   21.1836  C     
17   C        31.8236   30.5477   20.8926  C     
18   C        32.3997   29.4848   21.6003  C     
19   C        32.4325   31.0303   19.7197  C     
20   C        31.8234   32.1334   18.9232  C     
21   C        31.1449   31.6471   17.6002  C     
22   N        29.7573   31.3328   17.8142  N     
23   C        31.2339   32.6424   16.5331  C     
24   O        31.9324   32.3929   15.5568  O     
25   N        30.5756   33.7955   16.6187  N     
26   C        30.5771   34.8572   15.6541  C     
27   C        29.1320   35.2523   15.2617  C     
28   C        29.0034   36.0295   13.9252  C     
29   C        29.9578   37.2441   13.7826  C     
30   C        29.3577   38.3740   12.9179  C     
31   C        27.8203   30.0500   18.3492  C     
32   C        29.2535   30.1659   18.1902  C     
33   O        29.9604   29.1878   18.3952  O     
34   C        33.6402   30.4324   19.2947  C     
35   C        34.2507   29.3653   20.0034  C     
36   C        35.5360   28.7896   19.4752  C     
37   C        35.2732   27.6478   18.4565  C     
38   C        36.4919   29.8732   18.9000  C     
39   H        34.9211   23.3064   21.0550  H     
40   H        32.8189   23.0252   19.9701  H     
41   H        31.2680   24.8704   19.7847  H     
42   H        31.8289   27.0057   20.7020  H     
43   H        30.9421   30.9508   21.2248  H     
44   H        31.9112   29.1364   22.4294  H     
45   H        31.0980   32.6912   19.5255  H     
46   H        32.6222   32.8379   18.6875  H     
47   H        31.6630   30.7438   17.2538  H     
48   H        29.1154   32.0528   17.6752  H     
49   H        30.0348   33.9393   17.4122  H     
50   H        31.0669   35.7221   16.1081  H     
51   H        31.1367   34.5926   14.7530  H     
52   H        28.5358   34.3423   15.1707  H     
53   H        28.6956   35.8486   16.0684  H     
54   H        29.1850   35.3362   13.0983  H     
55   H        27.9690   36.3772   13.8458  H     
56   H        30.1895   37.6533   14.7691  H     
57   H        30.8917   36.9124   13.3212  H     
58   H        29.1086   38.0115   11.9204  H     
59   H        30.0783   39.1871   12.8159  H     
60   H        28.4563   38.7684   13.3891  H     
61   H        27.4713   30.7744   19.0876  H     
62   H        27.5284   29.0522   18.6831  H     
63   H        27.3269   30.2559   17.3965  H     
64   H        34.0794   30.7837   18.4394  H     
65   H        36.0941   28.3377   20.2897  H     
66   H        34.6226   26.8912   18.8973  H     
67   H        36.2136   27.1671   18.1797  H     
68   H        34.8092   28.0283   17.5468  H     
69   H        36.0723   30.3524   18.0144  H     
70   H        37.4497   29.4262   18.6205  H     
71   H        36.6816   30.6443   19.6518  H     
@<TRIPOS>BOND
     1    1    2 2
     2    1    3 1
     3    1   15 am
     4    3    4 2
     5    3    5 1
     6    6   10 2
     7    6   11 1
     8    6   15 1
     9    7    8 1
    10    7   11 2
    11    8    9 2
    12    9   10 1
    13   11   12 1
    14   12   13 1
    15   12   14 2
    16   15   16 1
    17   16   18 1
    18   16   35 2
    19   17   18 2
    20   17   19 1
    21   19   20 1
    22   19   34 2
    23   20   21 1
    24   21   22 1
    25   21   23 1
    26   22   32 am
    27   23   24 2
    28   23   25 am
    29   25   26 1
    30   26   27 1
    31   27   28 1
    32   28   29 1
    33   29   30 1
    34   31   32 1
    35   32   33 2
    36   34   35 1
    37   35   36 1
    38   36   37 1
    39   36   38 1
    40    7   39 1
    41    8   40 1
    42    9   41 1
    43   10   42 1
    44   17   43 1
    45   18   44 1
    46   20   45 1
    47   20   46 1
    48   21   47 1
    49   22   48 1
    50   25   49 1
    51   26   50 1
    52   26   51 1
    53   27   52 1
    54   27   53 1
    55   28   54 1
    56   28   55 1
    57   29   56 1
    58   29   57 1
    59   30   58 1
    60   30   59 1
    61   30   60 1
    62   31   61 1
    63   31   62 1
    64   31   63 1
    65   34   64 1
    66   36   65 1
    67   37   66 1
    68   37   67 1
    69   37   68 1
    70   38   69 1
    71   38   70 1
    72   38   71 1
@<TRIPOS>PROPERTY_DATA
  Total_Score	| 16.7199
  Crash		| -2.3645
  Polar		| 13.9974
  FragIndex	| 1
  FragRMSD	| 0.147

