@<TRIPOS>MOLECULE
BindingDB_13973
 69 70 0 0 0
SMALL
NO_CHARGES


@<TRIPOS>ATOM
1    C        34.5418   27.8707   23.1538  C     
2    O        34.5173   26.9788   23.9935  O     
3    C        34.9447   29.1045   23.6426  C     
4    O        36.1398   29.6162   23.2637  O     
5    O        34.2603   29.7590   24.6124  O     
6    C        33.8847   26.3333   21.4205  C     
7    C        34.4298   23.9887   20.8854  C     
8    C        33.1585   23.7960   20.3433  C     
9    C        32.2341   24.8448   20.3449  C     
10   C        32.5947   26.0949   20.8740  C     
11   C        34.8044   25.2375   21.4285  C     
12   C        36.0983   25.3276   21.9415  C     
13   O        36.2986   25.2882   23.2900  O     
14   O        37.1660   25.1902   21.1091  O     
15   N        34.2051   27.6197   21.8756  N     
16   C        33.9150   28.6837   21.0355  C     
17   C        32.2995   30.4345   20.4425  C     
18   C        32.7509   29.4443   21.3185  C     
19   C        32.9904   30.6965   19.2342  C     
20   C        32.5096   31.6249   18.1715  C     
21   C        31.0726   32.2266   18.2756  C     
22   N        30.7842   33.2359   17.2955  N     
23   C        29.9622   31.2791   18.3248  C     
24   O        30.0130   30.2186   17.7010  O     
25   N        28.8991   31.6080   19.0316  N     
26   C        27.7975   30.7589   19.3580  C     
27   C        26.6214   31.5964   19.9464  C     
28   C        25.8340   30.8962   21.0906  C     
29   C        26.3023   31.2890   22.5226  C     
30   C        25.2110   31.0740   23.5945  C     
31   C        30.6474   34.3351   15.1935  C     
32   C        31.1965   33.3056   16.0415  C     
33   O        31.9911   32.4990   15.5738  O     
34   C        34.2004   30.0075   19.0038  C     
35   C        34.6825   29.0002   19.8810  C     
36   C        35.9951   28.3558   19.5603  C     
37   C        36.0087   27.6207   18.1946  C     
38   O        37.3547   27.4739   17.7141  O     
39   H        35.0872   23.2035   20.8901  H     
40   H        32.9016   22.8916   19.9431  H     
41   H        31.3038   24.7025   19.9588  H     
42   H        31.8935   26.8241   20.8607  H     
43   H        31.4552   30.9358   20.6928  H     
44   H        32.1928   29.2565   22.1610  H     
45   H        33.2104   32.4612   18.1269  H     
46   H        32.5720   31.1034   17.2054  H     
47   H        31.0664   32.7660   19.2325  H     
48   H        30.0847   33.8466   17.5320  H     
49   H        28.9142   32.4881   19.4496  H     
50   H        27.4514   30.2291   18.4678  H     
51   H        28.1505   30.0269   20.0815  H     
52   H        26.9827   32.5604   20.3224  H     
53   H        25.9228   31.8216   19.1394  H     
54   H        24.7736   31.1840   20.9893  H     
55   H        25.8905   29.8098   20.9656  H     
56   H        27.1857   30.7063   22.7975  H     
57   H        26.5761   32.3476   22.5364  H     
58   H        24.2942   31.5984   23.3249  H     
59   H        25.5549   31.4619   24.5521  H     
60   H        24.9897   30.0114   23.7055  H     
61   H        29.5625   34.2165   15.1337  H     
62   H        31.0535   34.2962   14.1763  H     
63   H        30.8721   35.3215   15.6088  H     
64   H        34.7504   30.2403   18.1630  H     
65   H        36.7551   29.1475   19.5449  H     
66   H        36.2987   27.6651   20.3372  H     
67   H        35.5683   26.6180   18.2917  H     
68   H        35.4640   28.1728   17.4364  H     
69   H        37.9127   27.5308   18.5199  H     
@<TRIPOS>BOND
     1    1    2 2
     2    1    3 1
     3    1   15 am
     4    3    4 2
     5    3    5 1
     6    6   10 2
     7    6   11 1
     8    6   15 1
     9    7    8 1
    10    7   11 2
    11    8    9 2
    12    9   10 1
    13   11   12 1
    14   12   13 1
    15   12   14 2
    16   15   16 1
    17   16   18 1
    18   16   35 2
    19   17   18 2
    20   17   19 1
    21   19   20 1
    22   19   34 2
    23   20   21 1
    24   21   22 1
    25   21   23 1
    26   22   32 am
    27   23   24 2
    28   23   25 am
    29   25   26 1
    30   26   27 1
    31   27   28 1
    32   28   29 1
    33   29   30 1
    34   31   32 1
    35   32   33 2
    36   34   35 1
    37   35   36 1
    38   36   37 1
    39   37   38 1
    40    7   39 1
    41    8   40 1
    42    9   41 1
    43   10   42 1
    44   17   43 1
    45   18   44 1
    46   20   45 1
    47   20   46 1
    48   21   47 1
    49   22   48 1
    50   25   49 1
    51   26   50 1
    52   26   51 1
    53   27   52 1
    54   27   53 1
    55   28   54 1
    56   28   55 1
    57   29   56 1
    58   29   57 1
    59   30   58 1
    60   30   59 1
    61   30   60 1
    62   31   61 1
    63   31   62 1
    64   31   63 1
    65   34   64 1
    66   36   65 1
    67   36   66 1
    68   37   67 1
    69   37   68 1
    70   38   69 1
@<TRIPOS>PROPERTY_DATA
  Total_Score	| 15.4853
  Crash		| -2.9970
  Polar		| 14.0580
  FragIndex	| 1
  FragRMSD	| 0.563

