@<TRIPOS>MOLECULE
BindingDB_13968
 62 63 0 0 0
SMALL
NO_CHARGES


@<TRIPOS>ATOM
1    C        34.5218   27.8250   23.2603  C     
2    O        34.6298   26.8769   24.0293  O     
3    C        34.9731   29.0486   23.7434  C     
4    O        36.1300   29.5803   23.2861  O     
5    O        34.2889   29.7622   24.6689  O     
6    C        33.7676   26.3811   21.4846  C     
7    C        34.3136   24.0215   21.0439  C     
8    C        33.0904   23.8420   20.3816  C     
9    C        32.1838   24.9033   20.2954  C     
10   C        32.5173   26.1500   20.8451  C     
11   C        34.6781   25.2802   21.5872  C     
12   C        35.9566   25.3814   22.2023  C     
13   O        36.7897   26.4124   21.9393  O     
14   O        36.4624   24.3683   22.9326  O     
15   N        34.0272   27.6494   22.0131  N     
16   C        33.5718   28.7436   21.2859  C     
17   C        34.1911   29.1589   20.0869  C     
18   C        33.6626   30.2344   19.3437  C     
19   C        31.8890   30.5016   20.9742  C     
20   C        32.4041   29.4218   21.7093  C     
21   C        32.5053   30.9231   19.7757  C     
22   C        31.9293   32.0537   18.9897  C     
23   C        31.0288   31.6136   17.7879  C     
24   N        30.5517   32.7564   17.0580  N     
25   C        29.8685   30.8153   18.1977  C     
26   O        29.8026   29.6429   17.8468  O     
27   N        28.9415   31.3532   18.9799  N     
28   C        27.7938   30.6971   19.5372  C     
29   C        26.7864   31.7484   20.0598  C     
30   C        25.9714   31.3336   21.3176  C     
31   C        26.7894   30.8542   22.5521  C     
32   C        26.6507   31.7557   23.8032  C     
33   C        31.1980   33.4532   16.1352  C     
34   C        30.5543   34.6164   15.5782  C     
35   O        32.3087   33.1234   15.7428  O     
36   H        34.9473   23.2222   21.0953  H     
37   H        32.8588   22.9385   19.9680  H     
38   H        31.2818   24.7723   19.8279  H     
39   H        31.8220   26.8990   20.7810  H     
40   H        35.0292   28.6790   19.7536  H     
41   H        34.1318   30.5113   18.4769  H     
42   H        31.0482   30.9735   21.3207  H     
43   H        31.9111   29.1232   22.5559  H     
44   H        31.3556   32.7036   19.6578  H     
45   H        32.7588   32.6521   18.6104  H     
46   H        31.6407   31.0111   17.1124  H     
47   H        29.6671   33.0811   17.2863  H     
48   H        29.0785   32.2773   19.2538  H     
49   H        27.2924   30.0459   18.8169  H     
50   H        28.1497   30.0879   20.3692  H     
51   H        27.3222   32.6719   20.2839  H     
52   H        26.0754   31.9739   19.2663  H     
53   H        25.3561   32.1825   21.6226  H     
54   H        25.2838   30.5277   21.0331  H     
55   H        26.4541   29.8454   22.8221  H     
56   H        27.8459   30.7827   22.2805  H     
57   H        26.9882   32.7664   23.5760  H     
58   H        27.2666   31.3466   24.6168  H     
59   H        25.6060   31.7839   24.1316  H     
60   H        29.5909   34.3432   15.1452  H     
61   H        31.1619   35.0837   14.8024  H     
62   H        30.3906   35.3478   16.3683  H     
@<TRIPOS>BOND
     1    1    2 2
     2    1    3 1
     3    1   15 am
     4    3    4 2
     5    3    5 1
     6    6   10 2
     7    6   11 1
     8    6   15 1
     9    7    8 1
    10    7   11 2
    11    8    9 2
    12    9   10 1
    13   11   12 1
    14   12   13 1
    15   12   14 2
    16   15   16 1
    17   16   17 2
    18   16   20 1
    19   17   18 1
    20   18   21 2
    21   19   20 2
    22   19   21 1
    23   21   22 1
    24   22   23 1
    25   23   24 1
    26   23   25 1
    27   24   33 am
    28   25   26 2
    29   25   27 am
    30   27   28 1
    31   28   29 1
    32   29   30 1
    33   30   31 1
    34   31   32 1
    35   33   34 1
    36   33   35 2
    37    7   36 1
    38    8   37 1
    39    9   38 1
    40   10   39 1
    41   17   40 1
    42   18   41 1
    43   19   42 1
    44   20   43 1
    45   22   44 1
    46   22   45 1
    47   23   46 1
    48   24   47 1
    49   27   48 1
    50   28   49 1
    51   28   50 1
    52   29   51 1
    53   29   52 1
    54   30   53 1
    55   30   54 1
    56   31   55 1
    57   31   56 1
    58   32   57 1
    59   32   58 1
    60   32   59 1
    61   34   60 1
    62   34   61 1
    63   34   62 1
@<TRIPOS>PROPERTY_DATA
  Total_Score	| 18.0464
  Crash		| -2.5997
  Polar		| 13.3994
  FragIndex	| 1
  FragRMSD	| 0.404

