@<TRIPOS>MOLECULE
BindingDB_15818
 87 88 0 0 0
SMALL
NO_CHARGES


@<TRIPOS>ATOM
1    C        33.6833   28.8585   21.2608  C     
2    C        34.3941   29.4166   20.1559  C     
3    C        33.8163   30.5406   19.5135  C     
4    C        31.8848   30.5009   20.9802  C     
5    C        32.4391   29.4129   21.6557  C     
6    N        34.1263   27.7273   21.9613  N     
7    C        34.5546   27.8804   23.2383  C     
8    O        34.5583   26.9409   24.0297  O     
9    C        35.0144   29.0790   23.7626  C     
10   O        34.3342   29.7432   24.7300  O     
11   O        36.2012   29.5978   23.3669  O     
12   C        33.8243   26.4566   21.4350  C     
13   C        34.3187   24.0798   20.9994  C     
14   C        33.0811   23.9177   20.3626  C     
15   C        32.2041   25.0025   20.2637  C     
16   C        32.5687   26.2459   20.7966  C     
17   C        34.7121   25.3333   21.5321  C     
18   C        35.9948   25.3813   22.1309  C     
19   O        36.8450   26.4102   21.9267  O     
20   O        36.4528   24.3675   22.9020  O     
21   C        35.7046   28.8316   19.7395  C     
22   C        36.6199   29.5581   18.7192  C     
23   C        32.5658   31.0745   19.8962  C     
24   C        31.9194   32.1608   19.1049  C     
25   C        30.6018   31.7473   18.3612  C     
26   N        30.3078   32.5710   17.2119  N     
27   C        31.0416   32.7489   16.1199  C     
28   C        30.4975   33.5354   15.0395  C     
29   O        32.1483   32.2436   15.9740  O     
30   C        30.4468   30.3311   18.0186  C     
31   O        31.3591   29.7455   17.4505  O     
32   N        29.3225   29.6938   18.3277  N     
33   C        28.9980   28.3224   18.1037  C     
34   C        27.4584   28.1707   17.9750  C     
35   C        26.9391   26.7444   17.6527  C     
36   C        26.1298   26.0221   18.7675  C     
37   C        25.0037   26.7806   19.2885  C     
38   O        23.9276   26.7265   18.7051  O     
39   N        25.1962   27.5730   20.3339  N     
40   C        24.2649   28.4497   20.9786  C     
41   C        23.6793   27.7675   22.1472  C     
42   O        24.4890   27.3443   23.1483  O     
43   O        22.4438   27.2161   22.0846  O     
44   C        23.2558   29.1482   20.0131  C     
45   C        22.8548   30.5995   20.4024  C     
46   S        22.1619   30.7352   22.0806  S     
47   C        23.4911   31.5715   22.9651  C     
48   C        24.3011   30.6521   23.9028  C     
49   H        34.2799   30.9943   18.7330  H     
50   H        30.9817   30.8739   21.2940  H     
51   H        31.9254   28.9949   22.4481  H     
52   H        34.9410   23.2704   21.0494  H     
53   H        32.8274   23.0140   19.9729  H     
54   H        31.3027   24.8945   19.7999  H     
55   H        31.8880   27.0017   20.7187  H     
56   H        36.2929   28.7022   20.6489  H     
57   H        35.5041   27.8436   19.3186  H     
58   H        36.0829   29.7431   17.7856  H     
59   H        37.4849   28.9459   18.4959  H     
60   H        36.9700   30.5094   19.1283  H     
61   H        31.7045   32.9918   19.7827  H     
62   H        32.6444   32.5481   18.3909  H     
63   H        29.7958   32.0033   19.0634  H     
64   H        29.4437   33.0143   17.2272  H     
65   H        29.5491   33.1022   14.7163  H     
66   H        31.1748   33.5592   14.1826  H     
67   H        30.3273   34.5593   15.3769  H     
68   H        28.6266   30.2281   18.7475  H     
69   H        29.4784   27.9023   17.2199  H     
70   H        29.3789   27.7884   18.9711  H     
71   H        26.9811   28.5057   18.9014  H     
72   H        27.1182   28.8451   17.1822  H     
73   H        26.3006   26.8136   16.7647  H     
74   H        27.7940   26.1136   17.3790  H     
75   H        25.7429   25.0808   18.3739  H     
76   H        26.8192   25.7506   19.5718  H     
77   H        26.0924   27.5832   20.7022  H     
78   H        24.9174   29.2379   21.3742  H     
79   H        23.7019   29.2031   19.0154  H     
80   H        22.3466   28.5525   19.9114  H     
81   H        23.7244   31.2429   20.2495  H     
82   H        22.0826   30.9479   19.7163  H     
83   H        24.1522   32.0634   22.2488  H     
84   H        23.0191   32.3503   23.5672  H     
85   H        23.6397   30.2103   24.6531  H     
86   H        25.0645   31.2352   24.4102  H     
87   H        24.7901   29.8534   23.3469  H     
@<TRIPOS>BOND
     1    1    2 2
     2    1    5 1
     3    1    6 1
     4    2    3 1
     5    2   21 1
     6    3   23 2
     7    4    5 2
     8    4   23 1
     9    6    7 am
    10    6   12 1
    11    7    8 2
    12    7    9 1
    13    9   10 2
    14    9   11 1
    15   12   16 2
    16   12   17 1
    17   13   14 1
    18   13   17 2
    19   14   15 2
    20   15   16 1
    21   17   18 1
    22   18   19 2
    23   18   20 1
    24   21   22 1
    25   23   24 1
    26   24   25 1
    27   25   26 1
    28   25   30 1
    29   26   27 am
    30   27   28 1
    31   27   29 2
    32   30   31 2
    33   30   32 am
    34   32   33 1
    35   33   34 1
    36   34   35 1
    37   35   36 1
    38   36   37 1
    39   37   38 2
    40   37   39 am
    41   39   40 1
    42   40   41 1
    43   40   44 1
    44   41   42 2
    45   41   43 1
    46   44   45 1
    47   45   46 1
    48   46   47 1
    49   47   48 1
    50    3   49 1
    51    4   50 1
    52    5   51 1
    53   13   52 1
    54   14   53 1
    55   15   54 1
    56   16   55 1
    57   21   56 1
    58   21   57 1
    59   22   58 1
    60   22   59 1
    61   22   60 1
    62   24   61 1
    63   24   62 1
    64   25   63 1
    65   26   64 1
    66   28   65 1
    67   28   66 1
    68   28   67 1
    69   32   68 1
    70   33   69 1
    71   33   70 1
    72   34   71 1
    73   34   72 1
    74   35   73 1
    75   35   74 1
    76   36   75 1
    77   36   76 1
    78   39   77 1
    79   40   78 1
    80   44   79 1
    81   44   80 1
    82   45   81 1
    83   45   82 1
    84   47   83 1
    85   47   84 1
    86   48   85 1
    87   48   86 1
    88   48   87 1
@<TRIPOS>PROPERTY_DATA
  Total_Score	| 16.8994
  Crash		| -2.6469
  Polar		| 15.8762
  FragIndex	| 1
  FragRMSD	| 0.784

