@<TRIPOS>MOLECULE
BindingDB_13971
 68 69 0 0 0
SMALL
NO_CHARGES


@<TRIPOS>ATOM
1    C        34.5344   27.8257   23.2040  C     
2    O        34.5566   26.8777   23.9933  O     
3    C        34.9582   29.0520   23.6962  C     
4    O        36.1215   29.5962   23.2692  O     
5    O        34.2399   29.7245   24.6340  O     
6    C        33.8633   26.3320   21.4456  C     
7    C        34.3768   23.9467   21.1214  C     
8    C        33.1306   23.7442   20.5143  C     
9    C        32.2243   24.8037   20.3975  C     
10   C        32.5893   26.0804   20.8616  C     
11   C        34.7628   25.2292   21.5916  C     
12   C        36.0277   25.3404   22.2143  C     
13   O        36.8854   26.3529   21.9421  O     
14   O        36.5297   24.3157   22.9413  O     
15   N        34.1454   27.6197   21.9179  N     
16   C        33.7738   28.6966   21.1133  C     
17   C        32.1425   30.5063   20.7265  C     
18   C        32.5986   29.4123   21.4757  C     
19   C        32.8165   30.9070   19.5618  C     
20   C        32.3975   32.1131   18.8023  C     
21   C        30.8676   32.3031   18.5100  C     
22   N        30.6084   32.9792   17.2631  N     
23   C        30.0472   31.1100   18.6078  C     
24   O        30.4686   30.0565   18.1449  O     
25   N        28.8885   31.1686   19.2575  N     
26   C        27.9279   30.1212   19.3770  C     
27   C        27.2478   30.0960   20.7698  C     
28   C        26.4656   31.3872   21.1471  C     
29   C        26.4896   31.7169   22.6646  C     
30   C        25.2926   31.1518   23.4676  C     
31   C        30.8110   33.6511   14.9828  C     
32   C        31.3039   32.9288   16.1356  C     
33   O        32.3390   32.2838   16.0432  O     
34   C        34.0121   30.2269   19.2101  C     
35   C        34.4995   29.1202   19.9543  C     
36   C        35.7662   28.4788   19.4941  C     
37   C        37.0385   29.2689   19.8953  C     
38   H        35.0094   23.1444   21.1946  H     
39   H        32.8724   22.8170   20.1791  H     
40   H        31.3038   24.6510   19.9843  H     
41   H        31.8928   26.8238   20.7817  H     
42   H        31.2991   30.9929   21.0387  H     
43   H        32.0476   29.1120   22.2849  H     
44   H        32.7217   32.9708   19.3952  H     
45   H        32.9531   32.1650   17.8614  H     
46   H        30.5168   33.0122   19.2715  H     
47   H        29.7828   33.4909   17.2312  H     
48   H        28.6531   32.0247   19.6513  H     
49   H        27.1714   30.2480   18.6002  H     
50   H        28.4141   29.1522   19.2325  H     
51   H        26.5536   29.2538   20.7738  H     
52   H        28.0071   29.9068   21.5335  H     
53   H        26.9164   32.2411   20.6254  H     
54   H        25.4290   31.3044   20.8053  H     
55   H        27.4215   31.3424   23.1111  H     
56   H        26.4908   32.8083   22.7885  H     
57   H        24.3507   31.5450   23.0705  H     
58   H        25.3792   31.4482   24.5144  H     
59   H        25.2712   30.0627   23.4199  H     
60   H        29.8534   33.2330   14.6670  H     
61   H        31.5107   33.5876   14.1449  H     
62   H        30.6761   34.7026   15.2441  H     
63   H        34.5462   30.5453   18.3930  H     
64   H        35.8667   27.4697   19.8866  H     
65   H        35.7562   28.3655   18.4055  H     
66   H        36.9899   30.3047   19.5397  H     
67   H        37.9203   28.8003   19.4513  H     
68   H        37.1634   29.2749   20.9797  H     
@<TRIPOS>BOND
     1    1    2 2
     2    1    3 1
     3    1   15 am
     4    3    4 2
     5    3    5 1
     6    6   10 2
     7    6   11 1
     8    6   15 1
     9    7    8 1
    10    7   11 2
    11    8    9 2
    12    9   10 1
    13   11   12 1
    14   12   13 1
    15   12   14 2
    16   15   16 1
    17   16   18 1
    18   16   35 2
    19   17   18 2
    20   17   19 1
    21   19   20 1
    22   19   34 2
    23   20   21 1
    24   21   22 1
    25   21   23 1
    26   22   32 am
    27   23   24 2
    28   23   25 am
    29   25   26 1
    30   26   27 1
    31   27   28 1
    32   28   29 1
    33   29   30 1
    34   31   32 1
    35   32   33 2
    36   34   35 1
    37   35   36 1
    38   36   37 1
    39    7   38 1
    40    8   39 1
    41    9   40 1
    42   10   41 1
    43   17   42 1
    44   18   43 1
    45   20   44 1
    46   20   45 1
    47   21   46 1
    48   22   47 1
    49   25   48 1
    50   26   49 1
    51   26   50 1
    52   27   51 1
    53   27   52 1
    54   28   53 1
    55   28   54 1
    56   29   55 1
    57   29   56 1
    58   30   57 1
    59   30   58 1
    60   30   59 1
    61   31   60 1
    62   31   61 1
    63   31   62 1
    64   34   63 1
    65   36   64 1
    66   36   65 1
    67   37   66 1
    68   37   67 1
    69   37   68 1
@<TRIPOS>PROPERTY_DATA
  Total_Score	| 15.9000
  Crash		| -3.2768
  Polar		| 12.5094
  FragIndex	| 1
  FragRMSD	| 0.473

