@<TRIPOS>MOLECULE
BindingDB_15810
 85 87 0 0 0
SMALL
NO_CHARGES


@<TRIPOS>ATOM
1    C        33.7673   28.6863   21.1437  C     
2    C        34.4522   29.0858   19.9588  C     
3    C        33.9280   30.1746   19.2125  C     
4    C        32.1407   30.5114   20.8304  C     
5    C        32.6189   29.4125   21.5531  C     
6    N        34.1470   27.6090   21.9330  N     
7    C        34.5462   27.8588   23.2004  C     
8    O        34.6629   26.9426   24.0002  O     
9    C        34.9626   29.0702   23.6905  C     
10   O        34.2755   29.6888   24.6766  O     
11   O        36.1752   29.5701   23.3381  O     
12   C        33.8347   26.3275   21.4545  C     
13   C        34.4147   24.0822   20.6257  C     
14   C        33.1371   23.9139   20.0936  C     
15   C        32.1773   24.9096   20.2859  C     
16   C        32.5222   26.0954   20.9536  C     
17   C        34.7854   25.2507   21.3430  C     
18   C        36.0968   25.2327   21.8514  C     
19   O        37.1623   25.6323   21.1069  O     
20   O        36.3797   24.6139   23.0375  O     
21   C        35.7240   28.4552   19.4733  C     
22   C        36.9884   29.2137   19.9426  C     
23   C        32.7801   30.8858   19.6311  C     
24   C        32.2433   32.0272   18.8244  C     
25   C        30.7913   31.8424   18.2664  C     
26   N        30.4313   32.7898   17.2429  N     
27   C        31.0848   33.1861   16.1530  C     
28   C        30.4012   34.0709   15.2304  C     
29   O        32.2222   32.8133   15.8827  O     
30   C        30.4333   30.4971   17.8447  C     
31   O        31.1571   29.9195   17.0441  O     
32   N        29.3530   29.9195   18.3362  N     
33   C        28.8509   28.6255   18.0195  C     
34   C        27.3038   28.6341   17.8856  C     
35   C        26.6879   27.2960   17.4049  C     
36   C        26.3020   26.2699   18.5130  C     
37   C        25.1174   26.6181   19.2834  C     
38   O        24.0289   26.2081   18.8805  O     
39   N        25.2187   27.2916   20.4251  N     
40   C        24.1455   27.5851   21.3274  C     
41   C        23.6780   29.0620   21.2718  C     
42   C        24.6796   30.0191   21.7957  C     
43   C        25.5181   30.7584   20.9203  C     
44   C        26.4138   31.7159   21.4133  C     
45   C        26.5021   31.9524   22.8047  C     
46   C        25.6861   31.2179   23.6870  C     
47   C        24.7971   30.2543   23.1934  C     
48   H        34.4162   30.4783   18.3711  H     
49   H        31.3226   31.0224   21.1740  H     
50   H        32.1012   29.1403   22.4033  H     
51   H        35.0939   23.3073   20.4842  H     
52   H        32.9032   23.0538   19.5873  H     
53   H        31.2373   24.7865   19.9046  H     
54   H        31.8034   26.8122   21.0419  H     
55   H        35.8135   27.4361   19.8247  H     
56   H        35.7106   28.4207   18.3823  H     
57   H        36.9912   30.2350   19.5688  H     
58   H        37.8790   28.7153   19.5525  H     
59   H        37.0466   29.2285   21.0286  H     
60   H        32.2409   32.9052   19.4851  H     
61   H        32.9235   32.2397   18.0184  H     
62   H        30.1278   32.1148   19.0986  H     
63   H        29.5217   33.1299   17.3212  H     
64   H        29.5172   33.5569   14.8306  H     
65   H        31.0375   34.3470   14.3935  H     
66   H        30.0872   34.9833   15.7519  H     
67   H        28.8000   30.4400   18.9371  H     
68   H        29.3245   28.2206   17.1142  H     
69   H        29.1256   27.9673   18.8534  H     
70   H        26.8607   28.9140   18.8414  H     
71   H        27.0287   29.4086   17.1657  H     
72   H        25.8000   27.5300   16.8201  H     
73   H        27.3999   26.8187   16.7330  H     
74   H        26.1118   25.3089   18.0225  H     
75   H        27.1598   26.1052   19.1754  H     
76   H        26.1115   27.5612   20.6974  H     
77   H        23.3018   26.9256   21.1099  H     
78   H        24.4829   27.3507   22.3346  H     
79   H        23.4001   29.3100   20.2431  H     
80   H        22.7610   29.1617   21.8640  H     
81   H        25.4673   30.6037   19.9126  H     
82   H        26.9995   32.2492   20.7690  H     
83   H        27.1361   32.6620   23.1698  H     
84   H        25.7366   31.4072   24.6931  H     
85   H        24.2008   29.7460   23.8502  H     
@<TRIPOS>BOND
     1    1    2 2
     2    1    5 1
     3    1    6 1
     4    2    3 1
     5    2   21 1
     6    3   23 2
     7    4    5 2
     8    4   23 1
     9    6    7 am
    10    6   12 1
    11    7    8 2
    12    7    9 1
    13    9   10 2
    14    9   11 1
    15   12   16 2
    16   12   17 1
    17   13   14 1
    18   13   17 2
    19   14   15 2
    20   15   16 1
    21   17   18 1
    22   18   19 2
    23   18   20 1
    24   21   22 1
    25   23   24 1
    26   24   25 1
    27   25   26 1
    28   25   30 1
    29   26   27 am
    30   27   28 1
    31   27   29 2
    32   30   31 2
    33   30   32 am
    34   32   33 1
    35   33   34 1
    36   34   35 1
    37   35   36 1
    38   36   37 1
    39   37   38 2
    40   37   39 am
    41   39   40 1
    42   40   41 1
    43   41   42 1
    44   42   43 2
    45   42   47 1
    46   43   44 1
    47   44   45 2
    48   45   46 1
    49   46   47 2
    50    3   48 1
    51    4   49 1
    52    5   50 1
    53   13   51 1
    54   14   52 1
    55   15   53 1
    56   16   54 1
    57   21   55 1
    58   21   56 1
    59   22   57 1
    60   22   58 1
    61   22   59 1
    62   24   60 1
    63   24   61 1
    64   25   62 1
    65   26   63 1
    66   28   64 1
    67   28   65 1
    68   28   66 1
    69   32   67 1
    70   33   68 1
    71   33   69 1
    72   34   70 1
    73   34   71 1
    74   35   72 1
    75   35   73 1
    76   36   74 1
    77   36   75 1
    78   39   76 1
    79   40   77 1
    80   40   78 1
    81   41   79 1
    82   41   80 1
    83   43   81 1
    84   44   82 1
    85   45   83 1
    86   46   84 1
    87   47   85 1
@<TRIPOS>PROPERTY_DATA
  Total_Score	| 17.4452
  Crash		| -2.3508
  Polar		| 14.6162
  FragIndex	| 1
  FragRMSD	| 0.339

