@<TRIPOS>MOLECULE
BindingDB_13969
 63 64 0 0 0
SMALL
NO_CHARGES


@<TRIPOS>ATOM
1    C        34.5150   27.8638   23.2267  C     
2    O        34.6206   26.9520   24.0324  O     
3    C        34.9532   29.1020   23.6791  C     
4    O        36.1825   29.5727   23.3068  O     
5    O        34.3191   29.7469   24.6940  O     
6    C        33.7832   26.3690   21.4856  C     
7    C        34.3514   24.0070   21.0605  C     
8    C        33.1317   23.7987   20.4070  C     
9    C        32.2236   24.8572   20.2915  C     
10   C        32.5361   26.1208   20.8402  C     
11   C        34.7010   25.2776   21.5911  C     
12   C        35.9676   25.3831   22.1944  C     
13   O        36.7842   26.4354   21.9507  O     
14   O        36.4968   24.3709   22.9240  O     
15   N        34.0286   27.6543   21.9907  N     
16   C        33.5573   28.7257   21.2511  C     
17   C        32.3709   29.3842   21.6501  C     
18   C        31.8667   30.4843   20.9332  C     
19   C        33.7278   30.2898   19.3706  C     
20   C        34.2237   29.1912   20.0980  C     
21   C        32.5463   30.9565   19.7880  C     
22   C        32.0310   32.1407   19.0495  C     
23   C        31.1444   31.7979   17.8140  C     
24   N        30.7388   33.0277   17.2090  N     
25   C        29.9833   30.9964   18.1679  C     
26   O        29.9381   29.8273   17.8192  O     
27   N        29.0085   31.5292   18.8934  N     
28   C        27.8873   30.8222   19.4349  C     
29   C        26.7966   31.8019   19.9570  C     
30   C        26.0751   31.3464   21.2511  C     
31   C        26.9987   31.0028   22.4564  C     
32   C        26.6849   31.7969   23.7397  C     
33   C        29.8578   34.7891   15.1842  C     
34   S        30.8173   33.3070   15.5514  S     
35   O        32.3247   33.5694   15.1057  O     
36   O        30.1643   32.0984   14.7453  O     
37   H        34.9916   23.2070   21.1348  H     
38   H        32.9113   22.8896   20.0093  H     
39   H        31.3237   24.7170   19.8094  H     
40   H        31.8338   26.8504   20.7630  H     
41   H        31.8545   29.0546   22.4809  H     
42   H        31.0094   30.9339   21.2611  H     
43   H        34.2312   30.6172   18.5550  H     
44   H        35.0790   28.7255   19.7785  H     
45   H        31.4593   32.7997   19.7174  H     
46   H        32.8924   32.7144   18.7169  H     
47   H        31.7761   31.2537   17.1029  H     
48   H        30.1518   33.6112   17.7214  H     
49   H        29.0723   32.4747   19.0965  H     
50   H        27.4394   30.1846   18.6653  H     
51   H        28.2456   30.1803   20.2432  H     
52   H        27.2399   32.7953   20.1316  H     
53   H        26.0490   31.9122   19.1679  H     
54   H        25.3873   32.1371   21.5577  H     
55   H        25.4665   30.4653   21.0131  H     
56   H        26.8676   29.9404   22.6836  H     
57   H        28.0424   31.1514   22.1899  H     
58   H        26.9524   32.8499   23.6165  H     
59   H        27.2673   31.3974   24.5799  H     
60   H        25.6226   31.7296   23.9918  H     
61   H        28.8242   34.6400   15.5044  H     
62   H        29.8833   34.9871   14.1136  H     
63   H        30.2822   35.6393   15.7244  H     
@<TRIPOS>BOND
     1    1    2 2
     2    1    3 1
     3    1   15 am
     4    3    4 2
     5    3    5 1
     6    6   10 2
     7    6   11 1
     8    6   15 1
     9    7    8 1
    10    7   11 2
    11    8    9 2
    12    9   10 1
    13   11   12 1
    14   12   13 1
    15   12   14 2
    16   15   16 1
    17   16   17 2
    18   16   20 1
    19   17   18 1
    20   18   21 2
    21   19   20 2
    22   19   21 1
    23   21   22 1
    24   22   23 1
    25   23   24 1
    26   23   25 1
    27   24   34 1
    28   25   26 2
    29   25   27 am
    30   27   28 1
    31   28   29 1
    32   29   30 1
    33   30   31 1
    34   31   32 1
    35   33   34 1
    36   34   35 2
    37   34   36 2
    38    7   37 1
    39    8   38 1
    40    9   39 1
    41   10   40 1
    42   17   41 1
    43   18   42 1
    44   19   43 1
    45   20   44 1
    46   22   45 1
    47   22   46 1
    48   23   47 1
    49   24   48 1
    50   27   49 1
    51   28   50 1
    52   28   51 1
    53   29   52 1
    54   29   53 1
    55   30   54 1
    56   30   55 1
    57   31   56 1
    58   31   57 1
    59   32   58 1
    60   32   59 1
    61   32   60 1
    62   33   61 1
    63   33   62 1
    64   33   63 1
@<TRIPOS>PROPERTY_DATA
  Total_Score	| 17.7178
  Crash		| -2.5899
  Polar		| 12.7988
  FragIndex	| 1
  FragRMSD	| 0.369

