@<TRIPOS>MOLECULE
BindingDB_15809
 67 68 0 0 0
SMALL
NO_CHARGES


@<TRIPOS>ATOM
1    C        33.6230   28.7811   21.2024  C     
2    C        34.2709   29.2904   20.0429  C     
3    C        33.6985   30.4099   19.3769  C     
4    C        31.8365   30.4636   20.9283  C     
5    C        32.4203   29.4027   21.6382  C     
6    N        34.0789   27.6912   21.9358  N     
7    C        34.5092   27.8939   23.2016  C     
8    O        34.5403   26.9741   24.0113  O     
9    C        34.9489   29.1182   23.6894  C     
10   O        36.1288   29.6308   23.2699  O     
11   O        34.2823   29.7921   24.6593  O     
12   C        33.8047   26.4122   21.4361  C     
13   C        34.3216   24.0266   21.0725  C     
14   C        33.0977   23.8401   20.4118  C     
15   C        32.2143   24.9135   20.2727  C     
16   C        32.5617   26.1736   20.7910  C     
17   C        34.7025   25.2998   21.5780  C     
18   C        35.9842   25.3862   22.1806  C     
19   O        36.8260   26.4175   21.9411  O     
20   O        36.4938   24.3782   22.9250  O     
21   C        35.4819   28.6622   19.4267  C     
22   C        36.8037   29.3947   19.7469  C     
23   C        32.4666   30.9863   19.7809  C     
24   C        31.8485   32.0962   19.0032  C     
25   C        31.0586   31.6515   17.7287  C     
26   N        30.5276   32.8399   17.0861  N     
27   C        30.9830   33.6400   16.1352  C     
28   C        30.1774   34.7807   15.7376  C     
29   O        32.0788   33.4669   15.5988  O     
30   C        31.8097   30.7372   16.8698  C     
31   O        31.3513   29.6197   16.6087  O     
32   N        32.9737   31.1116   16.3676  N     
33   C        33.8958   30.3019   15.6341  C     
34   C        34.6962   31.1822   14.6330  C     
35   C        35.9419   30.4794   14.0195  C     
36   C        37.0765   30.1465   15.0458  C     
37   C        37.0312   28.7789   15.5832  C     
38   O        36.0168   27.9390   15.2596  O     
39   O        38.0891   28.2817   16.2574  O     
40   H        34.1682   30.7868   18.5412  H     
41   H        30.9431   30.8477   21.2461  H     
42   H        31.9291   29.0414   22.4590  H     
43   H        34.9469   23.2159   21.1551  H     
44   H        32.8578   22.9215   20.0309  H     
45   H        31.3175   24.7756   19.8009  H     
46   H        31.8649   26.9121   20.6989  H     
47   H        35.5830   27.6293   19.7412  H     
48   H        35.3512   28.6280   18.3443  H     
49   H        36.7374   30.4528   19.4929  H     
50   H        37.6132   28.9474   19.1653  H     
51   H        37.0488   29.2955   20.8045  H     
52   H        31.1698   32.6537   19.6482  H     
53   H        32.6200   32.7987   18.7047  H     
54   H        30.1703   31.1153   18.0902  H     
55   H        29.6463   33.0852   17.4223  H     
56   H        29.2591   34.4301   15.2618  H     
57   H        30.7103   35.4211   15.0257  H     
58   H        29.9207   35.3801   16.6160  H     
59   H        33.2436   32.0278   16.5362  H     
60   H        34.5757   29.7965   16.3298  H     
61   H        33.3523   29.5352   15.0701  H     
62   H        34.0114   31.4522   13.8253  H     
63   H        34.9910   32.1161   15.1219  H     
64   H        35.6245   29.5809   13.4760  H     
65   H        36.3644   31.1474   13.2644  H     
66   H        38.0466   30.2789   14.5574  H     
67   H        37.0498   30.8428   15.8886  H     
@<TRIPOS>BOND
     1    1    2 2
     2    1    5 1
     3    1    6 1
     4    2    3 1
     5    2   21 1
     6    3   23 2
     7    4    5 2
     8    4   23 1
     9    6    7 am
    10    6   12 1
    11    7    8 2
    12    7    9 1
    13    9   10 2
    14    9   11 1
    15   12   16 2
    16   12   17 1
    17   13   14 1
    18   13   17 2
    19   14   15 2
    20   15   16 1
    21   17   18 1
    22   18   19 2
    23   18   20 1
    24   21   22 1
    25   23   24 1
    26   24   25 1
    27   25   26 1
    28   25   30 1
    29   26   27 am
    30   27   28 1
    31   27   29 2
    32   30   31 2
    33   30   32 am
    34   32   33 1
    35   33   34 1
    36   34   35 1
    37   35   36 1
    38   36   37 1
    39   37   38 2
    40   37   39 1
    41    3   40 1
    42    4   41 1
    43    5   42 1
    44   13   43 1
    45   14   44 1
    46   15   45 1
    47   16   46 1
    48   21   47 1
    49   21   48 1
    50   22   49 1
    51   22   50 1
    52   22   51 1
    53   24   52 1
    54   24   53 1
    55   25   54 1
    56   26   55 1
    57   28   56 1
    58   28   57 1
    59   28   58 1
    60   32   59 1
    61   33   60 1
    62   33   61 1
    63   34   62 1
    64   34   63 1
    65   35   64 1
    66   35   65 1
    67   36   66 1
    68   36   67 1
@<TRIPOS>PROPERTY_DATA
  Total_Score	| 17.3688
  Crash		| -2.0792
  Polar		| 16.3162
  FragIndex	| 1
  FragRMSD	| 0.120

