@<TRIPOS>MOLECULE
BindingDB_15820
 86 87 0 0 0
SMALL
NO_CHARGES


@<TRIPOS>ATOM
1    C        33.6974   28.7077   21.1671  C     
2    C        34.3677   29.1205   19.9802  C     
3    C        33.8369   30.2157   19.2460  C     
4    C        32.0459   30.5095   20.8497  C     
5    C        32.5382   29.4144   21.5839  C     
6    N        34.0852   27.6244   21.9507  N     
7    C        34.5100   27.8491   23.2160  C     
8    O        34.4878   26.9546   24.0551  O     
9    C        34.9670   29.0765   23.6844  C     
10   O        34.2896   29.7763   24.6236  O     
11   O        36.0997   29.6307   23.1945  O     
12   C        33.8022   26.3321   21.4712  C     
13   C        34.3924   23.9909   20.9667  C     
14   C        33.1597   23.7921   20.3337  C     
15   C        32.2240   24.8295   20.3077  C     
16   C        32.5405   26.0764   20.8724  C     
17   C        34.7344   25.2462   21.5435  C     
18   C        36.0101   25.3454   22.1501  C     
19   O        36.5860   24.2865   22.7664  O     
20   O        36.7658   26.4636   22.0784  O     
21   C        35.6043   28.4768   19.4610  C     
22   C        36.8981   29.2421   19.8275  C     
23   C        32.6830   30.9219   19.6661  C     
24   C        32.1554   32.0894   18.8951  C     
25   C        30.5970   32.1604   18.6590  C     
26   N        30.2453   32.5446   17.3213  N     
27   C        30.6866   31.9985   16.2001  C     
28   C        30.1544   32.4460   14.9352  C     
29   O        31.5985   31.1620   16.2374  O     
30   C        29.7886   30.9964   19.0181  C     
31   O        30.1598   29.8834   18.6811  O     
32   N        28.6295   31.1565   19.6645  N     
33   C        27.7899   30.0864   20.1063  C     
34   C        26.4653   30.5714   20.7590  C     
35   C        26.5266   30.7495   22.3045  C     
36   C        25.1351   31.0668   22.9368  C     
37   C        24.2735   29.9275   23.2411  C     
38   O        24.7364   28.7955   23.2458  O     
39   N        22.9890   30.1344   23.5372  N     
40   C        22.0212   29.1513   23.9693  C     
41   C        21.9427   27.9897   23.0409  C     
42   O        21.4620   28.1515   21.7857  O     
43   O        22.1271   26.7302   23.5100  O     
44   C        20.5964   29.7886   24.1781  C     
45   C        20.1215   29.8565   25.6588  C     
46   C        21.2063   30.3500   28.4380  C     
47   S        21.2213   30.8411   26.7032  S     
48   O        22.7022   30.5928   26.1976  O     
49   O        20.8940   32.3939   26.5663  O     
50   H        34.3091   30.5121   18.3851  H     
51   H        31.2271   31.0106   21.1999  H     
52   H        32.0380   29.1392   22.4362  H     
53   H        35.0545   23.2134   20.9688  H     
54   H        32.9441   22.8938   19.8891  H     
55   H        31.3148   24.6844   19.8633  H     
56   H        31.8244   26.8025   20.8427  H     
57   H        35.7170   27.4612   19.8227  H     
58   H        35.5278   28.3947   18.3764  H     
59   H        36.8415   30.2885   19.5292  H     
60   H        37.7482   28.7880   19.3211  H     
61   H        37.0799   29.1960   20.8998  H     
62   H        32.4537   32.9825   19.4606  H     
63   H        32.6551   32.1318   17.9101  H     
64   H        30.2411   32.9936   19.2717  H     
65   H        29.5415   33.2140   17.2554  H     
66   H        29.0962   32.1573   14.8809  H     
67   H        30.6907   31.9930   14.0932  H     
68   H        30.2465   33.5396   14.8614  H     
69   H        28.3467   32.0592   19.8823  H     
70   H        27.5290   29.4571   19.2450  H     
71   H        28.3460   29.4721   20.8243  H     
72   H        26.1681   31.5165   20.2922  H     
73   H        25.6978   29.8290   20.5212  H     
74   H        26.9234   29.8320   22.7559  H     
75   H        27.2201   31.5667   22.5409  H     
76   H        25.3057   31.5988   23.8735  H     
77   H        24.6086   31.7569   22.2712  H     
78   H        22.6898   31.0562   23.5037  H     
79   H        22.3854   28.7542   24.9182  H     
80   H        20.5662   30.7959   23.7583  H     
81   H        19.8375   29.2248   23.6316  H     
82   H        19.1304   30.3121   25.7089  H     
83   H        20.0526   28.8505   26.0741  H     
84   H        20.1854   30.3023   28.8073  H     
85   H        21.7737   31.0719   29.0252  H     
86   H        21.6650   29.3687   28.5327  H     
@<TRIPOS>BOND
     1    1    2 2
     2    1    5 1
     3    1    6 1
     4    2    3 1
     5    2   21 1
     6    3   23 2
     7    4    5 2
     8    4   23 1
     9    6    7 am
    10    6   12 1
    11    7    8 2
    12    7    9 1
    13    9   10 2
    14    9   11 1
    15   12   16 2
    16   12   17 1
    17   13   14 1
    18   13   17 2
    19   14   15 2
    20   15   16 1
    21   17   18 1
    22   18   19 2
    23   18   20 1
    24   21   22 1
    25   23   24 1
    26   24   25 1
    27   25   26 1
    28   25   30 1
    29   26   27 am
    30   27   28 1
    31   27   29 2
    32   30   31 2
    33   30   32 am
    34   32   33 1
    35   33   34 1
    36   34   35 1
    37   35   36 1
    38   36   37 1
    39   37   38 2
    40   37   39 am
    41   39   40 1
    42   40   41 1
    43   40   44 1
    44   41   42 2
    45   41   43 1
    46   44   45 1
    47   45   47 1
    48   46   47 1
    49   47   48 2
    50   47   49 2
    51    3   50 1
    52    4   51 1
    53    5   52 1
    54   13   53 1
    55   14   54 1
    56   15   55 1
    57   16   56 1
    58   21   57 1
    59   21   58 1
    60   22   59 1
    61   22   60 1
    62   22   61 1
    63   24   62 1
    64   24   63 1
    65   25   64 1
    66   26   65 1
    67   28   66 1
    68   28   67 1
    69   28   68 1
    70   32   69 1
    71   33   70 1
    72   33   71 1
    73   34   72 1
    74   34   73 1
    75   35   74 1
    76   35   75 1
    77   36   76 1
    78   36   77 1
    79   39   78 1
    80   40   79 1
    81   44   80 1
    82   44   81 1
    83   45   82 1
    84   45   83 1
    85   46   84 1
    86   46   85 1
    87   46   86 1
@<TRIPOS>PROPERTY_DATA
  Total_Score	| 19.0178
  Crash		| -5.0958
  Polar		| 17.9410
  FragIndex	| 1
  FragRMSD	| 0.829

