@<TRIPOS>MOLECULE
BindingDB_50254449
 35 34 0 0 0
SMALL
NO_CHARGES


@<TRIPOS>ATOM
1    C         2.8023  -19.2261  -19.5072  C     
2    C         2.6973  -19.9609  -20.8743  C     
3    C         1.6570  -19.5735  -18.5263  C     
4    N         1.8469  -20.8565  -17.9211  N     
5    C         2.1694  -21.0976  -16.6283  C     
6    N         2.5449  -20.0897  -15.8008  N     
7    C         2.1264  -22.4922  -16.1293  C     
8    C         3.4877  -19.2647  -22.0166  C     
9    C         4.9484  -19.2639  -21.7903  C     
10   N         3.1873  -19.8950  -23.3110  N     
11   O         5.6861  -20.3708  -22.0287  O     
12   O         5.5124  -18.2593  -21.0711  O     
13   C         1.1699  -22.6541  -15.0474  C     
14   C         1.2777  -22.0411  -13.8571  C     
15   C         0.1707  -22.0070  -12.9374  C     
16   H         3.7546  -19.4610  -19.0318  H     
17   H         2.7726  -18.1486  -19.6862  H     
18   H         3.0338  -20.9988  -20.7634  H     
19   H         1.6480  -19.9972  -21.1743  H     
20   H         1.5843  -18.7666  -17.7910  H     
21   H         0.7026  -19.5869  -19.0495  H     
22   H         1.6597  -21.6312  -18.4866  H     
23   H         2.7807  -20.2815  -14.8772  H     
24   H         1.8400  -23.1722  -16.9462  H     
25   H         3.1147  -22.8128  -15.7998  H     
26   H         3.1503  -18.2272  -22.0879  H     
27   H         3.4911  -20.8756  -23.2965  H     
28   H         3.6726  -19.3989  -24.0661  H     
29   H         2.1768  -19.8575  -23.4728  H     
30   H         0.3478  -23.1875  -15.2443  H     
31   H         2.1059  -21.5450  -13.6180  H     
32   H        -0.7184  -21.6396  -13.4474  H     
33   H         0.3909  -21.3464  -12.1020  H     
34   H         0.0011  -23.0187  -12.5758  H     
35   H         2.6447  -19.1897  -16.1305  H     
@<TRIPOS>BOND
     1    1    2 1
     2    1    3 1
     3    2    8 1
     4    3    4 1
     5    4    5 1
     6    5    6 2
     7    5    7 1
     8    7   13 1
     9    8    9 1
    10    8   10 1
    11    9   11 1
    12    9   12 2
    13   13   14 2
    14   14   15 1
    15    1   16 1
    16    1   17 1
    17    2   18 1
    18    2   19 1
    19    3   20 1
    20    3   21 1
    21    4   22 1
    22    6   23 1
    23    7   24 1
    24    7   25 1
    25    8   26 1
    26   10   27 1
    27   10   28 1
    28   10   29 1
    29   13   30 1
    30   14   31 1
    31   15   32 1
    32   15   33 1
    33   15   34 1
    34    6   35 1
@<TRIPOS>PROPERTY_DATA
  Total_Score	| 10.5680
  Crash		| -3.5052
  Polar		| 7.9038
  FragIndex	| 1
  FragRMSD	| 1.082

