@<TRIPOS>MOLECULE
BindingDB_50240714
 34 33 0 0 0
SMALL
NO_CHARGES


@<TRIPOS>ATOM
1    C         3.0984  -19.6817  -19.1605  C     
2    C         2.8057  -20.2288  -20.5941  C     
3    C         2.4151  -20.4394  -17.9840  C     
4    N         2.1987  -19.5345  -16.8970  N     
5    C         1.8824  -19.7806  -15.6033  C     
6    N         1.5122  -18.7039  -14.8764  N     
7    N         1.9457  -21.0412  -15.0959  N     
8    C         3.4521  -19.3563  -21.7152  C     
9    C         4.9070  -19.3030  -21.6025  C     
10   N         3.0482  -19.8056  -23.0615  N     
11   O         5.4991  -18.2910  -20.9213  O     
12   O         5.7182  -20.2501  -22.1505  O     
13   C         1.6353  -21.4442  -13.7506  C     
14   C         0.4838  -22.3008  -13.7804  C     
15   C         0.5504  -23.6049  -14.1208  C     
16   H         4.1817  -19.7094  -18.9739  H     
17   H         2.7917  -18.6211  -19.1359  H     
18   H         3.1693  -21.2643  -20.6657  H     
19   H         1.7225  -20.2529  -20.7269  H     
20   H         1.4560  -20.8454  -18.3078  H     
21   H         3.0591  -21.2653  -17.6648  H     
22   H         2.2450  -18.5854  -17.1352  H     
23   H         1.2253  -18.8260  -13.9474  H     
24   H         2.2492  -21.7420  -15.7118  H     
25   H         3.0554  -18.3475  -21.6233  H     
26   H         3.6587  -20.5576  -23.4031  H     
27   H         3.1066  -19.0181  -23.7143  H     
28   H         2.0927  -20.1523  -23.0462  H     
29   H         2.5174  -21.9690  -13.3360  H     
30   H         1.4230  -20.6027  -13.0926  H     
31   H        -0.4105  -21.9185  -13.5767  H     
32   H        -0.2777  -24.1415  -14.2089  H     
33   H         1.4365  -24.0224  -14.3479  H     
34   H         1.4647  -17.8298  -15.3175  H     
@<TRIPOS>BOND
     1    1    2 1
     2    1    3 1
     3    2    8 1
     4    3    4 1
     5    4    5 1
     6    5    6 2
     7    5    7 1
     8    7   13 1
     9    8    9 1
    10    8   10 1
    11    9   11 1
    12    9   12 2
    13   13   14 1
    14   14   15 2
    15    1   16 1
    16    1   17 1
    17    2   18 1
    18    2   19 1
    19    3   20 1
    20    3   21 1
    21    4   22 1
    22    6   23 1
    23    7   24 1
    24    8   25 1
    25   10   26 1
    26   10   27 1
    27   10   28 1
    28   13   29 1
    29   13   30 1
    30   14   31 1
    31   15   32 1
    32   15   33 1
    33    6   34 1
@<TRIPOS>PROPERTY_DATA
  Total_Score	| 12.4150
  Crash		| -2.9251
  Polar		| 8.3171
  FragIndex	| 1
  FragRMSD	| 1.072

