@<TRIPOS>MOLECULE
BindingDB_50255074
 34 33 0 0 0
SMALL
NO_CHARGES


@<TRIPOS>ATOM
1    C         2.8524  -19.7528  -19.3701  C     
2    C         2.7418  -20.2708  -20.8321  C     
3    C         2.3089  -20.7452  -18.3175  C     
4    N         2.5188  -20.2356  -16.9999  N     
5    C         1.9908  -20.7284  -15.8562  C     
6    N         1.8320  -19.8173  -14.8790  N     
7    C         1.6559  -22.1738  -15.6928  C     
8    C         3.4502  -19.3474  -21.8684  C     
9    C         4.9122  -19.3000  -21.6534  C     
10   N         3.1627  -19.7702  -23.2535  N     
11   O         5.6654  -20.4012  -21.8568  O     
12   O         5.4643  -18.2580  -21.0001  O     
13   C         1.3069  -22.7416  -14.2889  C     
14   C         2.1420  -22.1743  -13.1132  C     
15   H         3.8975  -19.5419  -19.1231  H     
16   H         2.3026  -18.8089  -19.3032  H     
17   H         3.1640  -21.2787  -20.8987  H     
18   H         1.6777  -20.3329  -21.0926  H     
19   H         1.2399  -20.8850  -18.4724  H     
20   H         2.8191  -21.7022  -18.4378  H     
21   H         3.0107  -19.4112  -16.9302  H     
22   H         1.3854  -20.0363  -14.0483  H     
23   H         0.8057  -22.3964  -16.3476  H     
24   H         2.5118  -22.7531  -16.0671  H     
25   H         3.0480  -18.3410  -21.7618  H     
26   H         3.8286  -20.4786  -23.5676  H     
27   H         3.2275  -18.9701  -23.8874  H     
28   H         2.2309  -20.1791  -23.3120  H     
29   H         0.2358  -22.5992  -14.0820  H     
30   H         1.4920  -23.8248  -14.3262  H     
31   H         3.0913  -21.7712  -13.4691  H     
32   H         2.3583  -22.9559  -12.3783  H     
33   H         1.5822  -21.3800  -12.6236  H     
34   H         2.2476  -18.9513  -14.9579  H     
@<TRIPOS>BOND
     1    1    2 1
     2    1    3 1
     3    2    8 1
     4    3    4 1
     5    4    5 1
     6    5    6 2
     7    5    7 1
     8    7   13 1
     9    8    9 1
    10    8   10 1
    11    9   11 1
    12    9   12 2
    13   13   14 1
    14    1   15 1
    15    1   16 1
    16    2   17 1
    17    2   18 1
    18    3   19 1
    19    3   20 1
    20    4   21 1
    21    6   22 1
    22    7   23 1
    23    7   24 1
    24    8   25 1
    25   10   26 1
    26   10   27 1
    27   10   28 1
    28   13   29 1
    29   13   30 1
    30   14   31 1
    31   14   32 1
    32   14   33 1
    33    6   34 1
@<TRIPOS>PROPERTY_DATA
  Total_Score	| 12.2298
  Crash		| -3.5778
  Polar		| 10.4277
  FragIndex	| 1
  FragRMSD	| 0.583

