@<TRIPOS>MOLECULE
BindingDB_50240959
 37 36 0 0 0
SMALL
NO_CHARGES


@<TRIPOS>ATOM
1    C         3.1630  -19.7215  -19.1256  C     
2    C         2.7631  -20.2270  -20.5498  C     
3    C         2.5429  -20.4983  -17.9394  C     
4    N         2.3120  -19.6412  -16.8144  N     
5    C         2.0110  -19.9886  -15.5424  C     
6    N         1.5002  -18.9867  -14.8007  N     
7    N         2.1930  -21.2506  -15.0907  N     
8    C         3.3936  -19.3991  -21.6976  C     
9    C         4.8618  -19.3432  -21.5910  C     
10   N         3.0041  -19.9077  -23.0199  N     
11   O         5.6115  -20.4463  -21.8079  O     
12   O         5.4433  -18.2776  -21.0007  O     
13   C         2.0158  -21.7171  -13.7570  C     
14   C         1.4645  -23.1580  -13.6629  C     
15   O         1.5952  -23.9649  -14.8587  O     
16   C         0.7762  -23.5526  -15.9607  C     
17   H         4.2585  -19.7601  -19.0315  H     
18   H         2.8863  -18.6532  -19.0662  H     
19   H         3.0323  -21.2850  -20.6421  H     
20   H         1.6646  -20.1652  -20.6212  H     
21   H         1.5666  -20.8916  -18.2069  H     
22   H         3.2025  -21.3377  -17.6866  H     
23   H         2.2976  -18.6928  -17.0125  H     
24   H         1.2337  -19.1346  -13.8786  H     
25   H         2.6887  -21.8393  -15.6718  H     
26   H         3.0013  -18.3874  -21.6434  H     
27   H         3.5531  -20.7296  -23.2724  H     
28   H         3.1468  -19.1826  -23.7234  H     
29   H         2.0131  -20.1600  -23.0106  H     
30   H         3.0011  -21.7064  -13.2886  H     
31   H         1.3597  -21.0694  -13.1591  H     
32   H         2.0585  -23.6784  -12.9082  H     
33   H         0.4367  -23.1531  -13.2856  H     
34   H        -0.2545  -23.3804  -15.6379  H     
35   H         0.7747  -24.3550  -16.6976  H     
36   H         1.1637  -22.6433  -16.4248  H     
37   H         1.3631  -18.1137  -15.2125  H     
@<TRIPOS>BOND
     1    1    2 1
     2    1    3 1
     3    2    8 1
     4    3    4 1
     5    4    5 1
     6    5    6 2
     7    5    7 1
     8    7   13 1
     9    8    9 1
    10    8   10 1
    11    9   11 1
    12    9   12 2
    13   13   14 1
    14   14   15 1
    15   15   16 1
    16    1   17 1
    17    1   18 1
    18    2   19 1
    19    2   20 1
    20    3   21 1
    21    3   22 1
    22    4   23 1
    23    6   24 1
    24    7   25 1
    25    8   26 1
    26   10   27 1
    27   10   28 1
    28   10   29 1
    29   13   30 1
    30   13   31 1
    31   14   32 1
    32   14   33 1
    33   16   34 1
    34   16   35 1
    35   16   36 1
    36    6   37 1
@<TRIPOS>PROPERTY_DATA
  Total_Score	| 12.1500
  Crash		| -4.2183
  Polar		| 8.5021
  FragIndex	| 1
  FragRMSD	| 0.369

