@<TRIPOS>MOLECULE
BindingDB_50240715
 32 31 0 0 0
SMALL
NO_CHARGES


@<TRIPOS>ATOM
1    C         3.3757  -19.3661  -21.7785  C     
2    C         2.6071  -20.2327  -20.7345  C     
3    N         3.1420  -19.8373  -23.1560  N     
4    C         4.8273  -19.3402  -21.5138  C     
5    O         5.5761  -20.4535  -21.6800  O     
6    O         5.3876  -18.2715  -20.9054  O     
7    C         2.7011  -19.6814  -19.2847  C     
8    C         2.2951  -20.7094  -18.1968  C     
9    N         2.5967  -20.1977  -16.8988  N     
10   C         2.1196  -20.6388  -15.7095  C     
11   C         1.8541  -22.0784  -15.4197  C     
12   N         1.8890  -19.6659  -14.8036  N     
13   C         1.4688  -22.3660  -14.0447  C     
14   C         0.2353  -22.7218  -13.6757  C     
15   H         2.9851  -18.3463  -21.7295  H     
16   H         1.5562  -20.2761  -21.0221  H     
17   H         2.9949  -21.2498  -20.7526  H     
18   H         3.8106  -20.5638  -23.4149  H     
19   H         3.2402  -19.0588  -23.8073  H     
20   H         2.2009  -20.2214  -23.2350  H     
21   H         3.7352  -19.3838  -19.0876  H     
22   H         2.0772  -18.7884  -19.1999  H     
23   H         1.2202  -20.9004  -18.2549  H     
24   H         2.8342  -21.6448  -18.3689  H     
25   H         3.1239  -19.3871  -16.8756  H     
26   H         1.1010  -22.4394  -16.1276  H     
27   H         2.7708  -22.6415  -15.6165  H     
28   H         1.4353  -19.8488  -13.9647  H     
29   H         2.1674  -22.2954  -13.3375  H     
30   H         0.0351  -22.8816  -12.7219  H     
31   H        -0.4989  -22.8101  -14.3377  H     
32   H         2.1942  -18.7640  -14.9825  H     
@<TRIPOS>BOND
     1    1    2 1
     2    1    3 1
     3    1    4 1
     4    2    7 1
     5    4    5 1
     6    4    6 2
     7    7    8 1
     8    8    9 1
     9    9   10 1
    10   10   11 1
    11   10   12 2
    12   11   13 1
    13   13   14 2
    14    1   15 1
    15    2   16 1
    16    2   17 1
    17    3   18 1
    18    3   19 1
    19    3   20 1
    20    7   21 1
    21    7   22 1
    22    8   23 1
    23    8   24 1
    24    9   25 1
    25   11   26 1
    26   11   27 1
    27   12   28 1
    28   13   29 1
    29   14   30 1
    30   14   31 1
    31   12   32 1
@<TRIPOS>PROPERTY_DATA
  Total_Score	| 12.4343
  Crash		| -2.1024
  Polar		| 9.7735
  FragIndex	| 1
  FragRMSD	| 0.455

