@<TRIPOS>MOLECULE
BindingDB_50254452
 32 31 0 0 0
SMALL
NO_CHARGES


@<TRIPOS>ATOM
1    C         3.1015  -19.5849  -19.1191  C     
2    C         2.7760  -20.1585  -20.5266  C     
3    C         2.4689  -20.3864  -17.9497  C     
4    N         2.2712  -19.5181  -16.8259  N     
5    C         1.9514  -19.8375  -15.5577  C     
6    N         1.5217  -18.8092  -14.7965  N     
7    N         2.0725  -21.0995  -15.0822  N     
8    C         3.4268  -19.3352  -21.6854  C     
9    C         4.8974  -19.2994  -21.5615  C     
10   N         3.0411  -19.8802  -23.0008  N     
11   O         5.6618  -20.3793  -21.8637  O     
12   O         5.4939  -18.2216  -21.0046  O     
13   C         1.7902  -21.5711  -13.7632  C     
14   C         0.9346  -22.6141  -13.8844  C     
15   C         0.1787  -23.5335  -14.0129  C     
16   H         4.1869  -19.5627  -18.9678  H     
17   H         2.7356  -18.5516  -19.0847  H     
18   H         3.1056  -21.1978  -20.5808  H     
19   H         1.6854  -20.1558  -20.6536  H     
20   H         1.4994  -20.7909  -18.2553  H     
21   H         3.1360  -21.2126  -17.6754  H     
22   H         2.2779  -18.5737  -17.0277  H     
23   H         1.2211  -18.9624  -13.8798  H     
24   H         2.4506  -21.7521  -15.6990  H     
25   H         3.0280  -18.3140  -21.6552  H     
26   H         3.5399  -20.7650  -23.1740  H     
27   H         3.2737  -19.1999  -23.7310  H     
28   H         2.0313  -20.0529  -23.0254  H     
29   H         2.7177  -21.9294  -13.3004  H     
30   H         1.3318  -20.8154  -13.1241  H     
31   H        -0.4002  -24.2256  -14.1282  H     
32   H         1.4310  -17.9186  -15.2045  H     
@<TRIPOS>BOND
     1    1    2 1
     2    1    3 1
     3    2    8 1
     4    3    4 1
     5    4    5 1
     6    5    6 2
     7    5    7 1
     8    7   13 1
     9    8    9 1
    10    8   10 1
    11    9   11 1
    12    9   12 2
    13   13   14 1
    14   14   15 3
    15    1   16 1
    16    1   17 1
    17    2   18 1
    18    2   19 1
    19    3   20 1
    20    3   21 1
    21    4   22 1
    22    6   23 1
    23    7   24 1
    24    8   25 1
    25   10   26 1
    26   10   27 1
    27   10   28 1
    28   13   29 1
    29   13   30 1
    30   15   31 1
    31    6   32 1
@<TRIPOS>PROPERTY_DATA
  Total_Score	| 11.6295
  Crash		| -2.8908
  Polar		| 7.6617
  FragIndex	| 1
  FragRMSD	| 0.421

