@<TRIPOS>MOLECULE
BindingDB_50254450
 31 30 0 0 0
SMALL
NO_CHARGES


@<TRIPOS>ATOM
1    C         2.9501  -19.6519  -19.3794  C     
2    C         2.7675  -20.2277  -20.8277  C     
3    C         1.7448  -19.8458  -18.4275  C     
4    N         1.8460  -21.0002  -17.5808  N     
5    C         1.9525  -20.9936  -16.2247  C     
6    N         2.2315  -19.8759  -15.5233  N     
7    C         1.7993  -22.2884  -15.5095  C     
8    C         3.4243  -19.3549  -21.9398  C     
9    C         4.8934  -19.2803  -21.8060  C     
10   N         3.0629  -19.8383  -23.2831  N     
11   O         5.6825  -20.2985  -22.2306  O     
12   O         5.4364  -18.3068  -21.0442  O     
13   C         1.6461  -22.2503  -13.9670  C     
14   H         3.8590  -20.0832  -18.9326  H     
15   H         3.1469  -18.5704  -19.4687  H     
16   H         3.1659  -21.2509  -20.8583  H     
17   H         1.6986  -20.2817  -21.0667  H     
18   H         1.6254  -18.9164  -17.8560  H     
19   H         0.8328  -19.9340  -19.0206  H     
20   H         1.6654  -21.8473  -18.0153  H     
21   H         2.2986  -19.9304  -14.5554  H     
22   H         0.9159  -22.8123  -15.8894  H     
23   H         2.6604  -22.9150  -15.7374  H     
24   H         3.0158  -18.3459  -21.8667  H     
25   H         3.5927  -20.6876  -23.5250  H     
26   H         3.2552  -19.0975  -23.9721  H     
27   H         2.0569  -20.0564  -23.3133  H     
28   H         2.5449  -21.8700  -13.4944  H     
29   H         1.4721  -23.2550  -13.5807  H     
30   H         0.8093  -21.6218  -13.6700  H     
31   H         2.4918  -19.0574  -15.9617  H     
@<TRIPOS>BOND
     1    1    2 1
     2    1    3 1
     3    2    8 1
     4    3    4 1
     5    4    5 1
     6    5    6 2
     7    5    7 1
     8    7   13 1
     9    8    9 1
    10    8   10 1
    11    9   11 1
    12    9   12 2
    13    1   14 1
    14    1   15 1
    15    2   16 1
    16    2   17 1
    17    3   18 1
    18    3   19 1
    19    4   20 1
    20    6   21 1
    21    7   22 1
    22    7   23 1
    23    8   24 1
    24   10   25 1
    25   10   26 1
    26   10   27 1
    27   13   28 1
    28   13   29 1
    29   13   30 1
    30    6   31 1
@<TRIPOS>PROPERTY_DATA
  Total_Score	| 11.3629
  Crash		| -1.8935
  Polar		| 8.8543
  FragIndex	| 1
  FragRMSD	| 0.761

