@<TRIPOS>MOLECULE
BindingDB_50240716
 36 35 0 0 0
SMALL
NO_CHARGES


@<TRIPOS>ATOM
1    C         2.9481  -19.9520  -19.4325  C     
2    C         2.6896  -20.2851  -20.9370  C     
3    C         1.6477  -19.7052  -18.6185  C     
4    N         1.9478  -19.6542  -17.2197  N     
5    C         2.0521  -20.7070  -16.3791  C     
6    N         2.4751  -20.4016  -15.1366  N     
7    N         1.7720  -21.9713  -16.7791  N     
8    C         3.4169  -19.3460  -21.9343  C     
9    C         4.8811  -19.3150  -21.7513  C     
10   N         3.0977  -19.7393  -23.3191  N     
11   O         5.6432  -20.4008  -22.0281  O     
12   O         5.4632  -18.2536  -21.1531  O     
13   C         1.8892  -23.1696  -16.0253  C     
14   C         0.7433  -23.4076  -14.9888  C     
15   C         0.9703  -22.7857  -13.5840  C     
16   H         3.4906  -20.7959  -18.9796  H     
17   H         3.5818  -19.0572  -19.3310  H     
18   H         3.0117  -21.3130  -21.1282  H     
19   H         1.6189  -20.2360  -21.1593  H     
20   H         1.2243  -18.7347  -18.9017  H     
21   H         0.8958  -20.4753  -18.8248  H     
22   H         2.1750  -18.7796  -16.8608  H     
23   H         2.6055  -21.1072  -14.4872  H     
24   H         1.4885  -22.0874  -17.6991  H     
25   H         3.0283  -18.3331  -21.7988  H     
26   H         3.6228  -20.5709  -23.6029  H     
27   H         3.3220  -18.9715  -23.9568  H     
28   H         2.0948  -19.9427  -23.3982  H     
29   H         1.8218  -23.9703  -16.7607  H     
30   H         2.8672  -23.2470  -15.5481  H     
31   H        -0.2049  -23.0211  -15.3977  H     
32   H         0.6218  -24.4936  -14.8493  H     
33   H         1.9114  -23.1547  -13.1552  H     
34   H         0.1403  -23.0774  -12.9228  H     
35   H         0.9927  -21.6891  -13.6515  H     
36   H         2.6907  -19.4703  -14.9180  H     
@<TRIPOS>BOND
     1    1    2 1
     2    1    3 1
     3    2    8 1
     4    3    4 1
     5    4    5 1
     6    5    6 2
     7    5    7 1
     8    7   13 1
     9    8    9 1
    10    8   10 1
    11    9   11 1
    12    9   12 2
    13   13   14 1
    14   14   15 1
    15    1   16 1
    16    1   17 1
    17    2   18 1
    18    2   19 1
    19    3   20 1
    20    3   21 1
    21    4   22 1
    22    6   23 1
    23    7   24 1
    24    8   25 1
    25   10   26 1
    26   10   27 1
    27   10   28 1
    28   13   29 1
    29   13   30 1
    30   14   31 1
    31   14   32 1
    32   15   33 1
    33   15   34 1
    34   15   35 1
    35    6   36 1
@<TRIPOS>PROPERTY_DATA
  Total_Score	| 12.0953
  Crash		| -3.4517
  Polar		| 9.9872
  FragIndex	| 1
  FragRMSD	| 0.746

