@<TRIPOS>MOLECULE
BindingDB_50254451
 37 36 0 0 0
SMALL
NO_CHARGES


@<TRIPOS>ATOM
1    C         2.7565  -19.3333  -19.5867  C     
2    C         2.7075  -19.9830  -20.9974  C     
3    C         1.6586  -19.9221  -18.6761  C     
4    N         1.9540  -19.7293  -17.2949  N     
5    C         1.9474  -20.7148  -16.3701  C     
6    N         2.4300  -20.3651  -15.1665  N     
7    N         1.5426  -21.9703  -16.7010  N     
8    C         3.5036  -19.2176  -22.0874  C     
9    C         4.9592  -19.2215  -21.8289  C     
10   N         3.2350  -19.8182  -23.4059  N     
11   O         5.6816  -20.3471  -22.0249  O     
12   O         5.5185  -18.2284  -21.1023  O     
13   C         1.6755  -23.1781  -15.9552  C     
14   C         0.6975  -23.3668  -14.7663  C     
15   C         1.1157  -22.6664  -13.5715  C     
16   C         0.4907  -21.5912  -13.0816  C     
17   H         3.7289  -19.5260  -19.1242  H     
18   H         2.6235  -18.2508  -19.6706  H     
19   H         3.0935  -21.0052  -20.9438  H     
20   H         1.6590  -20.0446  -21.3047  H     
21   H         0.6929  -19.4663  -18.9053  H     
22   H         1.6020  -20.9961  -18.8792  H     
23   H         2.2888  -18.8607  -17.0215  H     
24   H         2.5412  -21.0310  -14.4743  H     
25   H         1.2033  -22.0831  -17.6055  H     
26   H         3.1455  -18.1861  -22.1195  H     
27   H         3.9308  -20.5311  -23.6285  H     
28   H         3.2601  -19.0932  -24.1214  H     
29   H         2.3142  -20.2579  -23.4049  H     
30   H         1.4582  -23.9784  -16.6679  H     
31   H         2.7154  -23.2988  -15.6408  H     
32   H        -0.3103  -23.0871  -15.0823  H     
33   H         0.6639  -24.4263  -14.5063  H     
34   H         1.9278  -22.9968  -13.1016  H     
35   H         0.8350  -21.1473  -12.2671  H     
36   H        -0.2803  -21.1890  -13.5563  H     
37   H         2.7241  -19.4500  -15.0108  H     
@<TRIPOS>BOND
     1    1    2 1
     2    1    3 1
     3    2    8 1
     4    3    4 1
     5    4    5 1
     6    5    6 2
     7    5    7 1
     8    7   13 1
     9    8    9 1
    10    8   10 1
    11    9   11 1
    12    9   12 2
    13   13   14 1
    14   14   15 1
    15   15   16 2
    16    1   17 1
    17    1   18 1
    18    2   19 1
    19    2   20 1
    20    3   21 1
    21    3   22 1
    22    4   23 1
    23    6   24 1
    24    7   25 1
    25    8   26 1
    26   10   27 1
    27   10   28 1
    28   10   29 1
    29   13   30 1
    30   13   31 1
    31   14   32 1
    32   14   33 1
    33   15   34 1
    34   16   35 1
    35   16   36 1
    36    6   37 1
@<TRIPOS>PROPERTY_DATA
  Total_Score	| 13.7826
  Crash		| -3.8834
  Polar		| 11.0678
  FragIndex	| 1
  FragRMSD	| 0.779

