@<TRIPOS>MOLECULE
BindingDB_50049254
 30 29 0 0 0
SMALL
NO_CHARGES


@<TRIPOS>ATOM
1    C         1.9985  -20.4721  -15.6201  C     
2    C         4.8560  -19.3248  -21.5178  C     
3    N         1.9778  -21.4469  -14.6851  N     
4    N         2.2423  -20.7397  -16.9588  N     
5    O         5.4575  -18.2178  -21.0291  O     
6    N         1.7129  -19.2584  -15.1007  N     
7    C         3.3910  -19.3339  -21.7459  C     
8    O         5.6472  -20.3169  -22.0131  O     
9    N         3.0940  -19.8718  -23.0732  N     
10   C         1.9934  -19.7697  -18.0154  C     
11   C         3.0629  -19.6711  -19.1607  C     
12   C         2.5164  -22.1108  -17.3676  C     
13   C         2.5956  -20.0626  -20.6118  C     
14   H         1.7579  -21.2251  -13.7705  H     
15   H         1.7322  -18.4698  -15.6756  H     
16   H         1.4801  -19.1903  -14.1507  H     
17   H         3.0426  -18.2970  -21.7512  H     
18   H         3.2901  -19.1497  -23.7802  H     
19   H         2.1024  -20.1396  -23.1246  H     
20   H         3.6748  -20.7115  -23.2624  H     
21   H         1.0122  -20.0009  -18.4321  H     
22   H         1.8903  -18.7664  -17.6177  H     
23   H         3.4172  -18.6318  -19.1950  H     
24   H         3.9379  -20.2814  -18.9046  H     
25   H         3.3513  -22.5320  -16.7972  H     
26   H         2.7683  -22.1895  -18.4367  H     
27   H         1.6166  -22.7094  -17.1888  H     
28   H         1.5213  -19.8140  -20.7492  H     
29   H         2.6914  -21.1611  -20.7418  H     
30   H         2.1156  -22.3737  -14.9157  H     
@<TRIPOS>BOND
     1    1    3 2
     2    1    4 1
     3    1    6 1
     4    2    5 2
     5    2    7 1
     6    2    8 1
     7    4   10 1
     8    4   12 1
     9    7    9 1
    10    7   13 1
    11   10   11 1
    12   11   13 1
    13    3   14 1
    14    6   15 1
    15    6   16 1
    16    7   17 1
    17    9   18 1
    18    9   19 1
    19    9   20 1
    20   10   21 1
    21   10   22 1
    22   11   23 1
    23   11   24 1
    24   12   25 1
    25   12   26 1
    26   12   27 1
    27   13   28 1
    28   13   29 1
    29    3   30 1
@<TRIPOS>PROPERTY_DATA
  Total_Score	| 8.8801
  Crash		| -1.9863
  Polar		| 6.9638
  FragIndex	| 1
  FragRMSD	| 0.358

