@<TRIPOS>MOLECULE
BindingDB_35543
 43 47 0 0 0
SMALL
NO_CHARGES


@<TRIPOS>ATOM
1    C        12.6909   -5.6410   32.6404  C     
2    C        12.6254   -5.7309   33.9849  C     
3    C        12.6587   -4.5772   34.7666  C     
4    C        12.8206   -3.3141   34.1146  C     
5    C        12.9197   -3.2844   32.7105  C     
6    C        12.7792   -4.4240   31.9779  C     
7    C        12.7207   -4.3112   30.5928  C     
8    O        13.1388   -2.1190   32.0819  O     
9    C        13.1223   -1.9874   30.7192  C     
10   C        12.8496   -3.1137   29.9481  C     
11   O        12.3139   -5.3912   29.9144  O     
12   O        13.4105   -0.7842   30.1959  O     
13   C        12.6250   -2.9109   28.5113  C     
14   C        11.4264   -2.1015   28.0966  C     
15   C         9.1562   -0.5345   27.3746  C     
16   C         9.2959   -1.0094   28.6806  C     
17   C        10.4147   -1.7949   29.0442  C     
18   C        11.2732   -1.6284   26.7503  C     
19   C        10.1288   -0.8434   26.4002  C     
20   C         9.9845   -0.3824   25.0837  C     
21   C        12.2104   -1.8736   25.7199  C     
22   C        12.0310   -1.3879   24.4737  C     
23   C        10.9180   -0.6696   24.1492  C     
24   C        12.5069   -4.6286   36.1705  C     
25   C        12.4614   -3.4393   36.9162  C     
26   C        12.5942   -2.1978   36.2710  C     
27   C        12.8104   -2.1321   34.8876  C     
28   H        12.6778   -6.4860   32.1242  H     
29   H        12.5312   -6.6224   34.4064  H     
30   H        13.0658   -5.6553   29.3449  H     
31   H        13.5183   -2.4158   28.1246  H     
32   H        12.5503   -3.8656   27.9858  H     
33   H         8.3373    0.0412   27.1324  H     
34   H         8.5876   -0.7896   29.3761  H     
35   H        10.4848   -2.1124   30.0243  H     
36   H         9.1888    0.1493   24.8209  H     
37   H        13.0253   -2.4213   25.8854  H     
38   H        12.7113   -1.5640   23.7677  H     
39   H        10.7918   -0.3541   23.2130  H     
40   H        12.3944   -5.5220   36.6550  H     
41   H        12.3044   -3.4637   37.9250  H     
42   H        12.5087   -1.3351   36.8076  H     
43   H        12.9076   -1.2165   34.4471  H     
@<TRIPOS>BOND
     1    1    2 2
     2    1    6 1
     3    2    3 1
     4    3    4 1
     5    3   24 2
     6    4    5 1
     7    4   27 2
     8    5    6 2
     9    5    8 1
    10    6    7 1
    11    7   10 2
    12    7   11 1
    13    8    9 1
    14    9   10 1
    15    9   12 2
    16   10   13 1
    17   13   14 1
    18   14   17 1
    19   14   18 2
    20   15   16 1
    21   15   19 2
    22   16   17 2
    23   18   19 1
    24   18   21 1
    25   19   20 1
    26   20   23 2
    27   21   22 2
    28   22   23 1
    29   24   25 1
    30   25   26 2
    31   26   27 1
    32    1   28 1
    33    2   29 1
    34   11   30 1
    35   13   31 1
    36   13   32 1
    37   15   33 1
    38   16   34 1
    39   17   35 1
    40   20   36 1
    41   21   37 1
    42   22   38 1
    43   23   39 1
    44   24   40 1
    45   25   41 1
    46   26   42 1
    47   27   43 1
@<TRIPOS>PROPERTY_DATA
  Total_Score	| 3.4409
  Crash		| -3.5373
  Polar		| 1.0048
  FragIndex	| 1
  FragRMSD	| 0.622

