@<TRIPOS>MOLECULE
BindingDB_35546
 43 47 0 0 0
SMALL
NO_CHARGES


@<TRIPOS>ATOM
1    C        12.6543   -4.9932   33.5019  C     
2    C        12.5844   -4.7112   34.9117  C     
3    C        12.6529   -3.3862   35.3854  C     
4    C        12.8075   -2.3296   34.4834  C     
5    C        12.8592   -2.5877   33.1071  C     
6    C        12.7484   -3.9014   32.5671  C     
7    C        12.7182   -3.9641   31.1412  C     
8    O        13.0061   -1.5104   32.2839  O     
9    C        13.0088   -1.6210   30.9324  C     
10   C        12.8139   -2.8695   30.3350  C     
11   O        12.4947   -5.1275   30.5398  O     
12   O        13.1251   -0.4792   30.2113  O     
13   C        12.6487   -2.8958   28.8683  C     
14   C        12.5463   -7.3364   34.0931  C     
15   C        12.4392   -7.0351   35.4158  C     
16   C        12.4639   -5.7595   35.8369  C     
17   C        12.6462   -6.3679   33.1607  C     
18   C        11.4926   -2.1238   28.2884  C     
19   C        10.3764   -0.9125   26.4394  C     
20   C         9.3045   -0.5890   27.2969  C     
21   C         9.2984   -1.0433   28.6198  C     
22   C        10.3751   -1.7966   29.1057  C     
23   C        11.4730   -1.6967   26.9202  C     
24   C        12.5037   -2.0155   25.9934  C     
25   C        12.4699   -1.5500   24.6670  C     
26   C        11.3943   -0.7706   24.2212  C     
27   C        10.3483   -0.4565   25.1014  C     
28   H        12.5999   -3.1763   36.3865  H     
29   H        12.8694   -1.3694   34.8307  H     
30   H        13.3930   -5.4625   30.3154  H     
31   H        13.5773   -2.4783   28.4744  H     
32   H        12.5835   -3.9101   28.4718  H     
33   H        12.5655   -8.2920   33.8123  H     
34   H        12.3551   -7.7710   36.0830  H     
35   H        12.3996   -5.5708   36.8140  H     
36   H        12.7540   -6.6762   32.2297  H     
37   H         8.5126   -0.0307   26.9635  H     
38   H         8.5111   -0.8195   29.2331  H     
39   H        10.3184   -2.1105   30.0769  H     
40   H        13.2975   -2.5994   26.2597  H     
41   H        13.2284   -1.7832   24.0234  H     
42   H        11.3696   -0.4366   23.2556  H     
43   H         9.5686    0.1091   24.7554  H     
@<TRIPOS>BOND
     1    1    2 1
     2    1    6 2
     3    1   17 1
     4    2    3 2
     5    2   16 1
     6    3    4 1
     7    4    5 2
     8    5    6 1
     9    5    8 1
    10    6    7 1
    11    7   10 2
    12    7   11 1
    13    8    9 1
    14    9   10 1
    15    9   12 2
    16   10   13 1
    17   13   18 1
    18   14   15 1
    19   14   17 2
    20   15   16 2
    21   18   22 2
    22   18   23 1
    23   19   20 1
    24   19   23 2
    25   19   27 1
    26   20   21 2
    27   21   22 1
    28   23   24 1
    29   24   25 2
    30   25   26 1
    31   26   27 2
    32    3   28 1
    33    4   29 1
    34   11   30 1
    35   13   31 1
    36   13   32 1
    37   14   33 1
    38   15   34 1
    39   16   35 1
    40   17   36 1
    41   20   37 1
    42   21   38 1
    43   22   39 1
    44   24   40 1
    45   25   41 1
    46   26   42 1
    47   27   43 1
@<TRIPOS>PROPERTY_DATA
  Total_Score	| 6.7105
  Crash		| -0.7048
  Polar		| 1.1745
  FragIndex	| 1
  FragRMSD	| 0.272

