@<TRIPOS>MOLECULE
BindingDB_35534
 49 52 0 0 0
SMALL
NO_CHARGES


@<TRIPOS>ATOM
1    C         8.1594   -0.9440   28.1258  C     
2    C         7.1661   -0.2888   27.3482  C     
3    C         7.4899    0.1439   26.0290  C     
4    C         8.8137   -0.0383   25.5522  C     
5    C         9.7840   -0.6756   26.3429  C     
6    C         9.4671   -1.1584   27.6293  C     
7    C        10.4632   -1.8482   28.3467  C     
8    O        11.0449   -0.8790   25.8653  O     
9    C        12.0026   -1.5293   26.5855  C     
10   C        11.7226   -2.0355   27.8678  C     
11   O        10.1262   -2.3959   29.5111  O     
12   O        13.1854   -1.7099   25.9487  O     
13   C        12.6469   -3.9626   30.7971  C     
14   C        12.7921   -2.8466   30.0272  C     
15   C        13.0201   -1.6201   30.6787  C     
16   O        13.0618   -1.5604   32.0411  O     
17   C        12.8854   -2.6703   32.8259  C     
18   C        12.6576   -3.9196   32.2043  C     
19   C        12.4875   -5.0533   33.0312  C     
20   C        12.8978   -2.5590   34.2281  C     
21   C        12.7216   -3.6947   35.0553  C     
22   C        12.5710   -4.9743   34.4442  C     
23   O        12.4704   -5.1568   30.2253  O     
24   O        13.1828   -0.4556   30.0059  O     
25   C        12.7282   -2.8821   28.5500  C     
26   C         5.8258   -0.1147   27.9798  C     
27   C        12.4942   -6.2602   35.1835  C     
28   C         6.4861    0.7797   25.1320  C     
29   C        12.7187   -3.4650   36.5226  C     
30   H         7.9179   -1.2684   29.0649  H     
31   H         9.0725    0.2752   24.6237  H     
32   H        10.0952   -1.6395   30.1464  H     
33   H        12.3338   -5.9677   32.5949  H     
34   H        13.0290   -1.6336   34.6419  H     
35   H        13.2798   -5.3232   29.6886  H     
36   H        12.5418   -3.8906   28.1717  H     
37   H        13.7380   -2.6299   28.2151  H     
38   H         5.3960   -1.0933   28.2135  H     
39   H         5.1135    0.4245   27.3523  H     
40   H         5.9386    0.4510   28.9077  H     
41   H        11.4755   -6.6550   35.1271  H     
42   H        12.7738   -6.1852   36.2373  H     
43   H        13.1742   -6.9935   34.7355  H     
44   H         5.6374    0.1072   25.0027  H     
45   H         6.8789    0.9987   24.1381  H     
46   H         6.1461    1.7176   25.5734  H     
47   H        13.7464   -3.3978   36.8870  H     
48   H        12.1950   -4.2424   37.0801  H     
49   H        12.2045   -2.5286   36.7607  H     
@<TRIPOS>BOND
     1    1    2 1
     2    1    6 2
     3    2    3 2
     4    2   26 1
     5    3    4 1
     6    3   28 1
     7    4    5 2
     8    5    6 1
     9    5    8 1
    10    6    7 1
    11    7   10 2
    12    7   11 1
    13    8    9 1
    14    9   10 1
    15    9   12 2
    16   10   25 1
    17   13   14 2
    18   13   18 1
    19   13   23 1
    20   14   15 1
    21   14   25 1
    22   15   16 1
    23   15   24 2
    24   16   17 1
    25   17   18 2
    26   17   20 1
    27   18   19 1
    28   19   22 2
    29   20   21 2
    30   21   22 1
    31   21   29 1
    32   22   27 1
    33    1   30 1
    34    4   31 1
    35   11   32 1
    36   19   33 1
    37   20   34 1
    38   23   35 1
    39   25   36 1
    40   25   37 1
    41   26   38 1
    42   26   39 1
    43   26   40 1
    44   27   41 1
    45   27   42 1
    46   27   43 1
    47   28   44 1
    48   28   45 1
    49   28   46 1
    50   29   47 1
    51   29   48 1
    52   29   49 1
@<TRIPOS>PROPERTY_DATA
  Total_Score	| 6.1899
  Crash		| -1.0630
  Polar		| 1.1799
  FragIndex	| 1
  FragRMSD	| 0.782

