@<TRIPOS>MOLECULE
BindingDB_35540
 43 46 0 0 0
SMALL
NO_CHARGES


@<TRIPOS>ATOM
1    C        12.3471   -5.1266   33.2713  C     
2    C        12.3144   -5.0252   34.6834  C     
3    C        12.6805   -3.7892   35.2936  C     
4    C        13.0707   -2.7037   34.4754  C     
5    C        13.0780   -2.8188   33.0769  C     
6    C        12.7228   -4.0363   32.4528  C     
7    C        12.7151   -4.0805   31.0469  C     
8    O        13.3735   -1.7375   32.2922  O     
9    C        13.2898   -1.7854   30.9314  C     
10   C        12.8868   -2.9649   30.2898  C     
11   O        12.4879   -5.2532   30.4575  O     
12   O        13.5120   -0.6456   30.2336  O     
13   C        12.6407   -2.9117   28.8391  C     
14   C        11.4686   -2.0935   28.3616  C     
15   C        10.2412   -0.8951   26.5730  C     
16   C         9.2202   -0.5692   27.4903  C     
17   C         9.3120   -0.9882   28.8231  C     
18   C        10.4208   -1.7303   29.2549  C     
19   C        11.3674   -1.6721   26.9966  C     
20   C        12.3421   -1.9559   26.0113  C     
21   C        12.2346   -1.4773   24.7553  C     
22   C        11.1606   -0.7303   24.3754  C     
23   C        10.1683   -0.4517   25.2435  C     
24   C        11.9052   -6.2162   35.4759  C     
25   C        12.6891   -3.5593   36.7611  C     
26   H        12.0635   -6.0052   32.8297  H     
27   H        13.3233   -1.8042   34.8937  H     
28   H        13.3639   -5.7000   30.4366  H     
29   H        13.5594   -2.5052   28.4086  H     
30   H        12.5145   -3.9084   28.4091  H     
31   H         8.4152   -0.0060   27.1996  H     
32   H         8.5767   -0.7379   29.4845  H     
33   H        10.4418   -2.0054   30.2396  H     
34   H        13.1319   -2.5175   26.2187  H     
35   H        12.9506   -1.6695   24.0915  H     
36   H        11.1018   -0.3991   23.4402  H     
37   H         9.3906    0.0845   24.9327  H     
38   H        10.9857   -5.9980   36.0236  H     
39   H        12.6918   -6.4749   36.1867  H     
40   H        11.7226   -7.0965   34.8552  H     
41   H        12.2505   -4.3782   37.3276  H     
42   H        12.1189   -2.6596   36.9976  H     
43   H        13.7179   -3.4279   37.0995  H     
@<TRIPOS>BOND
     1    1    2 1
     2    1    6 2
     3    2    3 2
     4    2   24 1
     5    3    4 1
     6    3   25 1
     7    4    5 2
     8    5    6 1
     9    5    8 1
    10    6    7 1
    11    7   10 2
    12    7   11 1
    13    8    9 1
    14    9   10 1
    15    9   12 2
    16   10   13 1
    17   13   14 1
    18   14   18 1
    19   14   19 2
    20   15   16 2
    21   15   19 1
    22   15   23 1
    23   16   17 1
    24   17   18 2
    25   19   20 1
    26   20   21 2
    27   21   22 1
    28   22   23 2
    29    1   26 1
    30    4   27 1
    31   11   28 1
    32   13   29 1
    33   13   30 1
    34   16   31 1
    35   17   32 1
    36   18   33 1
    37   20   34 1
    38   21   35 1
    39   22   36 1
    40   23   37 1
    41   24   38 1
    42   24   39 1
    43   24   40 1
    44   25   41 1
    45   25   42 1
    46   25   43 1
@<TRIPOS>PROPERTY_DATA
  Total_Score	| 6.7151
  Crash		| -0.7042
  Polar		| 1.1509
  FragIndex	| 1
  FragRMSD	| 0.237

