@<TRIPOS>MOLECULE
BindingDB_35542
 37 39 0 0 0
SMALL
NO_CHARGES


@<TRIPOS>ATOM
1    C        12.5648   -5.0904   33.1605  C     
2    C        12.6305   -5.0481   34.5752  C     
3    C        12.7036   -3.7840   35.2285  C     
4    C        12.8383   -2.6126   34.4478  C     
5    C        12.8191   -2.6796   33.0475  C     
6    C        12.6341   -3.9103   32.3750  C     
7    C        12.5777   -3.8920   30.9693  C     
8    O        12.9964   -1.5451   32.2993  O     
9    C        12.9938   -1.5626   30.9455  C     
10   C        12.7420   -2.7514   30.2330  C     
11   O        12.3438   -5.0480   30.3480  O     
12   O        13.2004   -0.3681   30.3359  O     
13   C        12.7360   -2.7446   28.7609  C     
14   C        11.7063   -1.8854   28.1041  C     
15   C        12.6333   -6.3621   35.2761  C     
16   C        12.6379   -3.6541   36.7057  C     
17   C         9.7296   -0.3194   26.7942  C     
18   C         9.4412   -0.9331   28.0279  C     
19   C        10.4291   -1.6994   28.6848  C     
20   C        11.9908   -1.2313   26.8828  C     
21   C        11.0019   -0.4806   26.2150  C     
22   H        12.4835   -6.0019   32.6898  H     
23   H        12.9605   -1.7008   34.8916  H     
24   H        13.2210   -5.3135   30.0004  H     
25   H        13.7400   -2.4347   28.4487  H     
26   H        12.5852   -3.7365   28.3369  H     
27   H        11.6867   -6.8754   35.0926  H     
28   H        12.7753   -6.2830   36.3516  H     
29   H        13.4485   -6.9785   34.8886  H     
30   H        11.8230   -4.2671   37.0937  H     
31   H        12.4315   -2.6311   37.0187  H     
32   H        13.5758   -3.9782   37.1602  H     
33   H         9.0166    0.2335   26.3145  H     
34   H         8.5048   -0.8401   28.4346  H     
35   H        10.1886   -2.1564   29.5672  H     
36   H        12.9021   -1.3366   26.4372  H     
37   H        11.2033   -0.0695   25.3011  H     
@<TRIPOS>BOND
     1    1    2 1
     2    1    6 2
     3    2    3 2
     4    2   15 1
     5    3    4 1
     6    3   16 1
     7    4    5 2
     8    5    6 1
     9    5    8 1
    10    6    7 1
    11    7   10 2
    12    7   11 1
    13    8    9 1
    14    9   10 1
    15    9   12 2
    16   10   13 1
    17   13   14 1
    18   14   19 1
    19   14   20 2
    20   17   18 1
    21   17   21 2
    22   18   19 2
    23   20   21 1
    24    1   22 1
    25    4   23 1
    26   11   24 1
    27   13   25 1
    28   13   26 1
    29   15   27 1
    30   15   28 1
    31   15   29 1
    32   16   30 1
    33   16   31 1
    34   16   32 1
    35   17   33 1
    36   18   34 1
    37   19   35 1
    38   20   36 1
    39   21   37 1
@<TRIPOS>PROPERTY_DATA
  Total_Score	| 4.7675
  Crash		| -0.8353
  Polar		| 1.1637
  FragIndex	| 1
  FragRMSD	| 0.323

