@<TRIPOS>MOLECULE
BindingDB_35549
 37 40 0 0 0
SMALL
NO_CHARGES


@<TRIPOS>ATOM
1    C        12.2340   -5.1849   33.4964  C     
2    C        12.2250   -5.1100   34.9036  C     
3    C        12.5555   -3.9121   35.5607  C     
4    C        12.8807   -2.7692   34.7964  C     
5    C        12.8784   -2.8373   33.3908  C     
6    C        12.5644   -4.0396   32.7104  C     
7    C        12.5876   -4.0192   31.3019  C     
8    O        13.2012   -1.7253   32.6577  O     
9    C        13.1754   -1.7177   31.2948  C     
10   C        12.7954   -2.8746   30.5927  C     
11   O        12.3574   -5.1498   30.6346  O     
12   O        13.4660   -0.5465   30.6741  O     
13   C        12.6206   -2.7840   29.1411  C     
14   C        11.4399   -2.0050   28.6227  C     
15   C         9.1946   -0.4644   27.7012  C     
16   C         9.2403   -0.9381   29.0178  C     
17   C        10.3460   -1.6833   29.4759  C     
18   C        11.3608   -1.5894   27.2572  C     
19   C        10.2422   -0.7939   26.8080  C     
20   C        10.1861   -0.3745   25.4729  C     
21   C        12.3435   -1.9023   26.2826  C     
22   C        12.2386   -1.4718   25.0123  C     
23   C        11.1684   -0.7177   24.6098  C     
24   H        11.9599   -6.0704   33.0669  H     
25   H        11.9510   -5.9355   35.4454  H     
26   H        12.5262   -3.8736   36.5894  H     
27   H        13.1204   -1.8950   35.2616  H     
28   H        13.2296   -5.4697   30.2619  H     
29   H        13.5486   -2.3236   28.7766  H     
30   H        12.5672   -3.7688   28.6593  H     
31   H         8.3771    0.0761   27.3957  H     
32   H         8.4709   -0.7396   29.6581  H     
33   H        10.3359   -1.9600   30.4500  H     
34   H         9.4198    0.1668   25.1479  H     
35   H        13.1252   -2.4569   26.5162  H     
36   H        12.9506   -1.6913   24.3563  H     
37   H        11.1087   -0.4200   23.6621  H     
@<TRIPOS>BOND
     1    1    2 1
     2    1    6 2
     3    2    3 2
     4    3    4 1
     5    4    5 2
     6    5    6 1
     7    5    8 1
     8    6    7 1
     9    7   10 2
    10    7   11 1
    11    8    9 1
    12    9   10 1
    13    9   12 2
    14   10   13 1
    15   13   14 1
    16   14   17 1
    17   14   18 2
    18   15   16 1
    19   15   19 2
    20   16   17 2
    21   18   19 1
    22   18   21 1
    23   19   20 1
    24   20   23 2
    25   21   22 2
    26   22   23 1
    27    1   24 1
    28    2   25 1
    29    3   26 1
    30    4   27 1
    31   11   28 1
    32   13   29 1
    33   13   30 1
    34   15   31 1
    35   16   32 1
    36   17   33 1
    37   20   34 1
    38   21   35 1
    39   22   36 1
    40   23   37 1
@<TRIPOS>PROPERTY_DATA
  Total_Score	| 4.5287
  Crash		| -0.6581
  Polar		| 1.1913
  FragIndex	| 1
  FragRMSD	| 0.651

