@<TRIPOS>MOLECULE
BindingDB_35537
 49 52 0 0 0
SMALL
NO_CHARGES


@<TRIPOS>ATOM
1    C        12.2419   -5.6049   32.8438  C     
2    C        12.1370   -5.6571   34.2419  C     
3    C        12.5063   -4.5553   35.0463  C     
4    C        12.9645   -3.3617   34.4150  C     
5    C        13.0401   -3.3187   32.9993  C     
6    C        12.6934   -4.4344   32.1955  C     
7    C        12.7748   -4.3092   30.7968  C     
8    O        13.4473   -2.1806   32.3567  O     
9    C        13.4972   -2.0632   31.0021  C     
10   C        13.1116   -3.1371   30.1929  C     
11   O        12.4382   -5.3657   30.0570  O     
12   O        13.8793   -0.8592   30.5146  O     
13   C        11.6396   -1.9722   26.9456  C     
14   C        11.7476   -2.3131   28.2602  C     
15   C        10.6461   -2.0467   29.0907  C     
16   O         9.5314   -1.4518   28.5759  O     
17   C         9.4133   -1.0795   27.2668  C     
18   C        10.5080   -1.3404   26.4083  C     
19   C        10.4022   -0.9500   25.0545  C     
20   C         8.2217   -0.4730   26.8034  C     
21   C         8.1298   -0.1029   25.4292  C     
22   C         9.2345   -0.3429   24.5744  C     
23   O        12.6468   -2.2377   26.1157  O     
24   O        10.6001   -2.3571   30.4029  O     
25   C        12.9937   -2.9342   28.7450  C     
26   C         7.1229   -0.2812   27.7951  C     
27   C         6.9092    0.5258   24.8655  C     
28   C        12.4186   -4.7527   36.5199  C     
29   C        13.3795   -2.1785   35.2117  C     
30   H        11.9878   -6.4387   32.3074  H     
31   H        11.7884   -6.5212   34.6723  H     
32   H        13.2218   -5.5606   29.4976  H     
33   H        11.1715   -1.1126   24.4006  H     
34   H         9.1899   -0.0811   23.5839  H     
35   H        13.1408   -1.3931   26.0489  H     
36   H        13.8323   -2.3059   28.4268  H     
37   H        13.1272   -3.8777   28.2071  H     
38   H         6.8416   -1.2513   28.2103  H     
39   H         6.2231    0.1674   27.3789  H     
40   H         7.4697    0.3600   28.6071  H     
41   H         6.0534   -0.1332   25.0145  H     
42   H         6.9892    0.7214   23.7949  H     
43   H         6.7234    1.4774   25.3669  H     
44   H        11.4009   -5.0278   36.7967  H     
45   H        12.6943   -3.8752   37.1017  H     
46   H        13.0907   -5.5621   36.8087  H     
47   H        12.5618   -1.8575   35.8589  H     
48   H        13.6614   -1.3209   34.6031  H     
49   H        14.2414   -2.4472   35.8216  H     
@<TRIPOS>BOND
     1    1    2 1
     2    1    6 2
     3    2    3 2
     4    3    4 1
     5    3   28 1
     6    4    5 2
     7    4   29 1
     8    5    6 1
     9    5    8 1
    10    6    7 1
    11    7   10 2
    12    7   11 1
    13    8    9 1
    14    9   10 1
    15    9   12 2
    16   10   25 1
    17   13   14 2
    18   13   18 1
    19   13   23 1
    20   14   15 1
    21   14   25 1
    22   15   16 1
    23   15   24 2
    24   16   17 1
    25   17   18 2
    26   17   20 1
    27   18   19 1
    28   19   22 2
    29   20   21 2
    30   20   26 1
    31   21   22 1
    32   21   27 1
    33    1   30 1
    34    2   31 1
    35   11   32 1
    36   19   33 1
    37   22   34 1
    38   23   35 1
    39   25   36 1
    40   25   37 1
    41   26   38 1
    42   26   39 1
    43   26   40 1
    44   27   41 1
    45   27   42 1
    46   27   43 1
    47   28   44 1
    48   28   45 1
    49   28   46 1
    50   29   47 1
    51   29   48 1
    52   29   49 1
@<TRIPOS>PROPERTY_DATA
  Total_Score	| 4.9550
  Crash		| -1.9330
  Polar		| 1.1286
  FragIndex	| 1
  FragRMSD	| 1.336

