@<TRIPOS>MOLECULE
BindingDB_35548
 37 40 0 0 0
SMALL
NO_CHARGES


@<TRIPOS>ATOM
1    C        12.6592   -4.9892   33.4836  C     
2    C        12.5536   -4.6851   34.8843  C     
3    C        12.6336   -3.3492   35.3314  C     
4    C        12.8402   -2.3147   34.4149  C     
5    C        12.8944   -2.5974   33.0441  C     
6    C        12.7490   -3.9171   32.5349  C     
7    C        12.6961   -4.0142   31.1143  C     
8    O        13.1185   -1.5569   32.1916  O     
9    C        13.1415   -1.7097   30.8415  C     
10   C        12.8554   -2.9529   30.2698  C     
11   O        12.3464   -5.1733   30.5726  O     
12   O        13.3995   -0.6027   30.1075  O     
13   C        12.7760   -3.0701   28.7996  C     
14   C        11.8598   -2.1174   28.1125  C     
15   C        10.1032   -0.3755   26.7178  C     
16   C         9.6430   -1.1054   27.8330  C     
17   C        10.5106   -1.9795   28.5158  C     
18   C        12.3094   -1.3718   26.9943  C     
19   C        11.4369   -0.5117   26.2994  C     
20   C        12.6034   -7.3231   34.1088  C     
21   C        12.4083   -7.0046   35.4149  C     
22   C        12.3956   -5.7190   35.8162  C     
23   C        12.7229   -6.3655   33.1642  C     
24   H        12.5651   -3.1232   36.3290  H     
25   H        12.9287   -1.3509   34.7503  H     
26   H        13.1348   -5.4584   30.0530  H     
27   H        13.7946   -2.9530   28.4254  H     
28   H        12.4536   -4.0612   28.4731  H     
29   H         9.4722    0.2443   26.2114  H     
30   H         8.6693   -1.0041   28.1350  H     
31   H        10.1504   -2.5064   29.3122  H     
32   H        13.2732   -1.4640   26.6611  H     
33   H        11.7758    0.0115   25.4862  H     
34   H        12.6893   -8.2814   33.8514  H     
35   H        12.3067   -7.7310   36.0861  H     
36   H        12.2850   -5.5164   36.7855  H     
37   H        12.9505   -6.6738   32.2545  H     
@<TRIPOS>BOND
     1    1    2 1
     2    1    6 2
     3    1   23 1
     4    2    3 2
     5    2   22 1
     6    3    4 1
     7    4    5 2
     8    5    6 1
     9    5    8 1
    10    6    7 1
    11    7   10 2
    12    7   11 1
    13    8    9 1
    14    9   10 1
    15    9   12 2
    16   10   13 1
    17   13   14 1
    18   14   17 1
    19   14   18 2
    20   15   16 1
    21   15   19 2
    22   16   17 2
    23   18   19 1
    24   20   21 1
    25   20   23 2
    26   21   22 2
    27    3   24 1
    28    4   25 1
    29   11   26 1
    30   13   27 1
    31   13   28 1
    32   15   29 1
    33   16   30 1
    34   17   31 1
    35   18   32 1
    36   19   33 1
    37   20   34 1
    38   21   35 1
    39   22   36 1
    40   23   37 1
@<TRIPOS>PROPERTY_DATA
  Total_Score	| 5.0320
  Crash		| -0.7489
  Polar		| 1.1861
  FragIndex	| 1
  FragRMSD	| 1.026

