@<TRIPOS>MOLECULE
BindingDB_35526
 43 46 0 0 0
SMALL
NO_CHARGES


@<TRIPOS>ATOM
1    C        10.4182   -1.1540   24.9230  C     
2    C         9.3311   -0.4612   24.3320  C     
3    C         8.3067    0.0342   25.1672  C     
4    C         8.3609   -0.1499   26.5597  C     
5    C         9.4363   -0.8487   27.1289  C     
6    C        10.4836   -1.3567   26.3255  C     
7    C        11.5360   -2.0385   26.9694  C     
8    O         9.4663   -1.0830   28.4773  O     
9    C        10.4902   -1.7561   29.0766  C     
10   C        11.5818   -2.2240   28.3168  C     
11   O        12.5289   -2.5096   26.2126  O     
12   O        10.3676   -1.9736   30.4047  O     
13   C        12.7240   -3.9433   31.2085  C     
14   C        12.8600   -2.8523   30.3988  C     
15   C        13.0885   -1.6192   30.9962  C     
16   O        13.0984   -1.4931   32.3610  O     
17   C        12.8891   -2.5595   33.1861  C     
18   C        12.7108   -3.8391   32.6142  C     
19   C        12.5186   -4.9397   33.4845  C     
20   C        12.8564   -2.3723   34.5790  C     
21   C        12.6715   -3.4792   35.4261  C     
22   C        12.5096   -4.7708   34.8885  C     
23   O        12.5144   -5.1445   30.6800  O     
24   O        13.3326   -0.4900   30.2894  O     
25   C        12.7387   -2.9168   28.9303  C     
26   C         9.2781   -0.2782   22.8597  C     
27   C        12.3396   -5.9512   35.7723  C     
28   H        11.1600   -1.5172   24.3201  H     
29   H         7.5044    0.5250   24.7666  H     
30   H         7.6111    0.2132   27.1524  H     
31   H        12.1220   -3.2159   25.6646  H     
32   H        12.3831   -5.8775   33.0950  H     
33   H        12.9632   -1.4342   34.9766  H     
34   H        12.6351   -3.3210   36.4371  H     
35   H        13.3809   -5.4117   30.3079  H     
36   H        12.7140   -3.9503   28.5755  H     
37   H        13.6667   -2.5029   28.5292  H     
38   H        10.1515    0.2781   22.5185  H     
39   H         8.3865    0.2708   22.5522  H     
40   H         9.2649   -1.2505   22.3669  H     
41   H        11.3781   -6.4296   35.5787  H     
42   H        12.3805   -5.6758   36.8261  H     
43   H        13.1391   -6.6665   35.5771  H     
@<TRIPOS>BOND
     1    1    2 1
     2    1    6 2
     3    2    3 2
     4    2   26 1
     5    3    4 1
     6    4    5 2
     7    5    6 1
     8    5    8 1
     9    6    7 1
    10    7   10 2
    11    7   11 1
    12    8    9 1
    13    9   10 1
    14    9   12 2
    15   10   25 1
    16   13   14 2
    17   13   18 1
    18   13   23 1
    19   14   15 1
    20   14   25 1
    21   15   16 1
    22   15   24 2
    23   16   17 1
    24   17   18 2
    25   17   20 1
    26   18   19 1
    27   19   22 2
    28   20   21 2
    29   21   22 1
    30   22   27 1
    31    1   28 1
    32    3   29 1
    33    4   30 1
    34   11   31 1
    35   19   32 1
    36   20   33 1
    37   21   34 1
    38   23   35 1
    39   25   36 1
    40   25   37 1
    41   26   38 1
    42   26   39 1
    43   26   40 1
    44   27   41 1
    45   27   42 1
    46   27   43 1
@<TRIPOS>PROPERTY_DATA
  Total_Score	| 5.2618
  Crash		| -0.8572
  Polar		| 1.1884
  FragIndex	| 1
  FragRMSD	| 0.702

