@<TRIPOS>MOLECULE
BindingDB_35547
 43 47 0 0 0
SMALL
NO_CHARGES


@<TRIPOS>ATOM
1    C        12.6084   -4.9446   33.5492  C     
2    C        12.5275   -4.6538   34.9532  C     
3    C        12.6021   -3.3252   35.4139  C     
4    C        12.7379   -2.2737   34.5043  C     
5    C        12.7656   -2.5408   33.1315  C     
6    C        12.6756   -3.8625   32.6032  C     
7    C        12.6622   -3.9414   31.1770  C     
8    O        12.8541   -1.4635   32.3014  O     
9    C        12.8621   -1.5921   30.9469  C     
10   C        12.7723   -2.8568   30.3622  C     
11   O        12.4768   -5.1216   30.5931  O     
12   O        12.9793   -0.4487   30.2253  O     
13   C        12.8643   -2.9372   28.8935  C     
14   C        11.7898   -2.2825   28.0916  C     
15   C         9.7632   -1.1517   26.4338  C     
16   C         9.4944   -1.4636   27.7849  C     
17   C        10.4847   -2.0533   28.5917  C     
18   C        12.0605   -1.9330   26.7473  C     
19   C        11.0658   -1.3820   25.9070  C     
20   C        12.5345   -7.2850   34.1643  C     
21   C        12.3834   -6.9766   35.4803  C     
22   C        12.3882   -5.6936   35.8876  C     
23   C        12.6350   -6.3215   33.2270  C     
24   C         9.0357   -0.3436   24.2373  C     
25   C         8.7547   -0.6406   25.5813  C     
26   C        11.3367   -1.0682   24.5535  C     
27   C        10.3278   -0.5481   23.7172  C     
28   H        12.5624   -3.1106   36.4159  H     
29   H        12.7933   -1.3114   34.8483  H     
30   H        13.3773   -5.4003   30.3064  H     
31   H        13.8306   -2.4849   28.6322  H     
32   H        12.9178   -3.9716   28.5306  H     
33   H         8.5692   -1.2940   28.1884  H     
34   H        10.2387   -2.3177   29.5422  H     
35   H        12.9968   -2.0938   26.3627  H     
36   H        12.5833   -8.2481   33.9021  H     
37   H        12.2688   -7.7037   36.1506  H     
38   H        12.2988   -5.4922   36.8546  H     
39   H        12.7850   -6.6398   32.2990  H     
40   H         8.2955    0.0006   23.6234  H     
41   H         7.8035   -0.4835   25.9340  H     
42   H        12.2722   -1.2132   24.1621  H     
43   H        10.5278   -0.3381   22.7357  H     
@<TRIPOS>BOND
     1    1    2 1
     2    1    6 2
     3    1   23 1
     4    2    3 2
     5    2   22 1
     6    3    4 1
     7    4    5 2
     8    5    6 1
     9    5    8 1
    10    6    7 1
    11    7   10 2
    12    7   11 1
    13    8    9 1
    14    9   10 1
    15    9   12 2
    16   10   13 1
    17   13   14 1
    18   14   17 1
    19   14   18 2
    20   15   16 1
    21   15   19 2
    22   15   25 1
    23   16   17 2
    24   18   19 1
    25   19   26 1
    26   20   21 1
    27   20   23 2
    28   21   22 2
    29   24   25 2
    30   24   27 1
    31   26   27 2
    32    3   28 1
    33    4   29 1
    34   11   30 1
    35   13   31 1
    36   13   32 1
    37   16   33 1
    38   17   34 1
    39   18   35 1
    40   20   36 1
    41   21   37 1
    42   22   38 1
    43   23   39 1
    44   24   40 1
    45   25   41 1
    46   26   42 1
    47   27   43 1
@<TRIPOS>PROPERTY_DATA
  Total_Score	| 5.7185
  Crash		| -0.8885
  Polar		| 1.1880
  FragIndex	| 1
  FragRMSD	| 0.988

