@<TRIPOS>MOLECULE
BindingDB_2566
 31 33 0 0 0
SMALL
NO_CHARGES


@<TRIPOS>ATOM
1    C        12.2747   -5.0064   33.2271  C     
2    C        12.2625   -4.9172   34.6313  C     
3    C        12.5435   -3.6931   35.2654  C     
4    C        12.8434   -2.5552   34.4949  C     
5    C        12.5770   -3.8721   32.4319  C     
6    C        12.8637   -2.6465   33.0899  C     
7    C        12.5894   -3.8827   31.0251  C     
8    O        12.3126   -5.0383   30.4189  O     
9    C        12.7994   -2.7554   30.2916  C     
10   C        12.6450   -2.7068   28.8303  C     
11   O        13.1334   -1.5362   32.3370  O     
12   C        13.1071   -1.5629   30.9718  C     
13   O        13.3652   -0.4025   30.3262  O     
14   C        11.4883   -1.8915   28.3236  C     
15   C        10.2470   -1.7743   28.9999  C     
16   C        11.6287   -1.2339   27.0760  C     
17   C        10.5883   -0.4526   26.5374  C     
18   C         9.3794   -0.3228   27.2367  C     
19   C         9.2029   -0.9953   28.4621  C     
20   H        12.0459   -5.9004   32.7926  H     
21   H        12.0294   -5.7412   35.1941  H     
22   H        12.5375   -3.6326   36.2875  H     
23   H        13.0421   -1.6648   34.9568  H     
24   H        13.1277   -5.2767   29.9262  H     
25   H        13.5744   -2.3039   28.4146  H     
26   H        12.5398   -3.6995   28.3915  H     
27   H        10.0967   -2.2622   29.8847  H     
28   H        12.5018   -1.3175   26.5490  H     
29   H        10.7194    0.0177   25.6429  H     
30   H         8.6244    0.2400   26.8466  H     
31   H         8.3109   -0.9137   28.9565  H     
@<TRIPOS>BOND
     1    1    2 1
     2    1    5 2
     3    2    3 2
     4    3    4 1
     5    4    6 2
     6    5    6 1
     7    5    7 1
     8    6   11 1
     9    7    8 1
    10    7    9 2
    11    9   10 1
    12    9   12 1
    13   10   14 1
    14   11   12 1
    15   12   13 2
    16   14   15 2
    17   14   16 1
    18   15   19 1
    19   16   17 2
    20   17   18 1
    21   18   19 2
    22    1   20 1
    23    2   21 1
    24    3   22 1
    25    4   23 1
    26    8   24 1
    27   10   25 1
    28   10   26 1
    29   15   27 1
    30   16   28 1
    31   17   29 1
    32   18   30 1
    33   19   31 1
@<TRIPOS>PROPERTY_DATA
  Total_Score	| 3.3526
  Crash		| -0.5901
  Polar		| 1.1862
  FragIndex	| 1
  FragRMSD	| 0.203

