@<TRIPOS>MOLECULE
BindingDB_35541
 43 46 0 0 0
SMALL
NO_CHARGES


@<TRIPOS>ATOM
1    C        12.7521   -5.2573   33.1727  C     
2    C        12.6755   -5.2015   34.5865  C     
3    C        12.6514   -3.9285   35.2296  C     
4    C        12.7235   -2.7583   34.4390  C     
5    C        12.8170   -2.8370   33.0409  C     
6    C        12.8234   -4.0866   32.3813  C     
7    C        12.8723   -4.0928   30.9748  C     
8    O        12.9096   -1.6958   32.2941  O     
9    C        12.9701   -1.7229   30.9350  C     
10   C        12.9138   -2.9465   30.2462  C     
11   O        12.8393   -5.2741   30.3572  O     
12   O        13.0903   -0.5320   30.2983  O     
13   C        12.8858   -2.9246   28.7770  C     
14   C        11.6672   -2.3182   28.1582  C     
15   C        12.6430   -6.5045   35.3072  C     
16   C        12.5856   -3.7858   36.7085  C     
17   C         9.4261   -1.0644   26.9273  C     
18   C         9.3563   -1.4950   28.2693  C     
19   C        10.4549   -2.1371   28.8679  C     
20   C        11.7212   -1.9066   26.8053  C     
21   C        10.6180   -1.2852   26.1821  C     
22   C        10.6833   -0.8849   24.8282  C     
23   C         9.5735   -0.2836   24.2109  C     
24   C         8.3973   -0.0629   24.9484  C     
25   C         8.3255   -0.4380   26.3011  C     
26   H        12.7684   -6.1728   32.7139  H     
27   H        12.6964   -1.8334   34.8747  H     
28   H        13.7752   -5.4739   30.1341  H     
29   H        13.7644   -2.3542   28.4641  H     
30   H        13.0067   -3.9184   28.3395  H     
31   H        11.7767   -7.0843   34.9849  H     
32   H        12.5863   -6.4009   36.3873  H     
33   H        13.5481   -7.0691   35.0804  H     
34   H        11.7113   -4.3064   37.1003  H     
35   H        12.5165   -2.7460   37.0286  H     
36   H        13.4866   -4.2147   37.1496  H     
37   H         8.5071   -1.3560   28.8244  H     
38   H        10.3602   -2.4625   29.8304  H     
39   H        12.5838   -2.0553   26.2721  H     
40   H        11.5331   -1.0360   24.2767  H     
41   H         9.6199   -0.0035   23.2279  H     
42   H         7.5890    0.3678   24.4961  H     
43   H         7.4608   -0.2634   26.8194  H     
@<TRIPOS>BOND
     1    1    2 1
     2    1    6 2
     3    2    3 2
     4    2   15 1
     5    3    4 1
     6    3   16 1
     7    4    5 2
     8    5    6 1
     9    5    8 1
    10    6    7 1
    11    7   10 2
    12    7   11 1
    13    8    9 1
    14    9   10 1
    15    9   12 2
    16   10   13 1
    17   13   14 1
    18   14   19 1
    19   14   20 2
    20   17   18 1
    21   17   21 2
    22   17   25 1
    23   18   19 2
    24   20   21 1
    25   21   22 1
    26   22   23 2
    27   23   24 1
    28   24   25 2
    29    1   26 1
    30    4   27 1
    31   11   28 1
    32   13   29 1
    33   13   30 1
    34   15   31 1
    35   15   32 1
    36   15   33 1
    37   16   34 1
    38   16   35 1
    39   16   36 1
    40   18   37 1
    41   19   38 1
    42   20   39 1
    43   22   40 1
    44   23   41 1
    45   24   42 1
    46   25   43 1
@<TRIPOS>PROPERTY_DATA
  Total_Score	| 4.8478
  Crash		| -0.9928
  Polar		| 0.9809
  FragIndex	| 1
  FragRMSD	| 1.054

