@<TRIPOS>MOLECULE
BindingDB_35550
 37 40 0 0 0
SMALL
NO_CHARGES


@<TRIPOS>ATOM
1    C        12.3121   -5.1640   33.4189  C     
2    C        12.2744   -5.1033   34.8259  C     
3    C        12.5593   -3.8977   35.4885  C     
4    C        12.8677   -2.7449   34.7455  C     
5    C        12.9129   -2.8079   33.3389  C     
6    C        12.6537   -4.0230   32.6526  C     
7    C        12.6886   -4.0131   31.2438  C     
8    O        13.2148   -1.6932   32.6011  O     
9    C        13.2262   -1.7034   31.2403  C     
10   C        12.9222   -2.8775   30.5313  C     
11   O        12.4003   -5.1530   30.6102  O     
12   O        13.5081   -0.5343   30.6131  O     
13   C        12.7802   -2.8021   29.0665  C     
14   C        11.5433   -2.1168   28.5663  C     
15   C         9.2490   -0.8116   27.4954  C     
16   C         9.2687   -1.2323   28.8428  C     
17   C        10.3984   -1.8884   29.3679  C     
18   C        11.5117   -1.6968   27.2147  C     
19   C        10.3801   -1.0497   26.6701  C     
20   C         8.0934    0.2189   25.5994  C     
21   C         8.1165   -0.1666   26.9532  C     
22   C        10.3520   -0.6519   25.3153  C     
23   C         9.2068   -0.0316   24.7791  C     
24   H        12.0947   -6.0544   32.9648  H     
25   H        12.0449   -5.9392   35.3663  H     
26   H        12.5385   -3.8587   36.5093  H     
27   H        13.0450   -1.8611   35.2279  H     
28   H        13.2331   -5.4499   30.1794  H     
29   H        13.6592   -2.2738   28.6844  H     
30   H        12.8142   -3.7915   28.6043  H     
31   H         8.4599   -1.0752   29.4472  H     
32   H        10.3703   -2.1981   30.3415  H     
33   H        12.3299   -1.8665   26.6228  H     
34   H         7.2679    0.6768   25.2107  H     
35   H         7.2907    0.0181   27.5298  H     
36   H        11.1589   -0.8146   24.7023  H     
37   H         9.1882    0.2416   23.7936  H     
@<TRIPOS>BOND
     1    1    2 1
     2    1    6 2
     3    2    3 2
     4    3    4 1
     5    4    5 2
     6    5    6 1
     7    5    8 1
     8    6    7 1
     9    7   10 2
    10    7   11 1
    11    8    9 1
    12    9   10 1
    13    9   12 2
    14   10   13 1
    15   13   14 1
    16   14   17 1
    17   14   18 2
    18   15   16 1
    19   15   19 2
    20   15   21 1
    21   16   17 2
    22   18   19 1
    23   19   22 1
    24   20   21 2
    25   20   23 1
    26   22   23 2
    27    1   24 1
    28    2   25 1
    29    3   26 1
    30    4   27 1
    31   11   28 1
    32   13   29 1
    33   13   30 1
    34   16   31 1
    35   17   32 1
    36   18   33 1
    37   20   34 1
    38   21   35 1
    39   22   36 1
    40   23   37 1
@<TRIPOS>PROPERTY_DATA
  Total_Score	| 4.3104
  Crash		| -0.6441
  Polar		| 1.2015
  FragIndex	| 1
  FragRMSD	| 0.647

