@<TRIPOS>MOLECULE
BindingDB_35552
 43 45 0 0 0
SMALL
NO_CHARGES


@<TRIPOS>ATOM
1    C        12.6556   -5.1722   33.1187  C     
2    C        12.6245   -5.0660   34.5329  C     
3    C        12.6529   -3.7705   35.1292  C     
4    C        12.7426   -2.6307   34.2907  C     
5    C        12.8042   -2.7618   32.8923  C     
6    C        12.7448   -4.0341   32.2813  C     
7    C        12.7577   -4.0920   30.8729  C     
8    O        12.9485   -1.6599   32.0981  O     
9    C        12.9848   -1.7402   30.7375  C     
10   C        12.8278   -2.9788   30.0950  C     
11   O        12.6682   -5.2936   30.3091  O     
12   O        13.1611   -0.5835   30.0602  O     
13   C        12.7494   -3.0213   28.6246  C     
14   C        11.6492   -2.2087   28.0126  C     
15   C         9.6139   -0.5842   26.8265  C     
16   C        10.8463   -0.8077   26.1749  C     
17   C        11.8498   -1.5995   26.7566  C     
18   C        10.3943   -2.0356   28.6443  C     
19   C         9.3907   -1.1969   28.0943  C     
20   C         8.1555   -0.9372   28.8772  C     
21   C         8.6296    0.2809   26.1209  C     
22   C        12.5766   -6.3418   35.2989  C     
23   C        12.6085   -3.5730   36.6003  C     
24   H        12.6212   -6.1041   32.6881  H     
25   H        12.7668   -1.6870   34.6911  H     
26   H        13.5771   -5.4975   29.9985  H     
27   H        13.7197   -2.6765   28.2597  H     
28   H        12.6319   -4.0373   28.2400  H     
29   H        11.0329   -0.3782   25.2632  H     
30   H        12.7312   -1.7332   26.2496  H     
31   H        10.2243   -2.5052   29.5339  H     
32   H         8.0698    0.1352   29.0669  H     
33   H         8.1537   -1.4384   29.8439  H     
34   H         7.2839   -1.2785   28.3187  H     
35   H         9.0838    1.2466   25.9126  H     
36   H         7.7174    0.4615   26.6869  H     
37   H         8.3467   -0.1849   25.1754  H     
38   H        11.6838   -6.9037   35.0266  H     
39   H        12.5651   -6.2007   36.3754  H     
40   H        13.4545   -6.9428   35.0586  H     
41   H        11.7507   -4.0878   37.0293  H     
42   H        12.5272   -2.5223   36.8749  H     
43   H        13.5209   -3.9730   37.0394  H     
@<TRIPOS>BOND
     1    1    2 1
     2    1    6 2
     3    2    3 2
     4    2   22 1
     5    3    4 1
     6    3   23 1
     7    4    5 2
     8    5    6 1
     9    5    8 1
    10    6    7 1
    11    7   10 2
    12    7   11 1
    13    8    9 1
    14    9   10 1
    15    9   12 2
    16   10   13 1
    17   13   14 1
    18   14   17 1
    19   14   18 2
    20   15   16 1
    21   15   19 2
    22   15   21 1
    23   16   17 2
    24   18   19 1
    25   19   20 1
    26    1   24 1
    27    4   25 1
    28   11   26 1
    29   13   27 1
    30   13   28 1
    31   16   29 1
    32   17   30 1
    33   18   31 1
    34   20   32 1
    35   20   33 1
    36   20   34 1
    37   21   35 1
    38   21   36 1
    39   21   37 1
    40   22   38 1
    41   22   39 1
    42   22   40 1
    43   23   41 1
    44   23   42 1
    45   23   43 1
@<TRIPOS>PROPERTY_DATA
  Total_Score	| 4.5423
  Crash		| -1.4538
  Polar		| 1.1512
  FragIndex	| 1
  FragRMSD	| 1.452

