@<TRIPOS>MOLECULE
BindingDB_91916
 40 43 0 0 0
SMALL
NO_CHARGES


@<TRIPOS>ATOM
1    O        16.4264   -1.9869    8.6182  O     
2    C        17.0502   -2.9529    9.0431  C     
3    N        18.2954   -2.9095    8.6123  N     
4    C        19.3566   -3.7242    8.7913  C     
5    C        19.3757   -4.9047    9.5753  C     
6    N        18.3313   -5.4280   10.2601  N     
7    C        17.0312   -5.0364   10.4329  C     
8    C        16.4109   -3.8764    9.8778  C     
9    C        15.0578   -3.6218   10.2438  C     
10   C        14.3603   -4.4312   11.1499  C     
11   C        14.9514   -5.5887   11.6820  C     
12   C        16.2827   -5.8922   11.2995  C     
13   C        14.1954   -6.4058   12.5884  C     
14   C        12.9137   -6.8206   12.1383  C     
15   C        12.0837   -7.6309   12.9297  C     
16   C        12.4916   -8.0052   14.2149  C     
17   C        13.7312   -7.5644   14.7045  C     
18   C        14.6090   -6.7568   13.9189  C     
19   C        15.8045   -6.3138   14.5092  C     
20   O        16.8168   -6.0809   13.8236  O     
21   N        15.9404   -6.1606   15.8124  N     
22   C        20.5865   -5.6310    9.6729  C     
23   C        21.7396   -5.2338    8.9716  C     
24   C        21.7077   -4.0815    8.1746  C     
25   C        20.5292   -3.3220    8.1074  C     
26   H        18.4890   -2.1278    8.0679  H     
27   H        18.5521   -6.2518   10.7267  H     
28   H        14.5587   -2.8024    9.8876  H     
29   H        13.4164   -4.1429   11.4344  H     
30   H        16.7307   -6.6936   11.7746  H     
31   H        12.5649   -6.5471   11.2115  H     
32   H        11.1888   -7.9552   12.5600  H     
33   H        11.8853   -8.5966   14.7928  H     
34   H        13.9909   -7.8617   15.6504  H     
35   H        16.7981   -5.8887   16.1742  H     
36   H        15.1855   -6.2679   16.4204  H     
37   H        20.6420   -6.4683   10.2598  H     
38   H        22.5988   -5.7888    9.0364  H     
39   H        22.5374   -3.7974    7.6497  H     
40   H        20.5337   -2.4719    7.5348  H     
@<TRIPOS>BOND
     1    1    2 2
     2    2    3 1
     3    3    4 1
     4    4    5 ar
     5    5    6 1
     6    6    7 1
     7    7    8 ar
     8    2    8 1
     9    8    9 ar
    10    9   10 ar
    11   10   11 ar
    12   11   12 ar
    13    7   12 ar
    14   11   13 1
    15   13   14 ar
    16   14   15 ar
    17   15   16 ar
    18   16   17 ar
    19   17   18 ar
    20   13   18 ar
    21   18   19 1
    22   19   20 2
    23   19   21 am
    24    5   22 ar
    25   22   23 ar
    26   23   24 ar
    27   24   25 ar
    28    4   25 ar
    29    3   26 1
    30    6   27 1
    31    9   28 1
    32   10   29 1
    33   12   30 1
    34   14   31 1
    35   15   32 1
    36   16   33 1
    37   17   34 1
    38   21   35 1
    39   21   36 1
    40   22   37 1
    41   23   38 1
    42   24   39 1
    43   25   40 1
@<TRIPOS>PROPERTY_DATA
  Total_Score	| 4.5291
  Crash		| -1.6052
  Polar		| 2.5200
  FragIndex	| 1
  FragRMSD	| 0.630

