@<TRIPOS>MOLECULE
BindingDB_50218731
 37 40 0 0 0
SMALL
NO_CHARGES


@<TRIPOS>ATOM
1    C        14.5490   -4.9782   11.1513  C     
2    C        15.2758   -6.1003   11.5887  C     
3    C        16.6195   -6.2306   11.1842  C     
4    C        15.1605   -4.0175   10.3365  C     
5    N        18.5543   -5.5596   10.1279  N     
6    C        17.2559   -5.2594   10.3725  C     
7    C        16.5250   -4.1186    9.9302  C     
8    C        17.0699   -3.0899    9.1455  C     
9    N        18.2888   -2.9555    8.6576  N     
10   C        19.4071   -3.7152    8.7349  C     
11   C        19.5320   -4.9434    9.4266  C     
12   C        20.7764   -5.6217    9.4091  C     
13   C        21.8780   -5.0952    8.7184  C     
14   C        21.7539   -3.8795    8.0339  C     
15   C        20.5267   -3.1980    8.0424  C     
16   O        16.3727   -2.1336    8.8247  O     
17   C        14.6782   -7.0703   12.4209  C     
18   C        14.2479   -6.7413   13.7273  C     
19   C        13.6493   -7.7156   14.5444  C     
20   C        13.4486   -9.0236   14.0623  C     
21   C        13.8700   -9.3653   12.7560  C     
22   C        14.5043   -8.3937   11.9522  C     
23   C        13.6347  -10.5484   12.2708  C     
24   N        13.4167  -11.5879   11.8244  N     
25   H        13.5657   -4.8631   11.4142  H     
26   H        17.1505   -7.0425   11.5196  H     
27   H        14.5823   -3.2224   10.0489  H     
28   H        18.8474   -6.3858   10.5499  H     
29   H        18.4122   -2.1403    8.1379  H     
30   H        20.8886   -6.5133    9.9021  H     
31   H        22.7687   -5.6011    8.7076  H     
32   H        22.5504   -3.4944    7.5185  H     
33   H        20.4554   -2.3174    7.5230  H     
34   H        14.3922   -5.7966   14.0986  H     
35   H        13.3522   -7.4743   15.4949  H     
36   H        12.9905   -9.7130   14.6650  H     
37   H        14.8012   -8.6290   10.9984  H     
@<TRIPOS>BOND
     1    1    2 2
     2    1    4 1
     3    2    3 1
     4    2   17 1
     5    3    6 2
     6    4    7 2
     7    5    6 1
     8    5   11 1
     9    6    7 1
    10    7    8 1
    11    8    9 1
    12    8   16 2
    13    9   10 1
    14   10   11 2
    15   10   15 1
    16   11   12 1
    17   12   13 2
    18   13   14 1
    19   14   15 2
    20   17   18 2
    21   17   22 1
    22   18   19 1
    23   19   20 2
    24   20   21 1
    25   21   22 2
    26   21   23 1
    27   23   24 3
    28    1   25 1
    29    3   26 1
    30    4   27 1
    31    5   28 1
    32    9   29 1
    33   12   30 1
    34   13   31 1
    35   14   32 1
    36   15   33 1
    37   18   34 1
    38   19   35 1
    39   20   36 1
    40   22   37 1
@<TRIPOS>PROPERTY_DATA
  Total_Score	| 4.3949
  Crash		| -0.8461
  Polar		| 1.2523
  FragIndex	| 1
  FragRMSD	| 0.362

