@<TRIPOS>MOLECULE
BindingDB_50218734
 26 28 0 0 0
SMALL
NO_CHARGES


@<TRIPOS>ATOM
1    C        14.5062   -5.3531   10.8757  C     
2    C        15.1835   -6.5634   11.0542  C     
3    C        16.5365   -6.6549   10.7017  C     
4    C        15.1856   -4.2454   10.3455  C     
5    N        18.5315   -5.8353    9.8945  N     
6    C        17.2377   -5.5452   10.1678  C     
7    C        16.5625   -4.3038    9.9773  C     
8    C        17.1681   -3.1493    9.4545  C     
9    N        18.4076   -2.9546    9.0457  N     
10   C        19.4994   -3.7568    8.9831  C     
11   C        19.5537   -5.1137    9.3818  C     
12   C        20.7702   -5.8226    9.2537  C     
13   C        21.9208   -5.2029    8.7410  C     
14   C        21.8717   -3.8568    8.3453  C     
15   C        20.6664   -3.1440    8.4641  C     
16   O        16.5123   -2.1216    9.3267  O     
17   Cl       23.2542   -3.1034    7.7265  Cl    
18   H        13.5187   -5.2787   11.1292  H     
19   H        14.6953   -7.3747   11.4394  H     
20   H        17.0068   -7.5549   10.8441  H     
21   H        14.6435   -3.3849   10.2345  H     
22   H        18.7765   -6.7533   10.0998  H     
23   H        18.5778   -2.0527    8.7324  H     
24   H        20.8311   -6.8055    9.5355  H     
25   H        22.7888   -5.7375    8.6595  H     
26   H        20.6396   -2.1608    8.1774  H     
@<TRIPOS>BOND
     1    1    2 2
     2    1    4 1
     3    2    3 1
     4    3    6 2
     5    4    7 2
     6    5    6 1
     7    5   11 1
     8    6    7 1
     9    7    8 1
    10    8    9 1
    11    8   16 2
    12    9   10 1
    13   10   11 2
    14   10   15 1
    15   11   12 1
    16   12   13 2
    17   13   14 1
    18   14   15 2
    19   14   17 1
    20    1   18 1
    21    2   19 1
    22    3   20 1
    23    4   21 1
    24    5   22 1
    25    9   23 1
    26   12   24 1
    27   13   25 1
    28   15   26 1
@<TRIPOS>PROPERTY_DATA
  Total_Score	| 3.9340
  Crash		| -0.5421
  Polar		| 2.5876
  FragIndex	| 1
  FragRMSD	| 0.033

