@<TRIPOS>MOLECULE
BindingDB_50218725
 41 44 0 0 0
SMALL
NO_CHARGES


@<TRIPOS>ATOM
1    C        14.6534   -4.9028   11.3711  C     
2    C        15.4685   -5.8161   12.0594  C     
3    C        16.8210   -5.9120   11.6857  C     
4    C        15.1716   -4.1112   10.3433  C     
5    N        18.6835   -5.3720   10.4121  N     
6    C        17.3664   -5.1051   10.6567  C     
7    C        16.5563   -4.1383   10.0023  C     
8    C        17.0515   -3.1575    9.1168  C     
9    N        18.2627   -2.9939    8.6199  N     
10   C        19.4053   -3.6976    8.7386  C     
11   C        19.6009   -4.8248    9.5742  C     
12   C        20.8648   -5.4628    9.5892  C     
13   C        21.9285   -4.9950    8.7855  C     
14   C        21.7380   -3.8647    7.9789  C     
15   C        20.4907   -3.2133    7.9689  C     
16   O        16.3063   -2.2630    8.7155  O     
17   C        14.9535   -6.5013   13.2058  C     
18   C        14.7988   -5.6974   14.3753  C     
19   C        14.2715   -6.2280   15.5602  C     
20   C        13.9359   -7.5828   15.6271  C     
21   C        14.1046   -8.3973   14.4921  C     
22   C        14.5561   -7.8913   13.2319  C     
23   C        14.5833   -8.7517   12.1052  C     
24   O        15.0752   -8.3471   11.0432  O     
25   C        14.0380  -10.0982   12.0279  C     
26   H        13.6554   -4.8210   11.6003  H     
27   H        17.4146   -6.5809   12.1743  H     
28   H        14.5331   -3.4683    9.8776  H     
29   H        19.0372   -6.0984   10.9546  H     
30   H        18.3509   -2.2136    8.0464  H     
31   H        21.0292   -6.2827   10.1840  H     
32   H        22.8383   -5.4624    8.8207  H     
33   H        22.5131   -3.5218    7.3922  H     
34   H        20.3810   -2.4035    7.3523  H     
35   H        15.0804   -4.6969   14.3804  H     
36   H        14.1285   -5.6253   16.3868  H     
37   H        13.5632   -7.9805   16.4940  H     
38   H        13.8625   -9.3831   14.6043  H     
39   H        14.5771  -10.7602   12.7136  H     
40   H        14.1207  -10.5170   11.0047  H     
41   H        12.9676  -10.1127   12.2795  H     
@<TRIPOS>BOND
     1    1    2 2
     2    1    4 1
     3    2    3 1
     4    2   17 1
     5    3    6 2
     6    4    7 2
     7    5    6 1
     8    5   11 1
     9    6    7 1
    10    7    8 1
    11    8    9 1
    12    8   16 2
    13    9   10 1
    14   10   11 2
    15   10   15 1
    16   11   12 1
    17   12   13 2
    18   13   14 1
    19   14   15 2
    20   17   18 2
    21   17   22 1
    22   18   19 1
    23   19   20 2
    24   20   21 1
    25   21   22 2
    26   22   23 1
    27   23   24 2
    28   23   25 1
    29    1   26 1
    30    3   27 1
    31    4   28 1
    32    5   29 1
    33    9   30 1
    34   12   31 1
    35   13   32 1
    36   14   33 1
    37   15   34 1
    38   18   35 1
    39   19   36 1
    40   20   37 1
    41   21   38 1
    42   25   39 1
    43   25   40 1
    44   25   41 1
@<TRIPOS>PROPERTY_DATA
  Total_Score	| 5.3765
  Crash		| -1.1807
  Polar		| 1.1586
  FragIndex	| 1
  FragRMSD	| 0.632

