@<TRIPOS>MOLECULE
BindingDB_91899
 31 33 0 0 0
SMALL
NO_CHARGES


@<TRIPOS>ATOM
1    O        24.2129   -2.4096    9.0286  O     
2    C        24.1590   -3.1881    7.9219  C     
3    O        25.2584   -3.8968    7.5760  O     
4    C        22.9129   -3.3181    7.1465  C     
5    C        21.7834   -3.8762    7.9374  C     
6    C        21.8746   -5.1776    8.4697  C     
7    C        20.7940   -5.7406    9.1644  C     
8    C        19.5812   -5.0360    9.3234  C     
9    N        18.6171   -5.7112    9.9832  N     
10   C        17.3227   -5.4218   10.2912  C     
11   C        16.6840   -6.4797   10.9827  C     
12   C        15.3463   -6.3884   11.3960  C     
13   Cl       14.6374   -7.6518   12.2677  Cl    
14   C        14.6159   -5.2301   11.1000  C     
15   C        15.2343   -4.1718   10.4167  C     
16   C        16.5951   -4.2321    9.9935  C     
17   C        17.1464   -3.1238    9.3271  C     
18   O        16.4667   -2.1207    9.1408  O     
19   N        18.3603   -2.9509    8.8355  N     
20   C        19.4594   -3.7402    8.7723  C     
21   C        20.5647   -3.1775    8.0881  C     
22   H        22.6766   -2.3242    6.7488  H     
23   H        23.0766   -3.9761    6.2899  H     
24   H        22.7251   -5.7304    8.3348  H     
25   H        20.8972   -6.6919    9.5338  H     
26   H        18.8921   -6.5968   10.2691  H     
27   H        17.2000   -7.3345   11.2098  H     
28   H        13.6382   -5.1431   11.3892  H     
29   H        14.6610   -3.3403   10.2392  H     
30   H        18.5056   -2.0666    8.4601  H     
31   H        20.4655   -2.2608    7.6429  H     
@<TRIPOS>BOND
     1    1    2 1
     2    2    3 2
     3    2    4 1
     4    4    5 1
     5    5    6 ar
     6    6    7 ar
     7    7    8 ar
     8    8    9 1
     9    9   10 1
    10   10   11 ar
    11   11   12 ar
    12   12   13 1
    13   12   14 ar
    14   14   15 ar
    15   15   16 ar
    16   10   16 ar
    17   16   17 1
    18   17   18 2
    19   17   19 1
    20   19   20 1
    21    8   20 ar
    22   20   21 ar
    23    5   21 ar
    24    4   22 1
    25    4   23 1
    26    6   24 1
    27    7   25 1
    28    9   26 1
    29   11   27 1
    30   14   28 1
    31   15   29 1
    32   19   30 1
    33   21   31 1
@<TRIPOS>PROPERTY_DATA
  Total_Score	| 3.3450
  Crash		| -0.6256
  Polar		| 1.6253
  FragIndex	| 1
  FragRMSD	| 0.258

