@<TRIPOS>MOLECULE
BindingDB_91860
 37 39 0 0 0
SMALL
NO_CHARGES


@<TRIPOS>ATOM
1    C        22.6326   -4.8571    4.4376  C     
2    O        22.5959   -4.5016    5.8171  O     
3    C        23.4701   -3.7041    6.4827  C     
4    O        24.5176   -3.1401    5.8397  O     
5    C        23.2743   -3.4206    7.9218  C     
6    C        22.0249   -4.0133    8.4679  C     
7    C        22.0062   -5.3618    8.8809  C     
8    C        20.8233   -5.9348    9.3737  C     
9    C        19.6265   -5.1889    9.4508  C     
10   N        18.5818   -5.8529    9.9856  N     
11   C        17.2939   -5.4991   10.2594  C     
12   C        16.5666   -6.5408   10.8861  C     
13   C        15.2215   -6.3765   11.2628  C     
14   N        14.5550   -7.3722   11.8699  N     
15   C        14.5869   -5.1542   11.0039  C     
16   C        15.2917   -4.1174   10.3788  C     
17   C        16.6587   -4.2534    9.9850  C     
18   C        17.2860   -3.1658    9.3551  C     
19   O        16.6478   -2.1516    9.1115  O     
20   N        18.5408   -3.0342    8.9523  N     
21   C        19.6146   -3.8531    8.9850  C     
22   C        20.8174   -3.2859    8.4903  C     
23   H        22.5547   -3.9580    3.8278  H     
24   H        21.7861   -5.5123    4.2330  H     
25   H        23.5619   -5.3809    4.2186  H     
26   H        23.2665   -2.3381    8.0644  H     
27   H        24.1354   -3.8054    8.4742  H     
28   H        22.8558   -5.9288    8.8377  H     
29   H        20.8542   -6.9072    9.6938  H     
30   H        18.7951   -6.7682   10.2291  H     
31   H        17.0169   -7.4399   11.0847  H     
32   H        14.9955   -8.2186   12.0487  H     
33   H        13.6292   -7.2474   12.1343  H     
34   H        13.6076   -5.0142   11.2711  H     
35   H        14.7816   -3.2456   10.2167  H     
36   H        18.7385   -2.1649    8.5708  H     
37   H        20.8194   -2.3190    8.1476  H     
@<TRIPOS>BOND
     1    1    2 1
     2    2    3 1
     3    3    4 2
     4    3    5 1
     5    5    6 1
     6    6    7 ar
     7    7    8 ar
     8    8    9 ar
     9    9   10 1
    10   10   11 1
    11   11   12 ar
    12   12   13 ar
    13   13   14 1
    14   13   15 ar
    15   15   16 ar
    16   16   17 ar
    17   11   17 ar
    18   17   18 1
    19   18   19 2
    20   18   20 1
    21   20   21 1
    22    9   21 ar
    23   21   22 ar
    24    6   22 ar
    25    1   23 1
    26    1   24 1
    27    1   25 1
    28    5   26 1
    29    5   27 1
    30    7   28 1
    31    8   29 1
    32   10   30 1
    33   12   31 1
    34   14   32 1
    35   14   33 1
    36   15   34 1
    37   16   35 1
    38   20   36 1
    39   22   37 1
@<TRIPOS>PROPERTY_DATA
  Total_Score	| 4.1181
  Crash		| -0.7880
  Polar		| 1.8921
  FragIndex	| 1
  FragRMSD	| 0.209

