@<TRIPOS>MOLECULE
BindingDB_50218707
 41 44 0 0 0
SMALL
NO_CHARGES


@<TRIPOS>ATOM
1    C        14.3806   -4.9051   10.8405  C     
2    C        15.0355   -6.0135   11.4378  C     
3    C        16.4340   -6.1035   11.1816  C     
4    C        15.0814   -3.9524   10.1038  C     
5    N        18.4439   -5.5442   10.1627  N     
6    C        17.1464   -5.1945   10.3633  C     
7    C        16.4739   -4.0527    9.8405  C     
8    C        17.0960   -3.0408    9.1046  C     
9    N        18.3416   -2.9428    8.6735  N     
10   C        19.4235   -3.7605    8.7739  C     
11   C        19.4637   -4.9962    9.4603  C     
12   C        20.6593   -5.7530    9.4606  C     
13   C        21.8163   -5.2912    8.8176  C     
14   C        21.7873   -4.0567    8.1542  C     
15   C        20.5991   -3.3041    8.1287  C     
16   O        16.4480   -2.0570    8.7752  O     
17   C        14.3059   -6.9871   12.2341  C     
18   C        14.6361   -8.3764   12.2379  C     
19   C        13.9499   -9.3299   13.0051  C     
20   C        12.8424   -8.9700   13.8168  C     
21   C        12.4994   -7.5890   13.8346  C     
22   C        13.1997   -6.6426   13.0685  C     
23   C        12.1070   -9.9049   14.5672  C     
24   O        11.1166   -9.5346   15.1921  O     
25   C        12.4232  -11.3236   14.6724  C     
26   H        13.3664   -4.7767   10.9098  H     
27   H        16.9742   -6.8448   11.6197  H     
28   H        14.5247   -3.1725    9.7275  H     
29   H        18.6816   -6.3800   10.5902  H     
30   H        18.5103   -2.1246    8.1730  H     
31   H        20.7024   -6.6562    9.9413  H     
32   H        22.6728   -5.8462    8.8353  H     
33   H        22.6255   -3.7135    7.6848  H     
34   H        20.6011   -2.4132    7.6282  H     
35   H        15.3765   -8.7433   11.6501  H     
36   H        14.2707  -10.3063   12.9614  H     
37   H        11.7306   -7.2534   14.4309  H     
38   H        12.8700   -5.6820   13.1611  H     
39   H        12.4456  -11.7876   13.6721  H     
40   H        11.6635  -11.8469   15.2671  H     
41   H        13.3956  -11.4576   15.1642  H     
@<TRIPOS>BOND
     1    1    2 2
     2    1    4 1
     3    2    3 1
     4    2   17 1
     5    3    6 2
     6    4    7 2
     7    5    6 1
     8    5   11 1
     9    6    7 1
    10    7    8 1
    11    8    9 1
    12    8   16 2
    13    9   10 1
    14   10   11 2
    15   10   15 1
    16   11   12 1
    17   12   13 2
    18   13   14 1
    19   14   15 2
    20   17   18 2
    21   17   22 1
    22   18   19 1
    23   19   20 2
    24   20   21 1
    25   20   23 1
    26   21   22 2
    27   23   24 2
    28   23   25 1
    29    1   26 1
    30    3   27 1
    31    4   28 1
    32    5   29 1
    33    9   30 1
    34   12   31 1
    35   13   32 1
    36   14   33 1
    37   15   34 1
    38   18   35 1
    39   19   36 1
    40   21   37 1
    41   22   38 1
    42   25   39 1
    43   25   40 1
    44   25   41 1
@<TRIPOS>PROPERTY_DATA
  Total_Score	| 4.4045
  Crash		| -0.8230
  Polar		| 1.2143
  FragIndex	| 1
  FragRMSD	| 0.418

