@<TRIPOS>MOLECULE
BindingDB_91901
 40 43 0 0 0
SMALL
NO_CHARGES


@<TRIPOS>ATOM
1    O        16.5016   -5.4030   13.0926  O     
2    C        15.4814   -5.5234   13.9819  C     
3    O        15.5031   -4.5846   14.9599  O     
4    C        14.6385   -6.6751   14.0654  C     
5    C        13.9660   -6.8832   15.3036  C     
6    C        13.1733   -8.0161   15.5400  C     
7    C        13.0135   -8.9800   14.5251  C     
8    Cl       12.0435  -10.3412   14.8100  Cl    
9    C        13.6478   -8.7968   13.2850  C     
10   C        14.4335   -7.6476   13.0249  C     
11   N        14.8748   -7.6109   11.7398  N     
12   C        15.4141   -6.5782   11.0683  C     
13   C        14.6770   -5.4190   10.7985  C     
14   C        15.3190   -4.3053   10.2328  C     
15   C        16.6981   -4.3192    9.8805  C     
16   C        17.2557   -3.1581    9.3142  C     
17   O        16.5668   -2.1585    9.1599  O     
18   N        18.4803   -2.9463    8.8630  N     
19   C        19.5932   -3.7124    8.8185  C     
20   C        20.7139   -3.0885    8.2080  C     
21   C        21.9503   -3.7359    8.1336  C     
22   C        22.0938   -5.0302    8.6537  C     
23   C        20.9854   -5.6699    9.2445  C     
24   C        19.7328   -5.0225    9.3384  C     
25   N        18.7566   -5.7488    9.9237  N     
26   C        17.4374   -5.5109   10.1494  C     
27   C        16.7854   -6.6170   10.7516  C     
28   H        14.0694   -6.2187   16.0826  H     
29   H        12.7065   -8.1329   16.4414  H     
30   H        13.4900   -9.4946   12.5480  H     
31   H        14.7384   -8.4154   11.2128  H     
32   H        13.6870   -5.3660   11.0410  H     
33   H        14.7273   -3.4889   10.0416  H     
34   H        18.6199   -2.0462    8.5260  H     
35   H        20.6354   -2.1401    7.8197  H     
36   H        22.7527   -3.2637    7.7076  H     
37   H        22.9950   -5.5036    8.6127  H     
38   H        21.1173   -6.6156    9.6203  H     
39   H        19.0538   -6.6318   10.2134  H     
40   H        17.3066   -7.4702   10.9796  H     
@<TRIPOS>BOND
     1    1    2 1
     2    2    3 2
     3    2    4 1
     4    4    5 ar
     5    5    6 ar
     6    6    7 ar
     7    7    8 1
     8    7    9 ar
     9    9   10 ar
    10    4   10 ar
    11   10   11 1
    12   11   12 1
    13   12   13 ar
    14   13   14 ar
    15   14   15 ar
    16   15   16 1
    17   16   17 2
    18   16   18 1
    19   18   19 1
    20   19   20 ar
    21   20   21 ar
    22   21   22 ar
    23   22   23 ar
    24   23   24 ar
    25   19   24 ar
    26   24   25 1
    27   25   26 1
    28   15   26 ar
    29   26   27 ar
    30   12   27 ar
    31    5   28 1
    32    6   29 1
    33    9   30 1
    34   11   31 1
    35   13   32 1
    36   14   33 1
    37   18   34 1
    38   20   35 1
    39   21   36 1
    40   22   37 1
    41   23   38 1
    42   25   39 1
    43   27   40 1
@<TRIPOS>PROPERTY_DATA
  Total_Score	| 5.1902
  Crash		| -0.8546
  Polar		| 2.4500
  FragIndex	| 1
  FragRMSD	| 0.237

