@<TRIPOS>MOLECULE
BindingDB_50218721
 40 43 0 0 0
SMALL
NO_CHARGES


@<TRIPOS>ATOM
1    C        14.6041   -4.8234   11.2653  C     
2    C        15.3577   -5.8800   11.8031  C     
3    C        16.6843   -6.0634   11.3629  C     
4    C        15.1924   -3.9437   10.3475  C     
5    N        18.5847   -5.4869   10.1918  N     
6    C        17.2958   -5.1659   10.4523  C     
7    C        16.5535   -4.0638    9.9390  C     
8    C        17.0835   -3.0821    9.0882  C     
9    N        18.3038   -2.9463    8.6056  N     
10   C        19.4271   -3.6915    8.7166  C     
11   C        19.5532   -4.9014    9.4441  C     
12   C        20.7944   -5.5807    9.4338  C     
13   C        21.8975   -5.0691    8.7291  C     
14   C        21.7769   -3.8635    8.0269  C     
15   C        20.5472   -3.1858    8.0165  C     
16   O        16.3696   -2.1634    8.7014  O     
17   C        14.7833   -6.7383   12.7678  C     
18   C        14.6971   -6.3539   14.1199  C     
19   C        14.1038   -7.2140   15.0611  C     
20   C        13.5647   -8.4499   14.6547  C     
21   C        13.6305   -8.8373   13.2941  C     
22   C        14.2542   -7.9756   12.3640  C     
23   O        13.0117   -9.9926   12.8801  O     
24   C        13.8334  -10.8925   12.1189  C     
25   Cl       12.8539   -9.4642   15.8128  Cl    
26   H        13.6340   -4.6774   11.5575  H     
27   H        17.2209   -6.8474   11.7529  H     
28   H        14.5981   -3.1838   10.0007  H     
29   H        18.8852   -6.2910   10.6436  H     
30   H        18.4157   -2.1600    8.0446  H     
31   H        20.9081   -6.4596    9.9481  H     
32   H        22.7913   -5.5698    8.7408  H     
33   H        22.5801   -3.4797    7.5220  H     
34   H        20.4815   -2.3112    7.4873  H     
35   H        15.0692   -5.4505   14.4259  H     
36   H        14.0596   -6.9257   16.0449  H     
37   H        14.3132   -8.2478   11.3792  H     
38   H        14.0266  -10.4918   11.1194  H     
39   H        13.2990  -11.8346   12.0064  H     
40   H        14.7834  -11.0890   12.6248  H     
@<TRIPOS>BOND
     1    1    2 2
     2    1    4 1
     3    2    3 1
     4    2   17 1
     5    3    6 2
     6    4    7 2
     7    5    6 1
     8    5   11 1
     9    6    7 1
    10    7    8 1
    11    8    9 1
    12    8   16 2
    13    9   10 1
    14   10   11 2
    15   10   15 1
    16   11   12 1
    17   12   13 2
    18   13   14 1
    19   14   15 2
    20   17   18 2
    21   17   22 1
    22   18   19 1
    23   19   20 2
    24   20   21 1
    25   20   25 1
    26   21   22 2
    27   21   23 1
    28   23   24 1
    29    1   26 1
    30    3   27 1
    31    4   28 1
    32    5   29 1
    33    9   30 1
    34   12   31 1
    35   13   32 1
    36   14   33 1
    37   15   34 1
    38   18   35 1
    39   19   36 1
    40   22   37 1
    41   24   38 1
    42   24   39 1
    43   24   40 1
@<TRIPOS>PROPERTY_DATA
  Total_Score	| 5.2187
  Crash		| -1.2532
  Polar		| 1.3426
  FragIndex	| 1
  FragRMSD	| 0.513

