@<TRIPOS>MOLECULE
BindingDB_50218714
 36 39 0 0 0
SMALL
NO_CHARGES


@<TRIPOS>ATOM
1    C        14.3911   -4.9337   10.9467  C     
2    C        15.0761   -6.0691   11.4072  C     
3    C        16.4357   -6.2127   11.0665  C     
4    C        15.0611   -3.9667   10.1745  C     
5    N        18.4376   -5.5478   10.1230  N     
6    C        17.1294   -5.2397   10.2979  C     
7    C        16.4387   -4.0888    9.8326  C     
8    C        17.0359   -3.0651    9.0710  C     
9    N        18.2837   -2.9334    8.6434  N     
10   C        19.3892   -3.7016    8.7788  C     
11   C        19.4618   -4.9307    9.4813  C     
12   C        20.6976   -5.6173    9.5346  C     
13   C        21.8473   -5.1019    8.9102  C     
14   C        21.7752   -3.8853    8.2178  C     
15   C        20.5535   -3.1961    8.1501  C     
16   O        16.3669   -2.1004    8.7176  O     
17   C        14.4101   -7.0423   12.1950  C     
18   C        14.6591   -8.4163   11.9816  C     
19   C        13.9991   -9.3975   12.7449  C     
20   C        13.0727   -9.0088   13.7290  C     
21   C        12.8130   -7.6452   13.9540  C     
22   C        13.4799   -6.6664   13.1914  C     
23   H        13.3959   -4.8083   11.1578  H     
24   H        16.9380   -7.0396   11.4170  H     
25   H        14.5024   -3.1697    9.8643  H     
26   H        18.7004   -6.3831   10.5429  H     
27   H        18.4426   -2.1155    8.1472  H     
28   H        20.7736   -6.5095   10.0293  H     
29   H        22.7294   -5.6158    8.9526  H     
30   H        22.6066   -3.5090    7.7535  H     
31   H        20.5239   -2.3195    7.6199  H     
32   H        15.2977   -8.7112   11.2383  H     
33   H        14.1734  -10.3872   12.5626  H     
34   H        12.5856   -9.7198   14.2774  H     
35   H        12.1518   -7.3635   14.6799  H     
36   H        13.2933   -5.6751   13.3784  H     
@<TRIPOS>BOND
     1    1    2 2
     2    1    4 1
     3    2    3 1
     4    2   17 1
     5    3    6 2
     6    4    7 2
     7    5    6 1
     8    5   11 1
     9    6    7 1
    10    7    8 1
    11    8    9 1
    12    8   16 2
    13    9   10 1
    14   10   11 2
    15   10   15 1
    16   11   12 1
    17   12   13 2
    18   13   14 1
    19   14   15 2
    20   17   18 2
    21   17   22 1
    22   18   19 1
    23   19   20 2
    24   20   21 1
    25   21   22 2
    26    1   23 1
    27    3   24 1
    28    4   25 1
    29    5   26 1
    30    9   27 1
    31   12   28 1
    32   13   29 1
    33   14   30 1
    34   15   31 1
    35   18   32 1
    36   19   33 1
    37   20   34 1
    38   21   35 1
    39   22   36 1
@<TRIPOS>PROPERTY_DATA
  Total_Score	| 4.1743
  Crash		| -0.8470
  Polar		| 1.2235
  FragIndex	| 1
  FragRMSD	| 0.395

