@<TRIPOS>MOLECULE
BindingDB_91863
 38 41 0 0 0
SMALL
NO_CHARGES


@<TRIPOS>ATOM
1    Cl       13.1414   -8.4110   17.5308  Cl    
2    C        13.5959   -8.1340   15.9247  C     
3    C        14.2286   -6.9235   15.5688  C     
4    C        14.5946   -6.6813   14.2357  C     
5    C        14.3775   -7.6622   13.2326  C     
6    N        14.7669   -7.5462   11.9404  N     
7    C        15.3447   -6.4742   11.3441  C     
8    C        14.6676   -5.2571   11.1695  C     
9    C        15.3030   -4.1906   10.5137  C     
10   C        16.6395   -4.2882   10.0252  C     
11   C        17.2029   -3.1693    9.3962  C     
12   O        16.5252   -2.1639    9.2137  O     
13   N        18.4328   -2.9902    8.9509  N     
14   C        19.5295   -3.7861    8.8973  C     
15   C        20.6731   -3.1853    8.3190  C     
16   C        21.8881   -3.8818    8.2194  C     
17   C        21.9741   -5.2034    8.6833  C     
18   C        20.8377   -5.8198    9.2371  C     
19   C        19.6106   -5.1246    9.3527  C     
20   N        18.6075   -5.8362    9.9043  N     
21   C        17.3214   -5.5278   10.2226  C     
22   C        16.6471   -6.6087   10.8373  C     
23   C        13.7664   -8.8827   13.6070  C     
24   C        13.3673   -9.1145   14.9345  C     
25   H        14.4325   -6.2251   16.2891  H     
26   H        15.0616   -5.7981   14.0127  H     
27   H        14.7156   -8.3573   11.4032  H     
28   H        13.7088   -5.1455   11.5097  H     
29   H        14.7603   -3.3292   10.4145  H     
30   H        18.5964   -2.0905    8.6262  H     
31   H        20.6365   -2.2276    7.9574  H     
32   H        22.7099   -3.4302    7.8055  H     
33   H        22.8593   -5.7117    8.6194  H     
34   H        20.9245   -6.7880    9.5615  H     
35   H        18.8613   -6.7465   10.1246  H     
36   H        17.1255   -7.5059   10.9669  H     
37   H        13.6100   -9.6159   12.9086  H     
38   H        12.9159  -10.0010   15.1845  H     
@<TRIPOS>BOND
     1    1    2 1
     2    2    3 ar
     3    3    4 ar
     4    4    5 ar
     5    5    6 1
     6    6    7 1
     7    7    8 ar
     8    8    9 ar
     9    9   10 ar
    10   10   11 1
    11   11   12 2
    12   11   13 1
    13   13   14 1
    14   14   15 ar
    15   15   16 ar
    16   16   17 ar
    17   17   18 ar
    18   18   19 ar
    19   14   19 ar
    20   19   20 1
    21   20   21 1
    22   10   21 ar
    23   21   22 ar
    24    7   22 ar
    25    5   23 ar
    26   23   24 ar
    27    2   24 ar
    28    3   25 1
    29    4   26 1
    30    6   27 1
    31    8   28 1
    32    9   29 1
    33   13   30 1
    34   15   31 1
    35   16   32 1
    36   17   33 1
    37   18   34 1
    38   20   35 1
    39   22   36 1
    40   23   37 1
    41   24   38 1
@<TRIPOS>PROPERTY_DATA
  Total_Score	| 4.3846
  Crash		| -0.6398
  Polar		| 2.5798
  FragIndex	| 1
  FragRMSD	| 0.172

