@<TRIPOS>MOLECULE
BindingDB_50218708
 37 40 0 0 0
SMALL
NO_CHARGES


@<TRIPOS>ATOM
1    C        14.3674   -4.9770   10.9811  C     
2    C        15.0480   -6.1016   11.4849  C     
3    C        16.4239   -6.2202   11.1808  C     
4    C        15.0461   -4.0027   10.2353  C     
5    N        18.4229   -5.5814   10.2107  N     
6    C        17.1225   -5.2580   10.4078  C     
7    C        16.4336   -4.1039    9.9349  C     
8    C        17.0434   -3.0601    9.2215  C     
9    N        18.2760   -2.9514    8.7627  N     
10   C        19.3498   -3.7744    8.8046  C     
11   C        19.4234   -5.0093    9.4953  C     
12   C        20.6313   -5.7459    9.4613  C     
13   C        21.7478   -5.2768    8.7493  C     
14   C        21.6726   -4.0584    8.0593  C     
15   C        20.4823   -3.3146    8.0901  C     
16   O        16.3991   -2.0536    8.9536  O     
17   C        14.3613   -7.0848   12.2680  C     
18   C        14.6072   -8.4650   12.0687  C     
19   C        13.9348   -9.4466   12.8202  C     
20   C        12.9866   -9.0657   13.7928  C     
21   C        12.7254   -7.6950   14.0044  C     
22   C        13.4091   -6.7192   13.2536  C     
23   C        12.3582   -9.9700   14.4881  C     
24   N        11.8057  -10.7681   15.1031  N     
25   H        13.3641   -4.8562   11.1453  H     
26   H        16.9359   -7.0298   11.5469  H     
27   H        14.4913   -3.2046    9.9107  H     
28   H        18.6856   -6.4136   10.6360  H     
29   H        18.4542   -2.1110    8.3113  H     
30   H        20.7075   -6.6393    9.9553  H     
31   H        22.6109   -5.8258    8.7283  H     
32   H        22.4787   -3.7175    7.5301  H     
33   H        20.4479   -2.4314    7.5724  H     
34   H        15.2566   -8.7688   11.3435  H     
35   H        14.1442  -10.4349   12.6438  H     
36   H        12.0439   -7.3945   14.7086  H     
37   H        13.2113   -5.7336   13.4457  H     
@<TRIPOS>BOND
     1    1    2 2
     2    1    4 1
     3    2    3 1
     4    2   17 1
     5    3    6 2
     6    4    7 2
     7    5    6 1
     8    5   11 1
     9    6    7 1
    10    7    8 1
    11    8    9 1
    12    8   16 2
    13    9   10 1
    14   10   11 2
    15   10   15 1
    16   11   12 1
    17   12   13 2
    18   13   14 1
    19   14   15 2
    20   17   18 2
    21   17   22 1
    22   18   19 1
    23   19   20 2
    24   20   21 1
    25   20   23 1
    26   21   22 2
    27   23   24 3
    28    1   25 1
    29    3   26 1
    30    4   27 1
    31    5   28 1
    32    9   29 1
    33   12   30 1
    34   13   31 1
    35   14   32 1
    36   15   33 1
    37   18   34 1
    38   19   35 1
    39   21   36 1
    40   22   37 1
@<TRIPOS>PROPERTY_DATA
  Total_Score	| 4.1085
  Crash		| -0.7331
  Polar		| 1.3486
  FragIndex	| 1
  FragRMSD	| 0.383

