@<TRIPOS>MOLECULE
BindingDB_50414119
 39 42 0 0 0
SMALL
NO_CHARGES


@<TRIPOS>ATOM
1    N        18.2733   -2.9922    8.6821  N     
2    C        19.3405   -3.8144    8.8316  C     
3    C        19.3576   -5.0349    9.5552  C     
4    N        18.3081   -5.5824   10.2116  N     
5    C        16.9934   -5.2346   10.3311  C     
6    C        16.3439   -4.1029    9.7478  C     
7    C        17.0066   -3.0909    9.0379  C     
8    C        20.5626   -5.7736    9.6130  C     
9    C        21.7260   -5.3251    8.9651  C     
10   C        21.7058   -4.1137    8.2598  C     
11   C        20.5219   -3.3623    8.1950  C     
12   C        14.9428   -3.9746    9.9589  C     
13   C        14.2252   -4.8749   10.7569  C     
14   C        14.8691   -5.9466   11.3850  C     
15   C        16.2495   -6.1352   11.1460  C     
16   O        16.3885   -2.0935    8.6830  O     
17   N        14.1270   -6.6741   12.2539  N     
18   C        14.5100   -7.7021   13.0444  C     
19   C        14.6637   -7.4803   14.4296  C     
20   C        14.9992   -8.5417   15.2937  C     
21   C        15.1449   -9.8484   14.7826  C     
22   C        14.9562  -10.0862   13.4083  C     
23   C        14.6513   -9.0135   12.5429  C     
24   O        15.4448  -10.8629   15.6361  O     
25   H        18.4928   -2.1616    8.2313  H     
26   H        18.5292   -6.4052   10.6712  H     
27   H        20.6007   -6.6633   10.1204  H     
28   H        22.5825   -5.8780    9.0016  H     
29   H        22.5492   -3.7885    7.7776  H     
30   H        20.5287   -2.4876    7.6614  H     
31   H        14.4130   -3.1949    9.5549  H     
32   H        13.2246   -4.7148   10.9075  H     
33   H        16.7229   -6.9194   11.6107  H     
34   H        13.2228   -6.3443   12.4044  H     
35   H        14.5574   -6.5413   14.8181  H     
36   H        15.1221   -8.3661   16.2941  H     
37   H        15.0356  -11.0264   13.0392  H     
38   H        14.4799   -9.2064   11.5543  H     
39   H        15.1244  -11.6810   15.1957  H     
@<TRIPOS>BOND
     1    1    2 1
     2    1    7 1
     3    2    3 1
     4    2   11 2
     5    3    4 1
     6    3    8 2
     7    4    5 1
     8    5    6 1
     9    5   15 2
    10    6    7 1
    11    6   12 2
    12    7   16 2
    13    8    9 1
    14    9   10 2
    15   10   11 1
    16   12   13 1
    17   13   14 2
    18   14   15 1
    19   14   17 1
    20   17   18 1
    21   18   19 1
    22   18   23 2
    23   19   20 2
    24   20   21 1
    25   21   22 2
    26   21   24 1
    27   22   23 1
    28    1   25 1
    29    4   26 1
    30    8   27 1
    31    9   28 1
    32   10   29 1
    33   11   30 1
    34   12   31 1
    35   13   32 1
    36   15   33 1
    37   17   34 1
    38   19   35 1
    39   20   36 1
    40   22   37 1
    41   23   38 1
    42   24   39 1
@<TRIPOS>PROPERTY_DATA
  Total_Score	| 4.7496
  Crash		| -0.4749
  Polar		| 2.4101
  FragIndex	| 1
  FragRMSD	| 0.477

