@<TRIPOS>MOLECULE
BindingDB_50218736
 41 44 0 0 0
SMALL
NO_CHARGES


@<TRIPOS>ATOM
1    C        14.5652   -4.7293   11.2685  C     
2    C        15.2998   -5.7908   11.8209  C     
3    C        16.6188   -6.0048   11.3873  C     
4    C        15.1620   -3.8824   10.3232  C     
5    N        18.5389   -5.4623   10.2514  N     
6    C        17.2477   -5.1266   10.4722  C     
7    C        16.5218   -4.0259    9.9270  C     
8    C        17.0688   -3.0812    9.0429  C     
9    N        18.2923   -2.9891    8.5563  N     
10   C        19.4133   -3.7244    8.7414  C     
11   C        19.5336   -4.8861    9.5424  C     
12   C        20.7906   -5.5231    9.6621  C     
13   C        21.9214   -5.0190    9.0007  C     
14   C        21.8038   -3.8737    8.1990  C     
15   C        20.5586   -3.2368    8.0675  C     
16   O        16.3712   -2.1602    8.6324  O     
17   C        14.7120   -6.6331   12.7823  C     
18   C        14.5221   -6.1907   14.1096  C     
19   C        13.8681   -7.0240   15.0370  C     
20   C        13.3679   -8.2761   14.6345  C     
21   C        13.5710   -8.7532   13.3147  C     
22   C        14.2803   -7.9213   12.4090  C     
23   C        13.0744   -9.9988   12.9151  C     
24   O        11.9792  -10.3675   13.3243  O     
25   C        13.8272  -10.9321   12.0946  C     
26   H        13.5967   -4.5670   11.5482  H     
27   H        17.1420   -6.7972   11.7784  H     
28   H        14.5759   -3.1309    9.9456  H     
29   H        18.8232   -6.2576   10.7312  H     
30   H        18.4203   -2.2312    7.9651  H     
31   H        20.8978   -6.3577   10.2493  H     
32   H        22.8267   -5.4804    9.1093  H     
33   H        22.6243   -3.5021    7.7126  H     
34   H        20.4976   -2.4038    7.4753  H     
35   H        14.8571   -5.2706   14.4082  H     
36   H        13.7569   -6.7131   16.0052  H     
37   H        12.8784   -8.8438   15.3290  H     
38   H        14.4457   -8.2268   11.4481  H     
39   H        14.0138  -10.5361   11.0942  H     
40   H        13.2977  -11.8838   11.9695  H     
41   H        14.7856  -11.1346   12.5788  H     
@<TRIPOS>BOND
     1    1    2 2
     2    1    4 1
     3    2    3 1
     4    2   17 1
     5    3    6 2
     6    4    7 2
     7    5    6 1
     8    5   11 1
     9    6    7 1
    10    7    8 1
    11    8    9 1
    12    8   16 2
    13    9   10 1
    14   10   11 2
    15   10   15 1
    16   11   12 1
    17   12   13 2
    18   13   14 1
    19   14   15 2
    20   17   18 2
    21   17   22 1
    22   18   19 1
    23   19   20 2
    24   20   21 1
    25   21   22 2
    26   21   23 1
    27   23   24 2
    28   23   25 1
    29    1   26 1
    30    3   27 1
    31    4   28 1
    32    5   29 1
    33    9   30 1
    34   12   31 1
    35   13   32 1
    36   14   33 1
    37   15   34 1
    38   18   35 1
    39   19   36 1
    40   20   37 1
    41   22   38 1
    42   25   39 1
    43   25   40 1
    44   25   41 1
@<TRIPOS>PROPERTY_DATA
  Total_Score	| 5.9602
  Crash		| -0.8947
  Polar		| 1.1313
  FragIndex	| 1
  FragRMSD	| 0.560

