@<TRIPOS>MOLECULE
BindingDB_91961
 32 34 0 0 0
SMALL
NO_CHARGES


@<TRIPOS>ATOM
1    O        22.5598   -2.6347    6.4539  O     
2    C        22.9896   -3.2612    7.6659  C     
3    C        24.2293   -4.0305    7.4478  C     
4    O        24.3879   -4.7791    6.3325  O     
5    O        25.0404   -4.2774    8.5007  O     
6    C        21.8255   -3.9884    8.2533  C     
7    C        21.8748   -5.3195    8.7260  C     
8    C        20.7301   -5.9152    9.2845  C     
9    C        19.5243   -5.1909    9.3999  C     
10   N        18.5160   -5.8632    9.9856  N     
11   C        17.2395   -5.5199   10.3110  C     
12   C        16.5740   -6.5734   10.9869  C     
13   C        15.2512   -6.4357   11.4285  C     
14   Cl       14.5283   -7.6906   12.3000  Cl    
15   C        14.5642   -5.2422   11.1705  C     
16   C        15.2091   -4.1894   10.5002  C     
17   C        16.5608   -4.2913   10.0579  C     
18   C        17.1479   -3.1879    9.4246  C     
19   O        16.4903   -2.1713    9.2294  O     
20   N        18.3817   -3.0405    8.9855  N     
21   C        19.4523   -3.8611    8.9340  C     
22   C        20.5966   -3.2973    8.3320  C     
23   H        23.0234   -1.7671    6.4474  H     
24   H        23.2542   -2.4557    8.3683  H     
25   H        22.7447   -5.8631    8.6667  H     
26   H        20.7847   -6.8804    9.6122  H     
27   H        18.7437   -6.7821   10.2169  H     
28   H        17.0611   -7.4575   11.1768  H     
29   H        13.5950   -5.1288   11.4844  H     
30   H        14.6679   -3.3375   10.3516  H     
31   H        18.5640   -2.1452    8.6449  H     
32   H        20.5474   -2.3503    7.9625  H     
@<TRIPOS>BOND
     1    1    2 1
     2    2    3 1
     3    3    4 2
     4    3    5 1
     5    2    6 1
     6    6    7 ar
     7    7    8 ar
     8    8    9 ar
     9    9   10 1
    10   10   11 1
    11   11   12 ar
    12   12   13 ar
    13   13   14 1
    14   13   15 ar
    15   15   16 ar
    16   16   17 ar
    17   11   17 ar
    18   17   18 1
    19   18   19 2
    20   18   20 1
    21   20   21 1
    22    9   21 ar
    23   21   22 ar
    24    6   22 ar
    25    1   23 1
    26    2   24 1
    27    7   25 1
    28    8   26 1
    29   10   27 1
    30   12   28 1
    31   15   29 1
    32   16   30 1
    33   20   31 1
    34   22   32 1
@<TRIPOS>PROPERTY_DATA
  Total_Score	| 4.2741
  Crash		| -0.7787
  Polar		| 3.5797
  FragIndex	| 1
  FragRMSD	| 0.187

