@<TRIPOS>MOLECULE
BindingDB_13957
 36 38 0 0 0
SMALL
NO_CHARGES


@<TRIPOS>ATOM
1    C        33.8872   28.4563   21.2512  C     
2    C        32.3189   30.3120   20.9493  C     
3    C        32.7884   29.2266   21.7027  C     
4    N        34.3109   27.3663   21.9788  N     
5    C        34.8456   27.5608   23.1953  C     
6    O        35.0397   26.6543   23.9859  O     
7    C        35.2077   28.8075   23.7147  C     
8    O        36.3419   29.4217   23.2662  O     
9    O        34.3946   29.4976   24.5640  O     
10   C        34.1164   26.1046   21.4097  C     
11   C        34.8239   23.8417   20.7215  C     
12   C        33.5477   23.5658   20.2188  C     
13   C        32.5483   24.5450   20.2922  C     
14   C        32.8289   25.7914   20.8944  C     
15   C        35.1468   25.1147   21.2990  C     
16   C        36.4937   25.3734   21.6738  C     
17   O        37.0053   26.6341   21.6627  O     
18   O        37.3558   24.3555   21.9387  O     
19   C        34.5346   28.8153   20.0484  C     
20   C        34.0776   29.9100   19.2882  C     
21   C        32.9412   30.6596   19.7329  C     
22   C        34.6888   30.2791   18.0833  C     
23   C        34.1758   31.2792   17.3423  C     
24   C        33.0549   31.9513   17.7510  C     
25   C        32.4690   31.6983   18.9338  C     
26   H        31.5117   30.8528   21.3047  H     
27   H        32.3117   28.9785   22.5743  H     
28   H        35.5394   23.1180   20.6301  H     
29   H        33.3336   22.6588   19.7733  H     
30   H        31.6136   24.3675   19.8977  H     
31   H        32.0658   26.4578   20.9385  H     
32   H        35.3347   28.2605   19.7208  H     
33   H        35.5032   29.7963   17.7659  H     
34   H        34.6079   31.5171   16.4810  H     
35   H        32.6685   32.6423   17.1579  H     
36   H        31.6645   32.2079   19.2026  H     
@<TRIPOS>BOND
     1    1    3 2
     2    1    4 1
     3    1   19 1
     4    2    3 1
     5    2   21 2
     6    4    5 am
     7    4   10 1
     8    5    6 2
     9    5    7 1
    10    7    8 2
    11    7    9 1
    12   10   14 2
    13   10   15 1
    14   11   12 1
    15   11   15 2
    16   12   13 2
    17   13   14 1
    18   15   16 1
    19   16   17 1
    20   16   18 2
    21   19   20 2
    22   20   21 1
    23   20   22 1
    24   21   25 1
    25   22   23 2
    26   23   24 1
    27   24   25 2
    28    2   26 1
    29    3   27 1
    30   11   28 1
    31   12   29 1
    32   13   30 1
    33   14   31 1
    34   19   32 1
    35   22   33 1
    36   23   34 1
    37   24   35 1
    38   25   36 1
@<TRIPOS>PROPERTY_DATA
  Total_Score	| 12.2572
  Crash		| -1.1301
  Polar		| 10.3942
  FragIndex	| 1
  FragRMSD	| 0.969

