@<TRIPOS>MOLECULE
BindingDB_13962
 43 45 0 0 0
SMALL
NO_CHARGES


@<TRIPOS>ATOM
1    C        34.7665   27.7549   23.0587  C     
2    O        34.8533   26.8176   23.8425  O     
3    C        35.1529   28.9854   23.5698  C     
4    O        34.4971   29.5647   24.5994  O     
5    O        36.3638   29.4880   23.2171  O     
6    C        34.0157   26.3088   21.2752  C     
7    C        34.6489   23.9761   20.7580  C     
8    C        33.3728   23.7251   20.2273  C     
9    C        32.4182   24.7487   20.2117  C     
10   C        32.7358   26.0139   20.7273  C     
11   C        34.9790   25.2488   21.2839  C     
12   C        36.2831   25.3972   21.8067  C     
13   O        37.2810   25.7601   20.9646  O     
14   O        36.6409   24.5900   22.8326  O     
15   N        34.2609   27.5816   21.8145  N     
16   C        33.7547   28.6895   21.1400  C     
17   C        34.4394   29.3491   20.0799  C     
18   C        33.8723   30.5208   19.5212  C     
19   C        32.6500   31.0292   19.9836  C     
20   C        31.9725   30.3832   21.0263  C     
21   C        32.5315   29.2359   21.6107  C     
22   C        35.7634   28.9054   19.5550  C     
23   C        35.8292   28.5120   18.1163  C     
24   C        34.7669   27.8642   17.4282  C     
25   C        34.8779   27.5561   16.0614  C     
26   C        36.0532   27.8701   15.3542  C     
27   C        37.1227   28.4913   16.0284  C     
28   C        37.0156   28.8021   17.3958  C     
29   H        35.3365   23.2131   20.7640  H     
30   H        33.1375   22.8006   19.8576  H     
31   H        31.4837   24.5690   19.8360  H     
32   H        31.9937   26.7155   20.7209  H     
33   H        34.3605   31.0255   18.7750  H     
34   H        32.2634   31.8849   19.5739  H     
35   H        31.0869   30.7558   21.3798  H     
36   H        32.0393   28.7963   22.3920  H     
37   H        36.4643   29.7291   19.7276  H     
38   H        36.1414   28.0659   20.1334  H     
39   H        33.9007   27.6164   17.9179  H     
40   H        34.1028   27.0893   15.5802  H     
41   H        36.1348   27.6317   14.3634  H     
42   H        37.9836   28.6995   15.5178  H     
43   H        37.8064   29.2644   17.8617  H     
@<TRIPOS>BOND
     1    1    2 2
     2    1    3 1
     3    1   15 am
     4    3    4 2
     5    3    5 1
     6    6   10 2
     7    6   11 1
     8    6   15 1
     9    7    8 1
    10    7   11 2
    11    8    9 2
    12    9   10 1
    13   11   12 1
    14   12   13 1
    15   12   14 2
    16   15   16 1
    17   16   17 1
    18   16   21 2
    19   17   18 2
    20   17   22 1
    21   18   19 1
    22   19   20 2
    23   20   21 1
    24   22   23 1
    25   23   24 2
    26   23   28 1
    27   24   25 1
    28   25   26 2
    29   26   27 1
    30   27   28 2
    31    7   29 1
    32    8   30 1
    33    9   31 1
    34   10   32 1
    35   18   33 1
    36   19   34 1
    37   20   35 1
    38   21   36 1
    39   22   37 1
    40   22   38 1
    41   24   39 1
    42   25   40 1
    43   26   41 1
    44   27   42 1
    45   28   43 1
@<TRIPOS>PROPERTY_DATA
  Total_Score	| 12.6405
  Crash		| -1.2650
  Polar		| 10.7366
  FragIndex	| 1
  FragRMSD	| 0.774

