@<TRIPOS>MOLECULE
BindingDB_50118768
 23 23 0 0 0
SMALL
NO_CHARGES


@<TRIPOS>ATOM
1    C        35.2416   24.9838   21.2977  C     
2    C        34.4743   26.1867   21.3052  C     
3    N        34.9443   27.3465   21.8675  N     
4    C        35.1220   27.5538   23.1701  C     
5    C        36.5956   24.9375   21.7165  C     
6    C        35.3319   28.8359   23.6353  C     
7    C        33.1699   26.2056   20.7322  C     
8    O        35.0146   26.6493   23.9895  O     
9    O        37.1905   23.7836   22.1016  O     
10   O        36.3861   29.5639   23.2041  O     
11   O        37.4184   25.9834   21.4853  O     
12   O        34.4362   29.4558   24.4430  O     
13   C        34.6578   23.8046   20.7786  C     
14   C        33.3566   23.8129   20.2575  C     
15   C        32.6197   25.0049   20.2288  C     
16   C        32.3796   27.4627   20.6406  C     
17   H        34.9239   28.1360   21.3025  H     
18   H        35.1815   22.9257   20.7500  H     
19   H        32.9566   22.9544   19.8735  H     
20   H        31.6802   24.9884   19.8239  H     
21   H        32.2808   27.9171   21.6266  H     
22   H        31.3751   27.2999   20.2442  H     
23   H        32.8944   28.1659   19.9836  H     
@<TRIPOS>BOND
     1    1    2 2
     2    1    5 1
     3    1   13 1
     4    2    3 1
     5    2    7 1
     6    3    4 am
     7    4    6 1
     8    4    8 2
     9    5    9 2
    10    5   11 1
    11    6   10 2
    12    6   12 1
    13    7   15 2
    14    7   16 1
    15   13   14 2
    16   14   15 1
    17    3   17 1
    18   13   18 1
    19   14   19 1
    20   15   20 1
    21   16   21 1
    22   16   22 1
    23   16   23 1
@<TRIPOS>PROPERTY_DATA
  Total_Score	| 9.6077
  Crash		| -1.1923
  Polar		| 10.7577
  FragIndex	| 1
  FragRMSD	| 0.342

