@<TRIPOS>MOLECULE
BindingDB_50118777
 23 23 0 0 0
SMALL
NO_CHARGES


@<TRIPOS>ATOM
1    C        34.7966   27.7111   23.0749  C     
2    C        35.1483   25.1189   21.3298  C     
3    N        34.3835   27.4531   21.8166  N     
4    C        34.1591   26.1534   21.3656  C     
5    C        36.5003   25.2928   21.7495  C     
6    C        35.1122   28.9733   23.5651  C     
7    O        34.9298   26.8111   23.8899  O     
8    O        37.3770   24.2590   21.7815  O     
9    O        36.3381   29.4929   23.3017  O     
10   O        36.9992   26.4894   22.1394  O     
11   O        34.4115   29.5378   24.5756  O     
12   C        34.7806   23.8374   20.8163  C     
13   C        33.9904   28.5446   20.9438  C     
14   C        32.8582   25.8741   20.8857  C     
15   C        33.4919   23.5925   20.3313  C     
16   C        32.5291   24.6112   20.3567  C     
17   H        35.4518   23.0660   20.7789  H     
18   H        33.2317   29.1609   21.4456  H     
19   H        33.5609   28.2184   19.9948  H     
20   H        34.8525   29.1788   20.7033  H     
21   H        32.1362   26.5988   20.8968  H     
22   H        33.2566   22.6734   19.9390  H     
23   H        31.5907   24.4406   19.9807  H     
@<TRIPOS>BOND
     1    1    3 am
     2    1    6 1
     3    1    7 2
     4    2    4 2
     5    2    5 1
     6    2   12 1
     7    3    4 1
     8    3   13 1
     9    4   14 1
    10    5    8 2
    11    5   10 1
    12    6    9 2
    13    6   11 1
    14   12   15 2
    15   14   16 2
    16   15   16 1
    17   12   17 1
    18   13   18 1
    19   13   19 1
    20   13   20 1
    21   14   21 1
    22   15   22 1
    23   16   23 1
@<TRIPOS>PROPERTY_DATA
  Total_Score	| 10.0138
  Crash		| -0.8622
  Polar		| 10.4681
  FragIndex	| 1
  FragRMSD	| 0.463

