@<TRIPOS>MOLECULE
BindingDB_13958
 37 39 0 0 0
SMALL
NO_CHARGES


@<TRIPOS>ATOM
1    C        33.6936   28.7168   21.2254  C     
2    C        31.8022   30.2874   21.0995  C     
3    C        32.4733   29.2321   21.7336  C     
4    N        34.2553   27.6142   21.8761  N     
5    C        34.7328   27.7767   23.1266  C     
6    O        34.9092   26.8411   23.8890  O     
7    C        35.1317   29.0014   23.6360  C     
8    O        34.4127   29.6450   24.5928  O     
9    O        36.3339   29.5194   23.2628  O     
10   C        34.0582   26.3398   21.3208  C     
11   C        34.7129   24.0384   20.7249  C     
12   C        33.4252   23.7652   20.2363  C     
13   C        32.4529   24.7678   20.2682  C     
14   C        32.7699   26.0294   20.8026  C     
15   C        35.0622   25.3082   21.2678  C     
16   C        36.4079   25.4649   21.7193  C     
17   O        37.2523   24.4117   21.8344  O     
18   O        36.9800   26.6600   21.9694  O     
19   C        32.3606   30.8795   19.9590  C     
20   C        34.2837   29.3457   20.0875  C     
21   C        33.6010   30.4296   19.4583  C     
22   C        35.5393   28.9463   19.5580  C     
23   C        36.1040   29.5975   18.4459  C     
24   C        35.4143   30.6583   17.8359  C     
25   C        34.1732   31.0735   18.3405  C     
26   O        37.3102   29.2241   17.9375  O     
27   H        30.9128   30.6256   21.4701  H     
28   H        32.0556   28.8272   22.5746  H     
29   H        35.3960   23.2781   20.6599  H     
30   H        33.1982   22.8463   19.8451  H     
31   H        31.5148   24.5845   19.9033  H     
32   H        32.0153   26.7184   20.8239  H     
33   H        31.8611   31.6549   19.5163  H     
34   H        36.0507   28.1830   19.9843  H     
35   H        35.8186   31.1309   17.0244  H     
36   H        33.6926   31.8512   17.8809  H     
37   H        37.7421   28.6567   18.6074  H     
@<TRIPOS>BOND
     1    1    3 2
     2    1    4 1
     3    1   20 1
     4    2    3 1
     5    2   19 2
     6    4    5 am
     7    4   10 1
     8    5    6 2
     9    5    7 1
    10    7    8 2
    11    7    9 1
    12   10   14 2
    13   10   15 1
    14   11   12 1
    15   11   15 2
    16   12   13 2
    17   13   14 1
    18   15   16 1
    19   16   17 1
    20   16   18 2
    21   19   21 1
    22   20   21 2
    23   20   22 1
    24   21   25 1
    25   22   23 2
    26   23   24 1
    27   23   26 1
    28   24   25 2
    29    2   27 1
    30    3   28 1
    31   11   29 1
    32   12   30 1
    33   13   31 1
    34   14   32 1
    35   19   33 1
    36   22   34 1
    37   24   35 1
    38   25   36 1
    39   26   37 1
@<TRIPOS>PROPERTY_DATA
  Total_Score	| 12.4035
  Crash		| -1.3287
  Polar		| 10.6179
  FragIndex	| 1
  FragRMSD	| 0.929

