@<TRIPOS>MOLECULE
BindingDB_13960
 36 37 0 0 0
SMALL
NO_CHARGES


@<TRIPOS>ATOM
1    C        34.1312   28.6382   20.9958  C     
2    C        32.4364   30.3828   20.6083  C     
3    C        32.8813   29.2346   21.2911  C     
4    N        34.5089   27.5210   21.7595  N     
5    C        34.8284   27.6922   23.0640  C     
6    O        34.8337   26.7529   23.8574  O     
7    C        35.1998   28.9063   23.6104  C     
8    O        36.3761   29.4719   23.2581  O     
9    O        34.4566   29.5174   24.5655  O     
10   C        34.2374   26.2463   21.2516  C     
11   C        34.7868   23.9085   20.7004  C     
12   C        33.4603   23.6588   20.3243  C     
13   C        32.5092   24.6827   20.4163  C     
14   C        32.8984   25.9506   20.8741  C     
15   C        35.2072   25.1839   21.1776  C     
16   C        36.5835   25.3182   21.5428  C     
17   O        37.2753   26.4862   21.4718  O     
18   O        37.3143   24.2641   21.9799  O     
19   C        33.2495   30.9658   19.6288  C     
20   C        34.9543   29.2231   19.9823  C     
21   C        34.4943   30.3909   19.3120  C     
22   C        36.3132   28.6596   19.6968  C     
23   C        37.2031   29.2777   18.5866  C     
24   H        31.5279   30.8056   20.8351  H     
25   H        32.2711   28.8316   22.0085  H     
26   H        35.4471   23.1278   20.6245  H     
27   H        33.1851   22.7324   19.9840  H     
28   H        31.5387   24.4986   20.1598  H     
29   H        32.1670   26.6552   20.9488  H     
30   H        32.9459   31.8177   19.1430  H     
31   H        35.0519   30.8634   18.6014  H     
32   H        36.8820   28.7259   20.6251  H     
33   H        36.1874   27.6054   19.4400  H     
34   H        36.6922   29.2205   17.6238  H     
35   H        38.1465   28.7274   18.5107  H     
36   H        37.4358   30.3167   18.8226  H     
@<TRIPOS>BOND
     1    1    3 2
     2    1    4 1
     3    1   20 1
     4    2    3 1
     5    2   19 2
     6    4    5 am
     7    4   10 1
     8    5    6 2
     9    5    7 1
    10    7    8 2
    11    7    9 1
    12   10   14 2
    13   10   15 1
    14   11   12 1
    15   11   15 2
    16   12   13 2
    17   13   14 1
    18   15   16 1
    19   16   17 1
    20   16   18 2
    21   19   21 1
    22   20   21 2
    23   20   22 1
    24   22   23 1
    25    2   24 1
    26    3   25 1
    27   11   26 1
    28   12   27 1
    29   13   28 1
    30   14   29 1
    31   19   30 1
    32   21   31 1
    33   22   32 1
    34   22   33 1
    35   23   34 1
    36   23   35 1
    37   23   36 1
@<TRIPOS>PROPERTY_DATA
  Total_Score	| 12.0187
  Crash		| -1.0201
  Polar		| 10.4969
  FragIndex	| 1
  FragRMSD	| 1.133

