@<TRIPOS>MOLECULE
BindingDB_13961
 39 40 0 0 0
SMALL
NO_CHARGES


@<TRIPOS>ATOM
1    C        34.8009   27.8010   23.0698  C     
2    O        34.8248   26.8637   23.8626  O     
3    C        35.1986   29.0035   23.6223  C     
4    O        36.3373   29.5984   23.2001  O     
5    O        34.4801   29.6056   24.5978  O     
6    C        34.1737   26.3497   21.3029  C     
7    C        34.7441   24.0091   20.8180  C     
8    C        33.4508   23.7781   20.3190  C     
9    C        32.5127   24.8184   20.3100  C     
10   C        32.8707   26.0835   20.8011  C     
11   C        35.1340   25.2801   21.3191  C     
12   C        36.4829   25.4241   21.7719  C     
13   O        37.0835   26.6176   21.9696  O     
14   O        37.2950   24.3592   21.9511  O     
15   N        34.4478   27.6350   21.7704  N     
16   C        34.0545   28.7354   20.9887  C     
17   C        34.8025   29.2858   19.8916  C     
18   C        34.3230   30.4676   19.2652  C     
19   C        33.0985   31.0399   19.6210  C     
20   C        32.3157   30.4486   20.6193  C     
21   C        32.7930   29.3178   21.2949  C     
22   C        36.0471   28.6750   19.3081  C     
23   C        36.0390   28.7196   17.7532  C     
24   C        37.3541   29.2735   19.9023  C     
25   H        35.4005   23.2244   20.7975  H     
26   H        33.1950   22.8560   19.9609  H     
27   H        31.5700   24.6544   19.9457  H     
28   H        32.1579   26.8182   20.7882  H     
29   H        34.8508   30.9086   18.5049  H     
30   H        32.7662   31.8819   19.1408  H     
31   H        31.4059   30.8504   20.8641  H     
32   H        32.2005   28.9204   22.0269  H     
33   H        36.0860   27.6176   19.5346  H     
34   H        35.0733   28.3815   17.3624  H     
35   H        36.8154   28.0568   17.3585  H     
36   H        36.2359   29.7219   17.3767  H     
37   H        37.4970   30.3103   19.5890  H     
38   H        38.2208   28.6967   19.5642  H     
39   H        37.3253   29.2441   20.9927  H     
@<TRIPOS>BOND
     1    1    2 2
     2    1    3 1
     3    1   15 am
     4    3    4 2
     5    3    5 1
     6    6   10 2
     7    6   11 1
     8    6   15 1
     9    7    8 1
    10    7   11 2
    11    8    9 2
    12    9   10 1
    13   11   12 1
    14   12   13 1
    15   12   14 2
    16   15   16 1
    17   16   17 2
    18   16   21 1
    19   17   18 1
    20   17   22 1
    21   18   19 2
    22   19   20 1
    23   20   21 2
    24   22   23 1
    25   22   24 1
    26    7   25 1
    27    8   26 1
    28    9   27 1
    29   10   28 1
    30   18   29 1
    31   19   30 1
    32   20   31 1
    33   21   32 1
    34   22   33 1
    35   23   34 1
    36   23   35 1
    37   23   36 1
    38   24   37 1
    39   24   38 1
    40   24   39 1
@<TRIPOS>PROPERTY_DATA
  Total_Score	| 11.7810
  Crash		| -1.2793
  Polar		| 10.4098
  FragIndex	| 1
  FragRMSD	| 1.321

