@<TRIPOS>MOLECULE
BindingDB_50118757
 23 23 0 0 0
SMALL
NO_CHARGES


@<TRIPOS>ATOM
1    C        35.1691   25.0121   21.1876  C     
2    C        34.2817   26.1222   21.3319  C     
3    C        34.9087   27.5613   23.2130  C     
4    N        34.5497   27.3179   21.9587  N     
5    C        36.4857   25.0930   21.6781  C     
6    C        35.2113   28.8464   23.6183  C     
7    C        34.7080   23.7921   20.6049  C     
8    O        35.0903   26.6545   24.0131  O     
9    O        36.9581   24.1024   22.4654  O     
10   O        36.3588   29.4381   23.2190  O     
11   O        37.3896   25.8092   20.9782  O     
12   O        34.4482   29.5256   24.5059  O     
13   C        32.9498   25.9844   20.8853  C     
14   C        32.4930   24.7915   20.3096  C     
15   C        33.3649   23.7041   20.1743  C     
16   C        35.5812   22.5925   20.4553  C     
17   H        34.5836   28.0886   21.3676  H     
18   H        32.2914   26.7621   20.9719  H     
19   H        31.5223   24.7096   19.9980  H     
20   H        33.0029   22.8409   19.7615  H     
21   H        36.4328   22.8322   19.8164  H     
22   H        35.0608   21.7430   20.0078  H     
23   H        35.9479   22.2766   21.4339  H     
@<TRIPOS>BOND
     1    1    2 2
     2    1    5 1
     3    1    7 1
     4    2    4 1
     5    2   13 1
     6    3    4 am
     7    3    6 1
     8    3    8 2
     9    5    9 2
    10    5   11 1
    11    6   10 2
    12    6   12 1
    13    7   15 2
    14    7   16 1
    15   13   14 2
    16   14   15 1
    17    4   17 1
    18   13   18 1
    19   14   19 1
    20   15   20 1
    21   16   21 1
    22   16   22 1
    23   16   23 1
@<TRIPOS>PROPERTY_DATA
  Total_Score	| 10.6773
  Crash		| -0.7694
  Polar		| 11.0380
  FragIndex	| 1
  FragRMSD	| 0.256

