@<TRIPOS>MOLECULE
BindingDB_13953
 68 70 0 0 0
SMALL
NO_CHARGES


@<TRIPOS>ATOM
1    C        33.8830   28.5678   21.0989  C     
2    C        32.7385   30.8229   19.7327  C     
3    C        32.1106   30.2546   20.8624  C     
4    C        32.6695   29.1563   21.5261  C     
5    N        34.3674   27.4829   21.8394  N     
6    C        34.7811   27.6758   23.1144  C     
7    O        34.8649   26.7453   23.9079  O     
8    C        34.5379   29.1215   19.9630  C     
9    C        33.9851   30.2705   19.3000  C     
10   C        35.7512   28.6009   19.4803  C     
11   C        36.4070   29.1846   18.4599  C     
12   C        35.9134   30.3008   17.8598  C     
13   C        34.7400   30.8337   18.2472  C     
14   C        34.1496   26.1951   21.3343  C     
15   C        34.8081   23.8954   20.7712  C     
16   C        33.5071   23.6044   20.3380  C     
17   C        32.5179   24.5902   20.4013  C     
18   C        32.8389   25.8640   20.8919  C     
19   C        35.1604   25.1764   21.2761  C     
20   C        36.5205   25.3695   21.6703  C     
21   O        37.3403   24.3258   21.9340  O     
22   O        37.1213   26.5770   21.7335  O     
23   C        35.1631   28.9058   23.6253  C     
24   O        36.3285   29.4636   23.2354  O     
25   O        34.4355   29.5505   24.5634  O     
26   C        32.0765   31.9900   19.0626  C     
27   C        31.4289   31.6689   17.6688  C     
28   N        30.0238   31.3625   17.7871  N     
29   C        29.4443   30.1876   17.5916  C     
30   C        28.0120   30.1001   17.7310  C     
31   O        30.0790   29.1887   17.2722  O     
32   C        31.6666   32.7601   16.7210  C     
33   O        32.7413   32.7745   16.1287  O     
34   N        30.7761   33.7220   16.4964  N     
35   C        30.9160   34.8363   15.6086  C     
36   C        29.5462   35.3233   15.0663  C     
37   C        28.8883   34.3281   14.0707  C     
38   C        27.3935   34.6495   13.7908  C     
39   C        26.6017   33.4107   13.3011  C     
40   H        31.2275   30.6337   21.2169  H     
41   H        32.1753   28.7787   22.3388  H     
42   H        36.1407   27.7833   19.8712  H     
43   H        37.2656   28.7966   18.1401  H     
44   H        36.4291   30.7294   17.1257  H     
45   H        34.4383   31.6529   17.7808  H     
46   H        35.4985   23.1447   20.6970  H     
47   H        33.2823   22.6736   19.9781  H     
48   H        31.5657   24.3785   20.0925  H     
49   H        32.0885   26.5565   20.9306  H     
50   H        31.3045   32.4331   19.7012  H     
51   H        32.8406   32.7619   18.9739  H     
52   H        31.9051   30.7838   17.2347  H     
53   H        29.4250   32.1018   18.0047  H     
54   H        27.6893   30.5862   18.6601  H     
55   H        27.6767   29.0568   17.7570  H     
56   H        27.5326   30.6036   16.8835  H     
57   H        29.9382   33.6753   16.9705  H     
58   H        31.3713   35.6512   16.1834  H     
59   H        31.5887   34.6104   14.7736  H     
60   H        28.8720   35.4975   15.9107  H     
61   H        29.7030   36.2793   14.5567  H     
62   H        29.4391   34.3585   13.1256  H     
63   H        28.9602   33.3157   14.4770  H     
64   H        26.9244   35.0240   14.7051  H     
65   H        27.3294   35.4303   13.0249  H     
66   H        27.0325   33.0250   12.3742  H     
67   H        25.5594   33.6891   13.1110  H     
68   H        26.6203   32.6229   14.0593  H     
@<TRIPOS>BOND
     1    1    4 1
     2    1    5 1
     3    1    8 2
     4    2    3 1
     5    2    9 2
     6    2   26 1
     7    3    4 2
     8    5    6 am
     9    5   14 1
    10    6    7 2
    11    6   23 1
    12    8    9 1
    13    8   10 1
    14    9   13 1
    15   10   11 2
    16   11   12 1
    17   12   13 2
    18   14   18 2
    19   14   19 1
    20   15   16 1
    21   15   19 2
    22   16   17 2
    23   17   18 1
    24   19   20 1
    25   20   21 2
    26   20   22 1
    27   23   24 2
    28   23   25 1
    29   26   27 1
    30   27   28 1
    31   27   32 1
    32   28   29 am
    33   29   30 1
    34   29   31 2
    35   32   33 2
    36   32   34 am
    37   34   35 1
    38   35   36 1
    39   36   37 1
    40   37   38 1
    41   38   39 1
    42    3   40 1
    43    4   41 1
    44   10   42 1
    45   11   43 1
    46   12   44 1
    47   13   45 1
    48   15   46 1
    49   16   47 1
    50   17   48 1
    51   18   49 1
    52   26   50 1
    53   26   51 1
    54   27   52 1
    55   28   53 1
    56   30   54 1
    57   30   55 1
    58   30   56 1
    59   34   57 1
    60   35   58 1
    61   35   59 1
    62   36   60 1
    63   36   61 1
    64   37   62 1
    65   37   63 1
    66   38   64 1
    67   38   65 1
    68   39   66 1
    69   39   67 1
    70   39   68 1
@<TRIPOS>PROPERTY_DATA
  Total_Score	| 16.0507
  Crash		| -2.3023
  Polar		| 13.3194
  FragIndex	| 1
  FragRMSD	| 0.409

