@<TRIPOS>MOLECULE
BindingDB_13951
 36 37 0 0 0
SMALL
NO_CHARGES


@<TRIPOS>ATOM
1    C        34.2217   28.6706   20.8929  C     
2    C        33.0756   29.5246   20.8530  C     
3    C        32.9726   30.5431   19.8491  C     
4    C        34.0605   30.7785   18.9770  C     
5    C        35.2114   29.9772   19.0493  C     
6    C        35.2747   28.9289   19.9787  C     
7    C        31.9658   29.3652   21.8347  C     
8    C        31.7503   31.3670   19.6682  C     
9    N        34.3696   27.5966   21.7527  N     
10   C        34.0748   26.3266   21.2319  C     
11   C        34.6462   23.9843   20.7105  C     
12   C        33.3678   23.7446   20.2180  C     
13   C        32.4297   24.7874   20.1945  C     
14   C        32.7866   26.0773   20.6904  C     
15   C        35.0205   25.2592   21.2173  C     
16   O        37.3563   25.6681   20.8848  O     
17   C        34.7702   27.7650   23.0320  C     
18   O        34.8099   26.8274   23.8457  O     
19   C        36.3167   25.3599   21.7096  C     
20   O        36.6266   24.7044   22.8620  O     
21   C        35.1385   28.9755   23.5809  C     
22   O        36.3560   29.4958   23.2891  O     
23   O        34.4062   29.5509   24.5876  O     
24   H        34.0354   31.5310   18.2849  H     
25   H        35.9921   30.1592   18.4171  H     
26   H        36.1035   28.3289   19.9758  H     
27   H        32.1723   28.6504   22.6268  H     
28   H        31.0435   29.0593   21.3471  H     
29   H        31.7870   30.3258   22.3348  H     
30   H        30.9116   30.7187   19.4210  H     
31   H        31.8450   32.1141   18.8784  H     
32   H        31.5371   31.8959   20.5980  H     
33   H        35.3231   23.2046   20.7250  H     
34   H        33.1114   22.8235   19.8668  H     
35   H        31.4886   24.6216   19.8140  H     
36   H        32.0640   26.7872   20.6623  H     
@<TRIPOS>BOND
     1    1    2 2
     2    1    6 1
     3    1    9 1
     4    2    3 1
     5    2    7 1
     6    3    4 2
     7    3    8 1
     8    4    5 1
     9    5    6 2
    10    9   10 1
    11    9   17 am
    12   10   14 2
    13   10   15 1
    14   11   12 1
    15   11   15 2
    16   12   13 2
    17   13   14 1
    18   15   19 1
    19   16   19 2
    20   17   18 2
    21   17   21 1
    22   19   20 1
    23   21   22 2
    24   21   23 1
    25    4   24 1
    26    5   25 1
    27    6   26 1
    28    7   27 1
    29    7   28 1
    30    7   29 1
    31    8   30 1
    32    8   31 1
    33    8   32 1
    34   11   33 1
    35   12   34 1
    36   13   35 1
    37   14   36 1
@<TRIPOS>PROPERTY_DATA
  Total_Score	| 12.5267
  Crash		| -1.5870
  Polar		| 10.8281
  FragIndex	| 1
  FragRMSD	| 1.055

