@<TRIPOS>MOLECULE
BindingDB_50118789
 20 20 0 0 0
SMALL
NO_CHARGES


@<TRIPOS>ATOM
1    C        35.2778   24.9688   21.2717  C     
2    C        35.0931   27.5273   23.2014  C     
3    N        34.8463   27.3108   21.9132  N     
4    C        34.4443   26.1219   21.3714  C     
5    C        36.6481   24.9838   21.6311  C     
6    C        35.2980   28.8133   23.6512  C     
7    O        35.0775   26.6204   24.0242  O     
8    O        37.3074   23.8560   21.9865  O     
9    O        36.3305   29.5471   23.1879  O     
10   O        37.4015   26.0943   21.4524  O     
11   O        34.4246   29.4202   24.4909  O     
12   C        34.7297   23.7784   20.7334  C     
13   C        33.1141   26.0677   20.8953  C     
14   C        33.4012   23.7349   20.2787  C     
15   C        32.5933   24.8801   20.3559  C     
16   H        34.7533   28.0953   21.3475  H     
17   H        35.2989   22.9319   20.6405  H     
18   H        32.5070   26.8907   20.9565  H     
19   H        33.0291   22.8713   19.8792  H     
20   H        31.6276   24.8476   20.0204  H     
@<TRIPOS>BOND
     1    1    4 2
     2    1    5 1
     3    1   12 1
     4    2    3 am
     5    2    6 1
     6    2    7 2
     7    3    4 1
     8    4   13 1
     9    5    8 2
    10    5   10 1
    11    6    9 2
    12    6   11 1
    13   12   14 2
    14   13   15 2
    15   14   15 1
    16    3   16 1
    17   12   17 1
    18   13   18 1
    19   14   19 1
    20   15   20 1
@<TRIPOS>PROPERTY_DATA
  Total_Score	| 10.0459
  Crash		| -0.7132
  Polar		| 10.6785
  FragIndex	| 1
  FragRMSD	| 0.323

