@<TRIPOS>MOLECULE
BindingDB_34983
 20 22 0 0 0
SMALL
NO_CHARGES


@<TRIPOS>ATOM
1    C         4.6122   82.2657   -0.8905  C     
2    C         3.8479   82.3542    0.2902  C     
3    C         4.4612   82.1816    1.5508  C     
4    C         5.8460   81.9211    1.6339  C     
5    C         6.6044   81.8342    0.4486  C     
6    C         5.9907   82.0047   -0.7959  C     
7    S         7.0825   81.8615   -2.1319  S     
8    C         8.3239   81.5794   -0.9845  C     
9    Cl        3.5347   82.2897    2.9626  Cl    
10   C         9.6414   81.3489   -1.2795  C     
11   C         7.9377   81.5933    0.3044  C     
12   N         8.8188   81.3858    1.2986  N     
13   C        10.1285   81.1564    1.0092  C     
14   N        10.5188   81.1424   -0.2953  N     
15   O        10.0438   81.3262   -2.4339  O     
16   H         4.1683   82.3884   -1.8032  H     
17   H         2.8445   82.5422    0.2254  H     
18   H         6.2956   81.7974    2.5438  H     
19   H        10.8068   80.9965    1.7551  H     
20   H        11.4506   80.9796   -0.5118  H     
@<TRIPOS>BOND
     1    1    2 1
     2    1    6 2
     3    2    3 2
     4    3    4 1
     5    3    9 1
     6    4    5 2
     7    5    6 1
     8    5   11 1
     9    6    7 1
    10    7    8 1
    11    8   10 1
    12    8   11 2
    13   10   14 1
    14   10   15 2
    15   11   12 1
    16   12   13 2
    17   13   14 1
    18    1   16 1
    19    2   17 1
    20    4   18 1
    21   13   19 1
    22   14   20 1
@<TRIPOS>PROPERTY_DATA
  Total_Score	| 4.5202
  Crash		| -0.1501
  Polar		| 1.1517
  FragIndex	| 1
  FragRMSD	| 0.099

