@<TRIPOS>MOLECULE
BindingDB_34998
 36 39 0 0 0
SMALL
NO_CHARGES


@<TRIPOS>ATOM
1    C         9.4476   81.3453   -1.7084  C     
2    C         8.1465   81.6256   -1.3383  C     
3    N         8.6958   81.0767    0.8679  N     
4    C         9.9570   80.7268    0.4980  C     
5    N        10.3119   80.8852   -0.8037  N     
6    O         9.8522   81.5231   -2.8458  O     
7    C        10.8961   80.3163    1.5501  C     
8    S         6.8564   82.1637   -2.3283  S     
9    C         5.8349   82.1477   -0.9220  C     
10   C         7.8096   81.4834   -0.0422  C     
11   C         4.4656   82.4595   -0.8725  C     
12   C         3.7803   82.3760    0.3619  C     
13   C         4.4654   81.9898    1.5335  C     
14   C         5.8397   81.6915    1.4738  C     
15   C         6.5098   81.7625    0.2350  C     
16   Cl        3.6438   81.8569    3.0041  Cl    
17   N        10.5944   79.0609    2.1995  N     
18   C        10.6324   78.9794    3.5576  C     
19   C         9.4971   79.3479    4.3040  C     
20   C        11.7440   78.4558    4.2528  C     
21   C        11.7472   78.4230    5.6637  C     
22   C        10.6021   78.8083    6.3914  C     
23   C         9.4661   79.2508    5.6999  C     
24   O        10.5669   78.7600    7.7518  O     
25   H        11.2238   80.6933   -1.0740  H     
26   H        11.8993   80.2354    1.1542  H     
27   H        10.8852   81.1544    2.2621  H     
28   H         3.9636   82.7372   -1.7153  H     
29   H         2.7803   82.6050    0.4021  H     
30   H         6.3384   81.4220    2.3221  H     
31   H        10.8698   78.2470    1.7070  H     
32   H         8.6316   79.5712    3.8114  H     
33   H        12.6051   78.2080    3.7442  H     
34   H        12.5963   78.1468    6.1636  H     
35   H         8.6066   79.4973    6.2035  H     
36   H        11.0961   77.9738    8.0005  H     
@<TRIPOS>BOND
     1    1    2 1
     2    1    5 1
     3    1    6 2
     4    2    8 1
     5    2   10 2
     6    3    4 2
     7    3   10 1
     8    4    5 1
     9    4    7 1
    10    7   17 1
    11    8    9 1
    12    9   11 2
    13    9   15 1
    14   10   15 1
    15   11   12 1
    16   12   13 2
    17   13   14 1
    18   13   16 1
    19   14   15 2
    20   17   18 1
    21   18   19 1
    22   18   20 2
    23   19   23 2
    24   20   21 1
    25   21   22 2
    26   22   23 1
    27   22   24 1
    28    5   25 1
    29    7   26 1
    30    7   27 1
    31   11   28 1
    32   12   29 1
    33   14   30 1
    34   17   31 1
    35   19   32 1
    36   20   33 1
    37   21   34 1
    38   23   35 1
    39   24   36 1
@<TRIPOS>PROPERTY_DATA
  Total_Score	| 7.5204
  Crash		| -1.6729
  Polar		| 2.9548
  FragIndex	| 1
  FragRMSD	| 0.415

