@<TRIPOS>MOLECULE
BindingDB_34988
 37 40 0 0 0
SMALL
NO_CHARGES


@<TRIPOS>ATOM
1    C         9.3426   81.3572   -1.4229  C     
2    C         8.0204   81.6270   -1.1869  C     
3    N         8.3846   81.2608    1.1032  N     
4    C         9.6873   80.9529    0.8684  C     
5    N        10.1476   81.0164   -0.4125  N     
6    O         9.8201   81.4151   -2.5461  O     
7    C        10.5639   80.6823    2.0113  C     
8    S         6.8389   82.0764   -2.3410  S     
9    C         5.6937   82.1446   -1.0367  C     
10   C         7.5742   81.5667    0.0810  C     
11   C         4.3226   82.4575   -1.1493  C     
12   C         3.5201   82.4430    0.0100  C     
13   C         4.0818   82.1171    1.2632  C     
14   C         5.4584   81.8215    1.3650  C     
15   C         6.2521   81.8399    0.2046  C     
16   Cl        3.1040   82.0794    2.6460  Cl    
17   N         9.9592   79.6956    2.9759  N     
18   C         9.6587   80.1695    4.3620  C     
19   C        10.3341   79.2038    5.3601  C     
20   C        11.3106   78.3844    4.4997  C     
21   C        10.6645   78.3924    3.1078  C     
22   O         9.3740   78.3759    6.0239  O     
23   H        11.0836   80.8309   -0.5887  H     
24   H        11.5410   80.3526    1.6414  H     
25   H        10.7083   81.6477    2.4824  H     
26   H         3.9195   82.6871   -2.0640  H     
27   H         2.5259   82.6535   -0.0735  H     
28   H         5.8675   81.5874    2.2731  H     
29   H         9.0438   79.4622    2.6004  H     
30   H        10.0170   81.1789    4.5534  H     
31   H         8.5690   80.1779    4.5105  H     
32   H        10.8802   79.7503    6.1289  H     
33   H        12.2843   78.8769    4.4543  H     
34   H        11.4484   77.3705    4.8778  H     
35   H         9.9143   77.5900    3.0540  H     
36   H        11.4079   78.1963    2.3314  H     
37   H         8.9512   77.8559    5.3041  H     
@<TRIPOS>BOND
     1    1    2 1
     2    1    5 1
     3    1    6 2
     4    2    8 1
     5    2   10 2
     6    3    4 2
     7    3   10 1
     8    4    5 1
     9    4    7 1
    10    7   17 1
    11    8    9 1
    12    9   11 2
    13    9   15 1
    14   10   15 1
    15   11   12 1
    16   12   13 2
    17   13   14 1
    18   13   16 1
    19   14   15 2
    20   17   18 1
    21   17   21 1
    22   18   19 1
    23   19   20 1
    24   19   22 1
    25   20   21 1
    26    5   23 1
    27    7   24 1
    28    7   25 1
    29   11   26 1
    30   12   27 1
    31   14   28 1
    32   17   29 1
    33   18   30 1
    34   18   31 1
    35   19   32 1
    36   20   33 1
    37   20   34 1
    38   21   35 1
    39   21   36 1
    40   22   37 1
@<TRIPOS>PROPERTY_DATA
  Total_Score	| 5.4848
  Crash		| -3.3274
  Polar		| 2.1820
  FragIndex	| 1
  FragRMSD	| 0.453

