@<TRIPOS>MOLECULE
BindingDB_34995
 35 38 0 0 0
SMALL
NO_CHARGES


@<TRIPOS>ATOM
1    C         9.4723   81.3792   -1.6233  C     
2    C         8.1753   81.6673   -1.2696  C     
3    N         8.6552   81.0915    0.9288  N     
4    C         9.9240   80.7280    0.5899  C     
5    N        10.3180   80.9274   -0.6981  N     
6    O         9.9084   81.5959   -2.7460  O     
7    C        10.8346   80.2758    1.6406  C     
8    S         6.9195   82.1403   -2.3215  S     
9    C         5.8543   82.1582   -0.9406  C     
10   C         7.7988   81.5335    0.0061  C     
11   C         4.4852   82.4793   -0.9415  C     
12   C         3.7556   82.3934    0.2614  C     
13   C         4.3843   81.9777    1.4528  C     
14   C         5.7676   81.6798    1.4541  C     
15   C         6.4801   81.7912    0.2502  C     
16   Cl        3.4957   81.8341    2.8866  Cl    
17   N        10.3862   79.1349    2.3703  N     
18   C         9.8542   79.1841    3.6066  C     
19   C         8.5115   79.5943    3.8254  C     
20   C        10.6819   78.8024    4.6685  C     
21   C        10.1986   78.8884    5.9680  C     
22   C         8.8630   79.2650    6.2159  C     
23   C         8.0101   79.6313    5.1504  C     
24   H        11.2400   80.7486   -0.9410  H     
25   H        11.8079   80.0692    1.2335  H     
26   H        10.9152   81.1396    2.3332  H     
27   H         4.0260   82.7665   -1.8000  H     
28   H         2.7557   82.6194    0.2639  H     
29   H         6.2294   81.3890    2.3146  H     
30   H        10.7744   78.2449    2.1134  H     
31   H         7.8946   79.7821    3.0193  H     
32   H        11.6520   78.5213    4.4885  H     
33   H        10.8026   78.6222    6.7599  H     
34   H         8.4847   79.2639    7.1651  H     
35   H         7.0443   79.8488    5.3003  H     
@<TRIPOS>BOND
     1    1    2 1
     2    1    5 1
     3    1    6 2
     4    2    8 1
     5    2   10 2
     6    3    4 2
     7    3   10 1
     8    4    5 1
     9    4    7 1
    10    7   17 1
    11    8    9 1
    12    9   11 2
    13    9   15 1
    14   10   15 1
    15   11   12 1
    16   12   13 2
    17   13   14 1
    18   13   16 1
    19   14   15 2
    20   17   18 1
    21   18   19 1
    22   18   20 2
    23   19   23 2
    24   20   21 1
    25   21   22 2
    26   22   23 1
    27    5   24 1
    28    7   25 1
    29    7   26 1
    30   11   27 1
    31   12   28 1
    32   14   29 1
    33   17   30 1
    34   19   31 1
    35   20   32 1
    36   21   33 1
    37   22   34 1
    38   23   35 1
@<TRIPOS>PROPERTY_DATA
  Total_Score	| 6.7303
  Crash		| -1.6483
  Polar		| 1.7483
  FragIndex	| 1
  FragRMSD	| 0.390

