@<TRIPOS>MOLECULE
BindingDB_34991
 40 43 0 0 0
SMALL
NO_CHARGES


@<TRIPOS>ATOM
1    C         9.2981   81.3024   -1.3739  C     
2    C         7.9555   81.5579   -1.2379  C     
3    N         8.1384   81.1906    1.0573  N     
4    C         9.4646   80.9367    0.9499  C     
5    N        10.0297   81.0076   -0.2936  N     
6    O         9.8557   81.3487   -2.4622  O     
7    C        10.2669   80.6307    2.1478  C     
8    S         6.8535   81.9911   -2.4775  S     
9    C         5.6309   82.1276   -1.2530  C     
10   C         7.4137   81.5040   -0.0107  C     
11   C         4.2879   82.4986   -1.4458  C     
12   C         3.4257   82.5730   -0.3315  C     
13   C         3.9071   82.2828    0.9642  C     
14   C         5.2527   81.9077    1.1491  C     
15   C         6.1011   81.8326    0.0266  C     
16   Cl        2.8787   82.3845    2.3025  Cl    
17   N         9.6145   80.6327    3.5024  N     
18   C         8.8192   81.8563    3.8558  C     
19   C         8.5776   81.8968    5.3848  C     
20   C         7.8626   80.6085    5.8688  C     
21   C         8.5989   79.3315    5.3768  C     
22   C         8.8770   79.3791    3.8512  C     
23   O         6.5098   80.6072    5.4093  O     
24   H        10.9815   80.8401   -0.3942  H     
25   H        10.7461   79.6630    1.9906  H     
26   H        11.0615   81.3665    2.1656  H     
27   H         3.9405   82.7161   -2.3823  H     
28   H         2.4486   82.8431   -0.4698  H     
29   H         5.6069   81.6909    2.0840  H     
30   H        10.4007   80.6405    4.1531  H     
31   H         9.3456   82.7664    3.5587  H     
32   H         7.8497   81.8655    3.3517  H     
33   H         9.5411   81.9933    5.8950  H     
34   H         7.9721   82.7695    5.6415  H     
35   H         7.8396   80.6076    6.9623  H     
36   H         9.5532   79.2461    5.9071  H     
37   H         8.0038   78.4449    5.6150  H     
38   H         7.9310   79.3180    3.3064  H     
39   H         9.4787   78.5043    3.5914  H     
40   H         6.0940   79.8609    5.8900  H     
@<TRIPOS>BOND
     1    1    2 1
     2    1    5 1
     3    1    6 2
     4    2    8 1
     5    2   10 2
     6    3    4 2
     7    3   10 1
     8    4    5 1
     9    4    7 1
    10    7   17 1
    11    8    9 1
    12    9   11 2
    13    9   15 1
    14   10   15 1
    15   11   12 1
    16   12   13 2
    17   13   14 1
    18   13   16 1
    19   14   15 2
    20   17   18 1
    21   17   22 1
    22   18   19 1
    23   19   20 1
    24   20   21 1
    25   20   23 1
    26   21   22 1
    27    5   24 1
    28    7   25 1
    29    7   26 1
    30   11   27 1
    31   12   28 1
    32   14   29 1
    33   17   30 1
    34   18   31 1
    35   18   32 1
    36   19   33 1
    37   19   34 1
    38   20   35 1
    39   21   36 1
    40   21   37 1
    41   22   38 1
    42   22   39 1
    43   23   40 1
@<TRIPOS>PROPERTY_DATA
  Total_Score	| 5.4667
  Crash		| -2.7136
  Polar		| 2.3377
  FragIndex	| 1
  FragRMSD	| 0.655

