@<TRIPOS>MOLECULE
BindingDB_34986
 39 42 0 0 0
SMALL
NO_CHARGES


@<TRIPOS>ATOM
1    C         9.4047   81.3927   -1.2112  C     
2    C         8.0857   81.5837   -1.1654  C     
3    N         8.0953   81.5676    1.2502  N     
4    C         9.4242   81.2657    1.1740  C     
5    N        10.0576   81.1836   -0.0509  N     
6    O         9.9236   81.0163   -2.2649  O     
7    C        10.0402   80.7263    2.4389  C     
8    N         9.4257   80.9397    3.7630  N     
9    S         6.9840   81.7753   -2.4892  S     
10   C         5.7004   81.9935   -1.3894  C     
11   C         7.4708   81.7314    0.0729  C     
12   C         4.3253   82.2014   -1.6653  C     
13   C         3.4300   82.4529   -0.6277  C     
14   C         3.9029   82.4763    0.7223  C     
15   C         5.2499   82.2458    0.9948  C     
16   C         6.1224   81.9468   -0.0644  C     
17   Cl        2.8160   82.7989    1.9897  Cl    
18   C         8.5895   82.1941    4.1060  C     
19   C         8.1167   82.1829    5.5826  C     
20   C         7.1767   80.9646    5.8614  C     
21   N         8.0167   79.7650    5.4433  N     
22   C         8.5101   79.7427    4.0072  C     
23   H        11.0132   80.9311   -0.1484  H     
24   H        10.1312   79.6230    2.3573  H     
25   H        11.0529   81.0988    2.3933  H     
26   H        10.1481   80.8434    4.5163  H     
27   H         3.9402   82.1627   -2.6355  H     
28   H         2.3884   82.6198   -0.8151  H     
29   H         5.6092   82.3369    1.9135  H     
30   H         9.2204   83.0331    3.8558  H     
31   H         7.7214   82.2230    3.4426  H     
32   H         8.9955   82.1134    6.2706  H     
33   H         7.6077   83.1514    5.8525  H     
34   H         6.8282   81.0039    6.8946  H     
35   H         6.2976   81.0311    5.2143  H     
36   H         8.7828   79.7999    6.1511  H     
37   H         7.4350   78.9810    5.7194  H     
38   H         7.6759   79.7113    3.3274  H     
39   H         8.9639   78.7532    3.8193  H     
@<TRIPOS>BOND
     1    1    2 1
     2    1    5 1
     3    1    6 2
     4    2    9 1
     5    2   11 2
     6    3    4 2
     7    3   11 1
     8    4    5 1
     9    4    7 1
    10    7    8 1
    11    8   18 1
    12    8   22 1
    13    9   10 1
    14   10   12 2
    15   10   16 1
    16   11   16 1
    17   12   13 1
    18   13   14 2
    19   14   15 1
    20   14   17 1
    21   15   16 2
    22   18   19 1
    23   19   20 1
    24   20   21 1
    25   21   22 1
    26    5   23 1
    27    7   24 1
    28    7   25 1
    29    8   26 1
    30   12   27 1
    31   13   28 1
    32   15   29 1
    33   18   30 1
    34   18   31 1
    35   19   32 1
    36   19   33 1
    37   20   34 1
    38   20   35 1
    39   21   36 1
    40   21   37 1
    41   22   38 1
    42   22   39 1
@<TRIPOS>PROPERTY_DATA
  Total_Score	| 5.4633
  Crash		| -2.1240
  Polar		| 1.9259
  FragIndex	| 1
  FragRMSD	| 0.736

