@<TRIPOS>MOLECULE
BindingDB_34996
 36 39 0 0 0
SMALL
NO_CHARGES


@<TRIPOS>ATOM
1    C         9.4318   81.3216   -1.6606  C     
2    C         8.1326   81.6315   -1.3217  C     
3    N         8.6307   81.1119    0.9125  N     
4    C         9.8936   80.7325    0.5657  C     
5    N        10.2774   80.8596   -0.7436  N     
6    O         9.8459   81.4531   -2.8074  O     
7    C        10.8084   80.3210    1.6385  C     
8    S         6.8788   82.1699   -2.3582  S     
9    C         5.8288   82.2030   -0.9711  C     
10   C         7.7678   81.5265   -0.0256  C     
11   C         4.4683   82.5585   -0.9737  C     
12   C         3.7419   82.5013    0.2318  C     
13   C         4.3789   82.0921    1.4262  C     
14   C         5.7487   81.7602    1.4210  C     
15   C         6.4666   81.8242    0.2075  C     
16   Cl        3.4866   81.9679    2.8661  Cl    
17   N        10.4953   79.0868    2.3339  N     
18   C         9.9569   79.0707    3.5810  C     
19   C         8.6768   79.6029    3.8811  C     
20   C        10.6913   78.5141    4.6636  C     
21   C        10.2261   78.6411    5.9830  C     
22   C         8.9372   79.1623    6.2510  C     
23   C         8.1582   79.6181    5.1841  C     
24   O        11.9437   78.0342    4.4711  O     
25   H        11.1899   80.6620   -0.9951  H     
26   H        11.7801   80.1427    1.2254  H     
27   H        10.8947   81.2298    2.2817  H     
28   H         4.0114   82.8473   -1.8399  H     
29   H         2.7519   82.7517    0.2359  H     
30   H         6.2093   81.4662    2.2861  H     
31   H        11.1817   78.3857    2.1663  H     
32   H         8.0451   79.8745    3.1306  H     
33   H        10.8138   78.3649    6.7837  H     
34   H         8.5820   79.2046    7.1985  H     
35   H         7.1976   79.9420    5.3424  H     
36   H        11.8579   77.3758    3.7435  H     
@<TRIPOS>BOND
     1    1    2 1
     2    1    5 1
     3    1    6 2
     4    2    8 1
     5    2   10 2
     6    3    4 2
     7    3   10 1
     8    4    5 1
     9    4    7 1
    10    7   17 1
    11    8    9 1
    12    9   11 2
    13    9   15 1
    14   10   15 1
    15   11   12 1
    16   12   13 2
    17   13   14 1
    18   13   16 1
    19   14   15 2
    20   17   18 1
    21   18   19 1
    22   18   20 2
    23   19   23 2
    24   20   21 1
    25   20   24 1
    26   21   22 2
    27   22   23 1
    28    5   25 1
    29    7   26 1
    30    7   27 1
    31   11   28 1
    32   12   29 1
    33   14   30 1
    34   17   31 1
    35   19   32 1
    36   21   33 1
    37   22   34 1
    38   23   35 1
    39   24   36 1
@<TRIPOS>PROPERTY_DATA
  Total_Score	| 7.0549
  Crash		| -1.9142
  Polar		| 2.7457
  FragIndex	| 1
  FragRMSD	| 0.422

