@<TRIPOS>MOLECULE
BindingDB_34993
 35 37 0 0 0
SMALL
NO_CHARGES


@<TRIPOS>ATOM
1    C         9.4560   81.2981   -1.5794  C     
2    C         8.1618   81.5826   -1.2329  C     
3    N         8.6713   81.1116    0.9989  N     
4    C         9.9430   80.7683    0.6725  C     
5    N        10.3166   80.8892   -0.6404  N     
6    O         9.8424   81.3845   -2.7394  O     
7    C        10.8847   80.3572    1.7314  C     
8    S         6.9072   82.0479   -2.3024  S     
9    C         5.8508   82.0910   -0.9289  C     
10   C         7.8007   81.4893    0.0578  C     
11   C         4.4805   82.4036   -0.9480  C     
12   C         3.7514   82.3776    0.2576  C     
13   C         4.3916   82.0417    1.4705  C     
14   C         5.7679   81.7368    1.4816  C     
15   C         6.4878   81.7648    0.2702  C     
16   Cl        3.5076   82.0134    2.9126  Cl    
17   C        10.6195   79.0211    2.5004  C     
18   N         9.7028   78.9526    3.7003  N     
19   C        10.3749   78.8005    5.0255  C     
20   C         8.6210   79.9821    3.7611  C     
21   H        11.2305   80.6852   -0.8949  H     
22   H        11.8700   80.2660    1.2685  H     
23   H        10.9422   81.1727    2.4456  H     
24   H         4.0173   82.6494   -1.8250  H     
25   H         2.7547   82.6039    0.2467  H     
26   H         6.2366   81.4952    2.3571  H     
27   H        10.3390   78.2571    1.7703  H     
28   H        11.5954   78.7065    2.8865  H     
29   H         9.1925   78.0745    3.5723  H     
30   H        11.2089   78.0974    4.9639  H     
31   H         9.6736   78.4034    5.7577  H     
32   H        10.7481   79.7591    5.3913  H     
33   H         9.0170   80.9745    3.9573  H     
34   H         7.9099   79.7406    4.5564  H     
35   H         8.0508   80.0087    2.8326  H     
@<TRIPOS>BOND
     1    1    2 1
     2    1    5 1
     3    1    6 2
     4    2    8 1
     5    2   10 2
     6    3    4 2
     7    3   10 1
     8    4    5 1
     9    4    7 1
    10    7   17 1
    11    8    9 1
    12    9   11 2
    13    9   15 1
    14   10   15 1
    15   11   12 1
    16   12   13 2
    17   13   14 1
    18   13   16 1
    19   14   15 2
    20   17   18 1
    21   18   19 1
    22   18   20 1
    23    5   21 1
    24    7   22 1
    25    7   23 1
    26   11   24 1
    27   12   25 1
    28   14   26 1
    29   17   27 1
    30   17   28 1
    31   18   29 1
    32   19   30 1
    33   19   31 1
    34   19   32 1
    35   20   33 1
    36   20   34 1
    37   20   35 1
@<TRIPOS>PROPERTY_DATA
  Total_Score	| 6.0728
  Crash		| -2.5667
  Polar		| 2.6996
  FragIndex	| 1
  FragRMSD	| 0.333

