@<TRIPOS>MOLECULE
BindingDB_34985
 39 42 0 0 0
SMALL
NO_CHARGES


@<TRIPOS>ATOM
1    C         9.3150   81.3440   -1.3286  C     
2    C         7.9746   81.6076   -1.1862  C     
3    N         8.1616   81.1941    1.0985  N     
4    C         9.4837   80.9333    0.9893  C     
5    N        10.0464   81.0261   -0.2539  N     
6    O         9.8700   81.4029   -2.4169  O     
7    C        10.2777   80.5866    2.1853  C     
8    N         9.6230   80.5323    3.5389  N     
9    S         6.8718   82.0835   -2.4095  S     
10   C         5.6554   82.2037   -1.1770  C     
11   C         7.4362   81.5325    0.0405  C     
12   C         4.3177   82.5996   -1.3509  C     
13   C         3.4642   82.6611   -0.2302  C     
14   C         3.9461   82.3287    1.0541  C     
15   C         5.2854   81.9280    1.2202  C     
16   C         6.1275   81.8708    0.0921  C     
17   Cl        2.9259   82.4074    2.4003  Cl    
18   C         8.9271   79.2483    3.8687  C     
19   C         8.6632   79.1550    5.3952  C     
20   C         7.8699   80.3857    5.8999  C     
21   C         8.5365   81.7118    5.4457  C     
22   C         8.7763   81.7117    3.9135  C     
23   H        10.9966   80.8579   -0.3604  H     
24   H        10.7670   79.6289    1.9958  H     
25   H        11.0690   81.3273    2.2333  H     
26   H        10.4083   80.5572    4.1896  H     
27   H         3.9675   82.8447   -2.2789  H     
28   H         2.4917   82.9509   -0.3567  H     
29   H         5.6404   81.6837    2.1472  H     
30   H         7.9695   79.1761    3.3423  H     
31   H         9.5478   78.3964    3.5779  H     
32   H         8.0987   78.2411    5.6154  H     
33   H         9.6209   79.0931    5.9257  H     
34   H         6.8499   80.3438    5.5072  H     
35   H         7.8095   80.3605    6.9924  H     
36   H         7.8951   82.5531    5.7162  H     
37   H         9.4945   81.8359    5.9608  H     
38   H         9.2532   82.6512    3.6249  H     
39   H         7.8036   81.6787    3.4145  H     
@<TRIPOS>BOND
     1    1    2 1
     2    1    5 1
     3    1    6 2
     4    2    9 1
     5    2   11 2
     6    3    4 2
     7    3   11 1
     8    4    5 1
     9    4    7 1
    10    7    8 1
    11    8   18 1
    12    8   22 1
    13    9   10 1
    14   10   12 2
    15   10   16 1
    16   11   16 1
    17   12   13 1
    18   13   14 2
    19   14   15 1
    20   14   17 1
    21   15   16 2
    22   18   19 1
    23   19   20 1
    24   20   21 1
    25   21   22 1
    26    5   23 1
    27    7   24 1
    28    7   25 1
    29    8   26 1
    30   12   27 1
    31   13   28 1
    32   15   29 1
    33   18   30 1
    34   18   31 1
    35   19   32 1
    36   19   33 1
    37   20   34 1
    38   20   35 1
    39   21   36 1
    40   21   37 1
    41   22   38 1
    42   22   39 1
@<TRIPOS>PROPERTY_DATA
  Total_Score	| 4.6504
  Crash		| -2.4978
  Polar		| 1.0107
  FragIndex	| 1
  FragRMSD	| 0.615

