@<TRIPOS>MOLECULE
BindingDB_35051
 20 22 0 0 0
SMALL
NO_CHARGES


@<TRIPOS>ATOM
1    C         4.5600   82.1981   -0.7940  C     
2    C         3.8411   82.3220    0.4130  C     
3    C         4.4939   82.1720    1.6478  C     
4    C         5.8777   81.9123    1.7050  C     
5    C         5.9472   81.9397   -0.7374  C     
6    Cl        3.7262   82.3341   -2.2639  Cl    
7    Cl        6.5855   81.7312    3.2356  Cl    
8    S         6.9980   81.7451   -2.1070  S     
9    C         6.6066   81.8038    0.4939  C     
10   C         8.2853   81.5153   -1.0042  C     
11   C         9.5975   81.3065   -1.3453  C     
12   C         7.9418   81.5663    0.2961  C     
13   N         8.8733   81.4084    1.2536  N     
14   C        10.1741   81.1973    0.9277  C     
15   N        10.5149   81.1524   -0.3892  N     
16   O         9.9596   81.2672   -2.5109  O     
17   H         2.8350   82.5085    0.3952  H     
18   H         3.9484   82.2490    2.5103  H     
19   H        10.8788   81.0786    1.6535  H     
20   H        11.4419   81.0083   -0.6342  H     
@<TRIPOS>BOND
     1    1    2 1
     2    1    5 2
     3    1    6 1
     4    2    3 2
     5    3    4 1
     6    4    7 1
     7    4    9 2
     8    5    8 1
     9    5    9 1
    10    8   10 1
    11    9   12 1
    12   10   11 1
    13   10   12 2
    14   11   15 1
    15   11   16 2
    16   12   13 1
    17   13   14 2
    18   14   15 1
    19    2   17 1
    20    3   18 1
    21   14   19 1
    22   15   20 1
@<TRIPOS>PROPERTY_DATA
  Total_Score	| 4.6788
  Crash		| -0.1968
  Polar		| 1.2262
  FragIndex	| 1
  FragRMSD	| 0.020

