@<TRIPOS>MOLECULE
BindingDB_34987
 37 40 0 0 0
SMALL
NO_CHARGES


@<TRIPOS>ATOM
1    C         9.2783   81.3843   -1.4575  C     
2    C         7.9071   81.5324   -1.3088  C     
3    N         8.1227   81.0125    0.9435  N     
4    C         9.4689   80.9064    0.8402  C     
5    N        10.0316   81.1125   -0.3898  N     
6    O         9.8330   81.5398   -2.5384  O     
7    C        10.2621   80.7560    2.0718  C     
8    N         9.5017   80.8146    3.3650  N     
9    S         6.7763   82.0562   -2.4886  S     
10   C         5.6025   82.1697   -1.2126  C     
11   C         7.3799   81.3580   -0.0796  C     
12   C         4.2875   82.6696   -1.3253  C     
13   C         3.4952   82.7936   -0.1635  C     
14   C         4.0057   82.4134    1.0974  C     
15   C         5.3170   81.8911    1.1952  C     
16   C         6.0991   81.7673    0.0284  C     
17   Cl        3.0527   82.5805    2.4835  Cl    
18   C         8.7356   82.0838    3.6158  C     
19   C         8.2503   82.1433    5.0734  C     
20   O         7.5380   80.9411    5.4379  O     
21   C         8.2862   79.7295    5.2064  C     
22   C         8.6862   79.6126    3.7136  C     
23   H        11.0010   81.0683   -0.4863  H     
24   H        10.8219   79.8180    1.9959  H     
25   H        11.0111   81.5502    2.0899  H     
26   H        10.2357   80.7939    4.0669  H     
27   H         3.9277   82.9681   -2.2332  H     
28   H         2.5478   83.1790   -0.2458  H     
29   H         5.6854   81.6140    2.1052  H     
30   H         9.3582   82.9474    3.4060  H     
31   H         7.8390   82.1650    3.0106  H     
32   H         9.0994   82.3056    5.7473  H     
33   H         7.5680   82.9918    5.1732  H     
34   H         9.1885   79.7148    5.8257  H     
35   H         7.6593   78.8846    5.4974  H     
36   H         7.7841   79.5415    3.0985  H     
37   H         9.2716   78.6953    3.5884  H     
@<TRIPOS>BOND
     1    1    2 1
     2    1    5 1
     3    1    6 2
     4    2    9 1
     5    2   11 2
     6    3    4 2
     7    3   11 1
     8    4    5 1
     9    4    7 1
    10    7    8 1
    11    8   18 1
    12    8   22 1
    13    9   10 1
    14   10   12 2
    15   10   16 1
    16   11   16 1
    17   12   13 1
    18   13   14 2
    19   14   15 1
    20   14   17 1
    21   15   16 2
    22   18   19 1
    23   19   20 1
    24   20   21 1
    25   21   22 1
    26    5   23 1
    27    7   24 1
    28    7   25 1
    29    8   26 1
    30   12   27 1
    31   13   28 1
    32   15   29 1
    33   18   30 1
    34   18   31 1
    35   19   32 1
    36   19   33 1
    37   21   34 1
    38   21   35 1
    39   22   36 1
    40   22   37 1
@<TRIPOS>PROPERTY_DATA
  Total_Score	| 3.8864
  Crash		| -2.7029
  Polar		| 1.0340
  FragIndex	| 1
  FragRMSD	| 0.661

