@<TRIPOS>MOLECULE
BindingDB_34992
 29 31 0 0 0
SMALL
NO_CHARGES


@<TRIPOS>ATOM
1    C         9.3556   81.4223   -1.5952  C     
2    C         8.0332   81.6781   -1.3219  C     
3    N         8.4272   81.1948    0.9381  N     
4    C         9.7323   80.9075    0.6794  C     
5    N        10.1746   81.0480   -0.6077  N     
6    O         9.8167   81.5229   -2.7217  O     
7    C        10.6373   80.4858    1.7590  C     
8    S         6.8308   82.1584   -2.4486  S     
9    C         5.7038   82.2019   -1.1267  C     
10   C         7.6069   81.5757   -0.0510  C     
11   C         4.3361   82.5271   -1.1962  C     
12   C         3.5637   82.5105   -0.0168  C     
13   C         4.1593   82.1753    1.2232  C     
14   C         5.5301   81.8567    1.2837  C     
15   C         6.2883   81.8695    0.0991  C     
16   Cl        3.2284   82.1153    2.6334  Cl    
17   N         9.9369   79.9904    2.9812  N     
18   C        10.4174   78.7062    3.5166  C     
19   H        11.1067   80.8624   -0.8099  H     
20   H        11.3454   79.7505    1.3515  H     
21   H        11.2018   81.3720    2.0408  H     
22   H         3.9030   82.7651   -2.0908  H     
23   H         2.5657   82.7378   -0.0627  H     
24   H         5.9674   81.6111    2.1706  H     
25   H        10.0455   80.6916    3.7187  H     
26   H         8.9354   79.8826    2.7919  H     
27   H        10.2432   77.9213    2.7810  H     
28   H         9.8659   78.4598    4.4199  H     
29   H        11.4791   78.7571    3.7601  H     
@<TRIPOS>BOND
     1    1    2 1
     2    1    5 1
     3    1    6 2
     4    2    8 1
     5    2   10 2
     6    3    4 2
     7    3   10 1
     8    4    5 1
     9    4    7 1
    10    7   17 1
    11    8    9 1
    12    9   11 2
    13    9   15 1
    14   10   15 1
    15   11   12 1
    16   12   13 2
    17   13   14 1
    18   13   16 1
    19   14   15 2
    20   17   18 1
    21    5   19 1
    22    7   20 1
    23    7   21 1
    24   11   22 1
    25   12   23 1
    26   14   24 1
    27   17   25 1
    28   17   26 1
    29   18   27 1
    30   18   28 1
    31   18   29 1
@<TRIPOS>PROPERTY_DATA
  Total_Score	| 5.0233
  Crash		| -1.8896
  Polar		| 1.1700
  FragIndex	| 1
  FragRMSD	| 0.510

