@<TRIPOS>MOLECULE
BindingDB_34984
 32 34 0 0 0
SMALL
NO_CHARGES


@<TRIPOS>ATOM
1    C         9.4980   81.2664   -1.5174  C     
2    C         8.2059   81.5827   -1.1872  C     
3    N         8.6768   81.0569    1.0562  N     
4    C         9.9509   80.7001    0.7283  C     
5    N        10.3405   80.8267   -0.5771  N     
6    O         9.9155   81.3771   -2.6623  O     
7    C        10.8755   80.2473    1.7889  C     
8    N        10.3781   79.1319    2.6691  N     
9    C        11.4713   78.4790    3.4526  C     
10   C         9.2536   79.5464    3.5655  C     
11   S         6.9673   82.0907   -2.2621  S     
12   C         5.8948   82.1209   -0.8974  C     
13   C         7.8288   81.4696    0.0980  C     
14   C         4.5229   82.4383   -0.9116  C     
15   C         3.7887   82.3917    0.2921  C     
16   C         4.4255   82.0208    1.5009  C     
17   C         5.8005   81.7145    1.5079  C     
18   C         6.5193   81.7682    0.2998  C     
19   Cl        3.5389   81.9016    2.9346  Cl    
20   H        11.2554   80.6120   -0.8259  H     
21   H        11.7983   79.9412    1.2874  H     
22   H        11.1129   81.1208    2.3959  H     
23   H        10.0225   78.3970    2.0535  H     
24   H        12.2584   78.1215    2.7869  H     
25   H        11.0838   77.6099    3.9885  H     
26   H        11.9137   79.1617    4.1810  H     
27   H         9.5568   80.3682    4.2252  H     
28   H         8.9227   78.7136    4.1916  H     
29   H         8.3871   79.8745    2.9786  H     
30   H         4.0605   82.6882   -1.7868  H     
31   H         2.7928   82.6105    0.2848  H     
32   H         6.2654   81.4360    2.3754  H     
@<TRIPOS>BOND
     1    1    2 1
     2    1    5 1
     3    1    6 2
     4    2   11 1
     5    2   13 2
     6    3    4 2
     7    3   13 1
     8    4    5 1
     9    4    7 1
    10    7    8 1
    11    8    9 1
    12    8   10 1
    13   11   12 1
    14   12   14 2
    15   12   18 1
    16   13   18 1
    17   14   15 1
    18   15   16 2
    19   16   17 1
    20   16   19 1
    21   17   18 2
    22    5   20 1
    23    7   21 1
    24    7   22 1
    25    8   23 1
    26    9   24 1
    27    9   25 1
    28    9   26 1
    29   10   27 1
    30   10   28 1
    31   10   29 1
    32   14   30 1
    33   15   31 1
    34   17   32 1
@<TRIPOS>PROPERTY_DATA
  Total_Score	| 4.4486
  Crash		| -2.9627
  Polar		| 1.2641
  FragIndex	| 1
  FragRMSD	| 0.318

