@<TRIPOS>MOLECULE
BindingDB_34989
 37 40 0 0 0
SMALL
NO_CHARGES


@<TRIPOS>ATOM
1    C         9.5745   81.5976   -1.5417  C     
2    C         8.2848   81.9422   -1.2125  C     
3    N         8.7184   81.2992    0.9762  N     
4    C         9.9588   80.8965    0.6877  C     
5    N        10.3907   81.0761   -0.6101  N     
6    O         9.9574   81.6652   -2.7044  O     
7    C        10.5546   80.0491    1.7270  C     
8    S         7.0588   82.4048   -2.3250  S     
9    C         5.9305   82.2850   -1.0123  C     
10   C         7.8793   81.8015    0.0647  C     
11   C         4.5384   82.4544   -1.1315  C     
12   C         3.7310   82.3443    0.0202  C     
13   C         4.3183   82.1050    1.2794  C     
14   C         5.7199   81.9540    1.3876  C     
15   C         6.5298   82.0082    0.2237  C     
16   Cl        3.3353   81.9827    2.6568  Cl    
17   N         9.9460   80.0909    3.1241  N     
18   C         8.4875   80.2601    3.5325  C     
19   C         8.3546   79.5801    4.9144  C     
20   C         9.7931   79.1707    5.2975  C     
21   C        10.4575   78.9680    3.9370  C     
22   O         7.7837   80.4157    5.9292  O     
23   H        11.2755   80.7690   -0.8738  H     
24   H        10.5364   79.0324    1.3181  H     
25   H        11.6070   80.3254    1.8214  H     
26   H         4.1149   82.6464   -2.0450  H     
27   H         2.7172   82.4659   -0.0680  H     
28   H         6.1326   81.8330    2.3106  H     
29   H        10.3867   80.9176    3.5405  H     
30   H         8.3343   81.3324    3.6669  H     
31   H         7.6601   79.9134    2.8425  H     
32   H         7.7473   78.6761    4.8126  H     
33   H        10.3046   79.9671    5.8504  H     
34   H         9.8394   78.2519    5.8843  H     
35   H        10.1365   78.0111    3.5077  H     
36   H        11.5514   78.9820    4.0207  H     
37   H         6.9822   79.9367    6.2440  H     
@<TRIPOS>BOND
     1    1    2 1
     2    1    5 1
     3    1    6 2
     4    2    8 1
     5    2   10 2
     6    3    4 2
     7    3   10 1
     8    4    5 1
     9    4    7 1
    10    7   17 1
    11    8    9 1
    12    9   11 2
    13    9   15 1
    14   10   15 1
    15   11   12 1
    16   12   13 2
    17   13   14 1
    18   13   16 1
    19   14   15 2
    20   17   18 1
    21   17   21 1
    22   18   19 1
    23   19   20 1
    24   19   22 1
    25   20   21 1
    26    5   23 1
    27    7   24 1
    28    7   25 1
    29   11   26 1
    30   12   27 1
    31   14   28 1
    32   17   29 1
    33   18   30 1
    34   18   31 1
    35   19   32 1
    36   20   33 1
    37   20   34 1
    38   21   35 1
    39   21   36 1
    40   22   37 1
@<TRIPOS>PROPERTY_DATA
  Total_Score	| 5.9481
  Crash		| -2.3690
  Polar		| 2.4768
  FragIndex	| 1
  FragRMSD	| 0.429

