@<TRIPOS>MOLECULE
BindingDB_34997
 36 39 0 0 0
SMALL
NO_CHARGES


@<TRIPOS>ATOM
1    C         9.4780   81.3077   -1.5652  C     
2    C         8.2053   81.6546   -1.2038  C     
3    N         8.7021   81.0735    1.0049  N     
4    C         9.9483   80.6708    0.6474  C     
5    N        10.3163   80.8214   -0.6552  N     
6    O         9.8765   81.4436   -2.7058  O     
7    C        10.8555   80.1903    1.7023  C     
8    S         6.9336   82.1381   -2.2402  S     
9    C         5.8820   82.1737   -0.8567  C     
10   C         7.8484   81.5339    0.0817  C     
11   C         4.5173   82.5142   -0.8336  C     
12   C         3.8053   82.4242    0.3809  C     
13   C         4.4453   81.9796    1.5584  C     
14   C         5.8198   81.6848    1.5372  C     
15   C         6.5300   81.8039    0.3237  C     
16   Cl        3.5746   81.7865    2.9895  Cl    
17   N        10.4013   79.0796    2.4729  N     
18   C         9.9715   79.1264    3.7578  C     
19   C         8.6137   79.4348    4.0333  C     
20   C        10.8621   78.8792    4.8127  C     
21   C        10.4711   79.0901    6.1437  C     
22   C         9.1478   79.4785    6.4153  C     
23   C         8.2070   79.6141    5.3759  C     
24   O        11.3312   78.9740    7.1790  O     
25   H        11.2171   80.5891   -0.9156  H     
26   H        11.8304   79.9710    1.2642  H     
27   H        11.0123   81.0636    2.3633  H     
28   H         4.0452   82.8211   -1.6777  H     
29   H         2.8131   82.6734    0.4084  H     
30   H         6.3035   81.3756    2.3825  H     
31   H        10.7259   78.1660    2.1979  H     
32   H         7.9336   79.4783    3.2453  H     
33   H        11.8345   78.6431    4.6074  H     
34   H         8.8514   79.6437    7.3739  H     
35   H         7.2331   79.8268    5.5893  H     
36   H        11.4646   78.0162    7.3607  H     
@<TRIPOS>BOND
     1    1    2 1
     2    1    5 1
     3    1    6 2
     4    2    8 1
     5    2   10 2
     6    3    4 2
     7    3   10 1
     8    4    5 1
     9    4    7 1
    10    7   17 1
    11    8    9 1
    12    9   11 2
    13    9   15 1
    14   10   15 1
    15   11   12 1
    16   12   13 2
    17   13   14 1
    18   13   16 1
    19   14   15 2
    20   17   18 1
    21   18   19 1
    22   18   20 2
    23   19   23 2
    24   20   21 1
    25   21   22 2
    26   21   24 1
    27   22   23 1
    28    5   25 1
    29    7   26 1
    30    7   27 1
    31   11   28 1
    32   12   29 1
    33   14   30 1
    34   17   31 1
    35   19   32 1
    36   20   33 1
    37   22   34 1
    38   23   35 1
    39   24   36 1
@<TRIPOS>PROPERTY_DATA
  Total_Score	| 7.2379
  Crash		| -1.8372
  Polar		| 3.2469
  FragIndex	| 1
  FragRMSD	| 0.347

