@<TRIPOS>MOLECULE
BindingDB_34994
 38 40 0 0 0
SMALL
NO_CHARGES


@<TRIPOS>ATOM
1    C         9.4367   81.2585   -1.6245  C     
2    C         8.1476   81.5767   -1.2758  C     
3    N         8.6643   81.0775    0.9513  N     
4    C         9.9358   80.7195    0.6202  C     
5    N        10.2962   80.8261   -0.6939  N     
6    O         9.8467   81.3969   -2.7687  O     
7    C        10.9140   80.3655    1.6647  C     
8    S         6.8877   82.0717   -2.3347  S     
9    C         5.8389   82.1207   -0.9533  C     
10   C         7.7889   81.4661    0.0139  C     
11   C         4.4694   82.4428   -0.9493  C     
12   C         3.7542   82.4039    0.2656  C     
13   C         4.4060   82.0405    1.4659  C     
14   C         5.7808   81.7295    1.4553  C     
15   C         6.4858   81.7678    0.2363  C     
16   Cl        3.5392   81.9445    2.9136  Cl    
17   C        10.4958   79.3495    2.7729  C     
18   C         9.4392   79.9145    3.7585  C     
19   N         9.3018   79.2180    5.0802  N     
20   C        10.5626   79.1969    5.8771  C     
21   C         8.1692   79.7785    5.8735  C     
22   H        11.2130   80.6295   -0.9596  H     
23   H        11.8197   79.9879    1.1865  H     
24   H        11.1838   81.3000    2.1504  H     
25   H         3.9925   82.6954   -1.8188  H     
26   H         2.7568   82.6377    0.2723  H     
27   H         6.2567   81.4573    2.3153  H     
28   H        10.1224   78.4193    2.3174  H     
29   H        11.4058   79.0971    3.3543  H     
30   H         9.6556   80.9693    3.9560  H     
31   H         8.4749   79.8745    3.2429  H     
32   H         9.0598   78.2444    4.8811  H     
33   H        11.3549   78.7116    5.2943  H     
34   H        10.4278   78.6259    6.8026  H     
35   H        10.8805   80.2157    6.1306  H     
36   H         8.3176   80.8400    6.0811  H     
37   H         8.0672   79.2611    6.8254  H     
38   H         7.2273   79.6619    5.3306  H     
@<TRIPOS>BOND
     1    1    2 1
     2    1    5 1
     3    1    6 2
     4    2    8 1
     5    2   10 2
     6    3    4 2
     7    3   10 1
     8    4    5 1
     9    4    7 1
    10    7   17 1
    11    8    9 1
    12    9   11 2
    13    9   15 1
    14   10   15 1
    15   11   12 1
    16   12   13 2
    17   13   14 1
    18   13   16 1
    19   14   15 2
    20   17   18 1
    21   18   19 1
    22   19   20 1
    23   19   21 1
    24    5   22 1
    25    7   23 1
    26    7   24 1
    27   11   25 1
    28   12   26 1
    29   14   27 1
    30   17   28 1
    31   17   29 1
    32   18   30 1
    33   18   31 1
    34   19   32 1
    35   20   33 1
    36   20   34 1
    37   20   35 1
    38   21   36 1
    39   21   37 1
    40   21   38 1
@<TRIPOS>PROPERTY_DATA
  Total_Score	| 6.0612
  Crash		| -2.6951
  Polar		| 2.9632
  FragIndex	| 1
  FragRMSD	| 0.375

