@<TRIPOS>MOLECULE
BindingDB_50165283
 56 58 0 0 0
SMALL
NO_CHARGES


@<TRIPOS>ATOM
1    N         0.7070   11.6103   24.1080  N     
2    C        -0.0070   11.0454   25.0886  C     
3    C         1.9863   11.2053   24.2516  C     
4    N         2.0868   10.3761   25.3234  N     
5    C         0.8553   10.2872   25.8692  C     
6    C        -1.3773   11.0683   25.4049  C     
7    N         0.3865    9.5951   26.9425  N     
8    C         6.1853   14.2127   24.7666  C     
9    N        -1.8001   10.3590   26.4895  N     
10   C         6.4702   12.8573   24.4954  C     
11   C         4.8517   14.6791   24.7047  C     
12   C         3.0387   11.6354   23.3038  C     
13   C         4.1063   12.4806   23.9012  C     
14   C        -0.9363    9.6447   27.2650  C     
15   C         5.4326   12.0111   24.0493  C     
16   C         3.8294   13.8189   24.2677  C     
17   C         3.2511    9.6711   25.7886  C     
18   N        -2.2566   11.7357   24.6393  N     
19   O         7.2087   15.0533   25.1199  O     
20   O         7.7359   12.3245   24.5811  O     
21   O         4.5583   15.9911   24.9997  O     
22   C         3.0658    8.1272   25.8979  C     
23   O         1.9526    7.6483   25.1126  O     
24   C         2.1880    6.9587   23.8698  C     
25   C         7.9946   15.5106   24.0048  C     
26   C         4.3866   16.2404   26.4081  C     
27   C         8.6529   12.9309   25.5088  C     
28   C         0.8003    6.5419   23.3237  C     
29   C         2.9281    7.8442   22.8396  C     
30   H         3.4623   10.7497   22.8329  H     
31   H         2.5835   12.2062   22.4914  H     
32   H        -1.2896    9.1332   28.0783  H     
33   H         5.6696   11.0518   23.7926  H     
34   H         2.8778   14.1878   24.1753  H     
35   H         4.1025    9.8477   25.1246  H     
36   H         3.5333   10.0561   26.7736  H     
37   H        -3.2065   11.6982   24.8326  H     
38   H        -1.9410   12.2281   23.8646  H     
39   H         4.0092    7.6166   25.6613  H     
40   H         2.8286    7.8815   26.9364  H     
41   H         2.7672    6.0437   24.0459  H     
42   H         8.3117   14.6920   23.3482  H     
43   H         8.8909   15.9813   24.4033  H     
44   H         7.4480   16.2519   23.4360  H     
45   H         3.6140   15.6047   26.8498  H     
46   H         4.0787   17.2779   26.5378  H     
47   H         5.3315   16.0917   26.9479  H     
48   H         9.1173   13.8241   25.1018  H     
49   H         9.4430   12.2062   25.7151  H     
50   H         8.1612   13.1995   26.4441  H     
51   H         0.2979    5.8871   24.0392  H     
52   H         0.8975    6.0042   22.3785  H     
53   H         0.1709    7.4195   23.1639  H     
54   H         2.3731    8.7630   22.6589  H     
55   H         3.0470    7.3115   21.8928  H     
56   H         3.9229    8.1009   23.2115  H     
@<TRIPOS>BOND
     1    1    2 1
     2    1    3 2
     3    2    5 1
     4    2    6 2
     5    3    4 1
     6    3   12 1
     7    4    5 1
     8    4   17 1
     9    5    7 2
    10    6    9 1
    11    6   18 1
    12    7   14 1
    13    8   10 2
    14    8   11 1
    15    8   19 1
    16    9   14 2
    17   10   15 1
    18   10   20 1
    19   11   16 2
    20   11   21 1
    21   12   13 1
    22   13   15 2
    23   13   16 1
    24   17   22 1
    25   19   25 1
    26   20   27 1
    27   21   26 1
    28   22   23 1
    29   23   24 1
    30   24   28 1
    31   24   29 1
    32   12   30 1
    33   12   31 1
    34   14   32 1
    35   15   33 1
    36   16   34 1
    37   17   35 1
    38   17   36 1
    39   18   37 1
    40   18   38 1
    41   22   39 1
    42   22   40 1
    43   24   41 1
    44   25   42 1
    45   25   43 1
    46   25   44 1
    47   26   45 1
    48   26   46 1
    49   26   47 1
    50   27   48 1
    51   27   49 1
    52   27   50 1
    53   28   51 1
    54   28   52 1
    55   28   53 1
    56   29   54 1
    57   29   55 1
    58   29   56 1
@<TRIPOS>PROPERTY_DATA
  Total_Score	| 8.9677
  Crash		| -1.8991
  Polar		| 1.4106
  FragIndex	| 1
  FragRMSD	| 0.589

