@<TRIPOS>MOLECULE
BindingDB_50165270
 51 53 0 0 0
SMALL
NO_CHARGES


@<TRIPOS>ATOM
1    C         0.8395   10.3381   25.7327  C     
2    C        -0.0586   11.1164   25.0043  C     
3    N         0.6028   11.7195   24.0149  N     
4    N         2.0553   10.4865   25.1626  N     
5    C         1.8939   11.3432   24.1142  C     
6    N         0.3993    9.6112   26.7993  N     
7    N        -1.8060   10.3710   26.4311  N     
8    C        -1.4160   11.1221   25.3687  C     
9    C        -0.9185    9.6307   27.1430  C     
10   C         6.4620   13.1213   25.2103  C     
11   C         6.5315   12.1319   24.1828  C     
12   C         5.2332   13.7934   25.4283  C     
13   C         2.8818   11.8437   23.1289  C     
14   C         4.1143   12.4054   23.7432  C     
15   C         1.8837    7.5650   23.6987  C     
16   C         0.7415    7.3798   23.3933  C     
17   C         4.0749   13.4283   24.7127  C     
18   C         5.3759   11.8295   23.4386  C     
19   N        -2.3154   11.8354   24.6719  N     
20   F        -1.3423    8.9329   28.1518  F     
21   C         3.2552    9.8608   25.6561  C     
22   O         7.4587   13.4140   26.1267  O     
23   O         7.7704   11.5584   23.9492  O     
24   O         5.1518   14.7605   26.3900  O     
25   C         3.1801    7.7712   24.0764  C     
26   C         8.8390   13.5035   25.7322  C     
27   C         4.9511   16.0935   25.8558  C     
28   C         7.7656   10.1040   23.7281  C     
29   C         3.3074    8.3143   25.5261  C     
30   H         3.1038   11.0025   22.4718  H     
31   H         2.4271   12.6109   22.5015  H     
32   H        -0.1387    7.2415   23.1751  H     
33   H         3.1897   13.8849   24.9351  H     
34   H         5.4579   11.1239   22.6947  H     
35   H        -3.2551   11.7844   24.9081  H     
36   H        -2.0356   12.3758   23.9139  H     
37   H         4.1429   10.2455   25.1563  H     
38   H         3.3622   10.1130   26.7154  H     
39   H         3.6995    6.8108   24.0138  H     
40   H         3.6513    8.4523   23.3640  H     
41   H         9.2161   12.4795   25.5492  H     
42   H         9.4086   13.9700   26.5411  H     
43   H         8.9753   14.1227   24.8382  H     
44   H         5.6431   16.3151   25.0354  H     
45   H         5.1410   16.8092   26.6528  H     
46   H         3.9238   16.2340   25.5129  H     
47   H         7.1032    9.5669   24.4270  H     
48   H         8.7979    9.7368   23.8952  H     
49   H         7.4740    9.8687   22.6953  H     
50   H         4.2798    8.0001   25.9004  H     
51   H         2.5547    7.8587   26.1745  H     
@<TRIPOS>BOND
     1    1    2 1
     2    1    4 1
     3    1    6 2
     4    2    3 1
     5    2    8 2
     6    3    5 2
     7    4    5 1
     8    4   21 1
     9    5   13 1
    10    6    9 1
    11    7    8 1
    12    7    9 2
    13    8   19 1
    14    9   20 1
    15   10   11 1
    16   10   12 2
    17   10   22 1
    18   11   18 2
    19   11   23 1
    20   12   17 1
    21   12   24 1
    22   13   14 1
    23   14   17 2
    24   14   18 1
    25   15   16 3
    26   15   25 1
    27   21   29 1
    28   22   26 1
    29   23   28 1
    30   24   27 1
    31   25   29 1
    32   13   30 1
    33   13   31 1
    34   16   32 1
    35   17   33 1
    36   18   34 1
    37   19   35 1
    38   19   36 1
    39   21   37 1
    40   21   38 1
    41   25   39 1
    42   25   40 1
    43   26   41 1
    44   26   42 1
    45   26   43 1
    46   27   44 1
    47   27   45 1
    48   27   46 1
    49   28   47 1
    50   28   48 1
    51   28   49 1
    52   29   50 1
    53   29   51 1
@<TRIPOS>PROPERTY_DATA
  Total_Score	| 8.8722
  Crash		| -1.0701
  Polar		| 1.8832
  FragIndex	| 1
  FragRMSD	| 0.426

