@<TRIPOS>MOLECULE
BindingDB_50165297
 51 53 0 0 0
SMALL
NO_CHARGES


@<TRIPOS>ATOM
1    N        -1.7645   10.3973   26.5603  N     
2    C        -0.8527    9.7102   27.2992  C     
3    N         0.4496    9.6544   26.9049  N     
4    C        -1.4097   11.0630   25.4268  C     
5    N        -2.3296   11.7134   24.6955  N     
6    C        -0.0631   11.0287   25.0297  C     
7    C         0.8515   10.2975   25.7734  C     
8    N         2.0448   10.3879   25.1495  N     
9    C         1.8532   11.1624   24.0404  C     
10   N         0.5625   11.5557   23.9753  N     
11   C         3.2657    9.7780   25.6200  C     
12   C         3.3952    8.2556   25.3548  C     
13   C         3.1862    7.8113   23.8801  C     
14   C         1.8745    7.5754   23.5751  C     
15   C         0.7281    7.3394   23.3241  C     
16   C         2.7789   11.5041   22.9274  C     
17   C         4.0281   12.1949   23.3519  C     
18   C         5.2905   11.5583   23.2172  C     
19   C         6.4617   12.1469   23.7369  C     
20   C         6.3830   13.4241   24.3408  C     
21   C         5.1591   14.1305   24.3740  C     
22   C         3.9848   13.5022   23.8926  C     
23   O         7.5244   13.9147   24.9196  O     
24   C         8.0236   15.1183   24.3238  C     
25   O         7.7001   11.5456   23.6640  O     
26   C         7.7457   10.1049   23.6656  C     
27   O         5.1648   15.4360   24.8127  O     
28   C         4.5249   15.6121   26.0925  C     
29   H        -1.1482    9.2307   28.1496  H     
30   H        -2.0627   12.1699   23.8804  H     
31   H        -3.2650   11.6934   24.9501  H     
32   H         4.1342   10.2613   25.1699  H     
33   H         3.3451    9.9470   26.6979  H     
34   H         4.4117    7.9731   25.6369  H     
35   H         2.7263    7.7042   26.0220  H     
36   H         3.5894    8.5607   23.1931  H     
37   H         3.7332    6.8820   23.7082  H     
38   H        -0.1521    7.1514   23.1452  H     
39   H         2.9926   10.5721   22.4016  H     
40   H         2.2663   12.1531   22.2103  H     
41   H         5.3657   10.6289   22.7895  H     
42   H         3.0879   13.9932   23.9393  H     
43   H         8.1616   14.9950   23.2472  H     
44   H         9.0047   15.3662   24.7502  H     
45   H         7.2959   15.9136   24.5262  H     
46   H         7.0642    9.6730   24.4022  H     
47   H         8.7627    9.7815   23.9245  H     
48   H         7.4981    9.7090   22.6760  H     
49   H         3.4548   15.3636   26.0747  H     
50   H         4.6220   16.6628   26.3769  H     
51   H         5.0199   15.0060   26.8591  H     
@<TRIPOS>BOND
     1    1    2 2
     2    1    4 1
     3    2    3 1
     4    3    7 2
     5    4    5 1
     6    4    6 2
     7    6    7 1
     8    6   10 1
     9    7    8 1
    10    8    9 1
    11    8   11 1
    12    9   10 2
    13    9   16 1
    14   11   12 1
    15   12   13 1
    16   13   14 1
    17   14   15 3
    18   16   17 1
    19   17   18 2
    20   17   22 1
    21   18   19 1
    22   19   20 2
    23   19   25 1
    24   20   21 1
    25   20   23 1
    26   21   22 2
    27   21   27 1
    28   23   24 1
    29   25   26 1
    30   27   28 1
    31    2   29 1
    32    5   30 1
    33    5   31 1
    34   11   32 1
    35   11   33 1
    36   12   34 1
    37   12   35 1
    38   13   36 1
    39   13   37 1
    40   15   38 1
    41   16   39 1
    42   16   40 1
    43   18   41 1
    44   22   42 1
    45   24   43 1
    46   24   44 1
    47   24   45 1
    48   26   46 1
    49   26   47 1
    50   26   48 1
    51   28   49 1
    52   28   50 1
    53   28   51 1
@<TRIPOS>PROPERTY_DATA
  Total_Score	| 8.8745
  Crash		| -0.9548
  Polar		| 2.0223
  FragIndex	| 1
  FragRMSD	| 0.168

