@<TRIPOS>MOLECULE
BindingDB_15376
 44 46 0 0 0
SMALL
NO_CHARGES


@<TRIPOS>ATOM
1    C        -1.3525   11.1128   25.3860  C     
2    C        -0.9482    9.6749   27.2415  C     
3    N         0.3746    9.6037   26.9249  N     
4    N        -1.7925   10.4114   26.4651  N     
5    N        -2.2118   11.8308   24.6418  N     
6    C         0.0149   11.0627   25.0754  C     
7    C         0.8725   10.2917   25.8570  C     
8    C         1.9928   11.1855   24.2292  C     
9    N         0.7189   11.6179   24.0925  N     
10   N         2.1082   10.3595   25.3112  N     
11   C         3.2701    9.6373   25.7910  C     
12   C         3.1462    8.0758   25.6935  C     
13   C         4.1182    7.3523   24.7204  C     
14   C         4.2184    8.0050   23.3292  C     
15   C         3.0415   11.6002   23.2704  C     
16   C         4.1004   12.4703   23.8710  C     
17   C         5.4229   12.0004   24.0166  C     
18   C         6.4357   12.8474   24.5096  C     
19   C         4.8208   14.6806   24.6995  C     
20   C         3.8129   13.8159   24.2139  C     
21   C         6.1367   14.1883   24.8194  C     
22   O         4.5135   16.0032   24.9299  O     
23   C         4.4144   16.3375   26.3338  C     
24   H        -1.3033    9.1476   28.0461  H     
25   H        -1.8909   12.3343   23.8741  H     
26   H        -3.1664   11.7732   24.8219  H     
27   H         4.1640    9.9515   25.2520  H     
28   H         3.4229    9.9231   26.8340  H     
29   H         3.2966    7.6589   26.6929  H     
30   H         2.1244    7.8004   25.4078  H     
31   H         5.1119    7.2929   25.1700  H     
32   H         3.7505    6.3328   24.5881  H     
33   H         3.2318    8.1511   22.8934  H     
34   H         4.7879    7.3481   22.6717  H     
35   H         4.7222    8.9686   23.4015  H     
36   H         3.4524   10.6963   22.8230  H     
37   H         2.5865   12.1566   22.4499  H     
38   H         5.6628   11.0411   23.7525  H     
39   H         7.3878   12.4938   24.6138  H     
40   H         2.8644   14.1807   24.0678  H     
41   H         6.8838   14.8033   25.1442  H     
42   H         3.6925   15.6802   26.8386  H     
43   H         4.0667   17.3710   26.4258  H     
44   H         5.4040   16.2565   26.8190  H     
@<TRIPOS>BOND
     1    1    4 1
     2    1    5 1
     3    1    6 2
     4    2    3 1
     5    2    4 2
     6    3    7 2
     7    6    7 1
     8    6    9 1
     9    7   10 1
    10    8    9 2
    11    8   10 1
    12    8   15 1
    13   10   11 1
    14   11   12 1
    15   12   13 1
    16   13   14 1
    17   15   16 1
    18   16   17 2
    19   16   20 1
    20   17   18 1
    21   18   21 2
    22   19   20 2
    23   19   21 1
    24   19   22 1
    25   22   23 1
    26    2   24 1
    27    5   25 1
    28    5   26 1
    29   11   27 1
    30   11   28 1
    31   12   29 1
    32   12   30 1
    33   13   31 1
    34   13   32 1
    35   14   33 1
    36   14   34 1
    37   14   35 1
    38   15   36 1
    39   15   37 1
    40   17   38 1
    41   18   39 1
    42   20   40 1
    43   21   41 1
    44   23   42 1
    45   23   43 1
    46   23   44 1
@<TRIPOS>PROPERTY_DATA
  Total_Score	| 7.1001
  Crash		| -0.3715
  Polar		| 1.4241
  FragIndex	| 1
  FragRMSD	| 0.616

