@<TRIPOS>MOLECULE
BindingDB_50306556
 34 34 0 0 0
SMALL
NO_CHARGES


@<TRIPOS>ATOM
1    N        34.3001   23.0880   28.7097  N     
2    C        33.2015   22.5748   27.9492  C     
3    C        33.3691   22.9307   26.4336  C     
4    O        33.2441   24.3520   26.3089  O     
5    C        32.3094   22.1839   25.5670  C     
6    O        32.6095   22.2925   24.1788  O     
7    C        32.2568   20.6784   25.9246  C     
8    O        31.2087   20.0609   25.1624  O     
9    C        32.0532   20.4846   27.4563  C     
10   O        33.1215   21.1477   28.1662  O     
11   C        32.0289   19.0068   27.9115  C     
12   O        33.2106   18.3153   27.5131  O     
13   C        34.2314   23.6964   29.8831  C     
14   C        35.4263   24.2475   30.4488  C     
15   O        33.1847   23.8202   30.5049  O     
16   O        36.3969   23.1829   30.6320  O     
17   C        37.6839   23.3291   30.0259  C     
18   H        35.1833   22.9960   28.3193  H     
19   H        32.2602   23.0365   28.2859  H     
20   H        34.3633   22.6251   26.1054  H     
21   H        33.1971   24.5549   25.3529  H     
22   H        31.3235   22.6236   25.7439  H     
23   H        32.7203   23.2472   23.9772  H     
24   H        33.1964   20.2110   25.6183  H     
25   H        31.3566   19.0894   25.2656  H     
26   H        31.0946   20.9255   27.7504  H     
27   H        31.9569   18.9676   28.9988  H     
28   H        31.1528   18.4884   27.5018  H     
29   H        33.0075   17.9460   26.6229  H     
30   H        35.7807   25.0606   29.7935  H     
31   H        35.2427   24.6703   31.4466  H     
32   H        37.6043   23.3221   28.9375  H     
33   H        38.2865   22.4733   30.3278  H     
34   H        38.1920   24.2339   30.3644  H     
@<TRIPOS>BOND
     1    2    1 1
     2    1   13 am
     3    2    3 1
     4    2   10 1
     5    3    4 1
     6    3    5 1
     7    5    6 1
     8    5    7 1
     9    7    8 1
    10    7    9 1
    11    9   10 1
    12    9   11 1
    13   11   12 1
    14   13   14 1
    15   13   15 2
    16   14   16 1
    17   16   17 1
    18    1   18 1
    19    2   19 1
    20    3   20 1
    21    4   21 1
    22    5   22 1
    23    6   23 1
    24    7   24 1
    25    8   25 1
    26    9   26 1
    27   11   27 1
    28   11   28 1
    29   12   29 1
    30   14   30 1
    31   14   31 1
    32   17   32 1
    33   17   33 1
    34   17   34 1
@<TRIPOS>PROPERTY_DATA
  Total_Score	| 10.8541
  Crash		| -0.8289
  Polar		| 8.9524
  FragIndex	| 1
  FragRMSD	| 0.159

