@<TRIPOS>MOLECULE
BindingDB_50240802
 30 30 0 0 0
SMALL
NO_CHARGES


@<TRIPOS>ATOM
1    C        31.9980   20.4217   27.4736  C     
2    C        32.1872   20.6521   25.9462  C     
3    C        32.2362   22.1654   25.6235  C     
4    C        33.2613   22.9206   26.5189  C     
5    C        33.0769   22.5386   28.0150  C     
6    O        33.0379   21.1050   28.2070  O     
7    N        34.2019   23.0126   28.7685  N     
8    C        34.1828   23.6765   29.9174  C     
9    C        35.4354   24.0710   30.5136  C     
10   O        33.1440   23.9440   30.5118  O     
11   O        33.0835   24.3450   26.3766  O     
12   O        32.5929   22.2557   24.2436  O     
13   O        31.1526   20.0356   25.1826  O     
14   C        32.0333   18.9401   27.9028  C     
15   O        33.2353   18.2889   27.5022  O     
16   H        31.0178   20.8124   27.7708  H     
17   H        33.1396   20.2076   25.6324  H     
18   H        31.2389   22.5983   25.7867  H     
19   H        34.2717   22.6339   26.1861  H     
20   H        32.1358   22.9751   28.3734  H     
21   H        35.0846   22.8300   28.3959  H     
22   H        36.0274   23.1769   30.7380  H     
23   H        35.2790   24.6243   31.4431  H     
24   H        35.9872   24.7100   29.8189  H     
25   H        33.0634   24.5567   25.4099  H     
26   H        32.7594   23.2104   24.0333  H     
27   H        31.2778   19.0667   25.2867  H     
28   H        31.9782   18.8804   28.9913  H     
29   H        31.1768   18.3908   27.5045  H     
30   H        33.0903   17.9987   26.5736  H     
@<TRIPOS>BOND
     1    1    2 1
     2    1    6 1
     3    1   14 1
     4    2    3 1
     5    2   13 1
     6    3    4 1
     7    3   12 1
     8    4    5 1
     9    4   11 1
    10    5    6 1
    11    5    7 1
    12    7    8 am
    13    8    9 1
    14    8   10 2
    15   14   15 1
    16    1   16 1
    17    2   17 1
    18    3   18 1
    19    4   19 1
    20    5   20 1
    21    7   21 1
    22    9   22 1
    23    9   23 1
    24    9   24 1
    25   11   25 1
    26   12   26 1
    27   13   27 1
    28   14   28 1
    29   14   29 1
    30   15   30 1
@<TRIPOS>PROPERTY_DATA
  Total_Score	| 10.0211
  Crash		| -0.5565
  Polar		| 8.7077
  FragIndex	| 1
  FragRMSD	| 0.154

