@<TRIPOS>MOLECULE
BindingDB_50304277
 43 45 0 0 0
SMALL
NO_CHARGES


@<TRIPOS>ATOM
1    N        34.1333   22.8958   28.8842  N     
2    C        33.0420   22.4560   28.0714  C     
3    C        33.2945   22.8408   26.5875  C     
4    O        33.2097   24.2622   26.4537  O     
5    C        32.2724   22.1386   25.6463  C     
6    O        32.6494   22.3030   24.2840  O     
7    C        32.1871   20.6161   25.9465  C     
8    O        31.1422   20.0345   25.1686  O     
9    C        31.9411   20.3718   27.4649  C     
10   O        32.9720   21.0246   28.2316  O     
11   C        31.9053   18.8752   27.8705  C     
12   O        33.1414   18.2349   27.5678  O     
13   C        34.1301   23.8202   29.8395  C     
14   C        35.2901   24.1511   30.5416  C     
15   O        33.0892   24.4241   30.0838  O     
16   C        36.3758   23.2392   30.6707  C     
17   C        37.5318   23.5597   31.3965  C     
18   C        35.4304   25.4173   31.1751  C     
19   C        36.5849   25.7526   31.9025  C     
20   C        37.6500   24.8205   32.0059  C     
21   O        38.7778   25.0935   32.7426  O     
22   C        38.9970   26.4904   33.0844  C     
23   C        37.6586   27.1642   33.4918  C     
24   O        36.6884   27.0186   32.4242  O     
25   H        34.9835   22.4663   28.7104  H     
26   H        32.0963   22.8945   28.3993  H     
27   H        34.3038   22.5442   26.2976  H     
28   H        33.0493   24.4485   25.5001  H     
29   H        31.2905   22.5937   25.7852  H     
30   H        32.7757   23.2688   24.1347  H     
31   H        33.1362   20.1688   25.6461  H     
32   H        31.2727   19.0603   25.2346  H     
33   H        30.9694   20.7878   27.7336  H     
34   H        31.7421   18.8059   28.9482  H     
35   H        31.0950   18.3526   27.3622  H     
36   H        33.0267   17.8412   26.6806  H     
37   H        36.3267   22.3116   30.2411  H     
38   H        38.2992   22.8819   31.4836  H     
39   H        34.6913   26.1216   31.0890  H     
40   H        39.7161   26.5500   33.9123  H     
41   H        39.4146   27.0278   32.2193  H     
42   H        37.2742   26.6885   34.4038  H     
43   H        37.8142   28.2306   33.6854  H     
@<TRIPOS>BOND
     1    2    1 1
     2    1   13 am
     3    2    3 1
     4    2   10 1
     5    3    4 1
     6    3    5 1
     7    5    6 1
     8    5    7 1
     9    7    8 1
    10    7    9 1
    11    9   10 1
    12    9   11 1
    13   11   12 1
    14   13   14 1
    15   13   15 2
    16   14   16 2
    17   14   18 1
    18   16   17 1
    19   17   20 2
    20   18   19 2
    21   19   20 1
    22   19   24 1
    23   20   21 1
    24   21   22 1
    25   22   23 1
    26   23   24 1
    27    1   25 1
    28    2   26 1
    29    3   27 1
    30    4   28 1
    31    5   29 1
    32    6   30 1
    33    7   31 1
    34    8   32 1
    35    9   33 1
    36   11   34 1
    37   11   35 1
    38   12   36 1
    39   16   37 1
    40   17   38 1
    41   18   39 1
    42   22   40 1
    43   22   41 1
    44   23   42 1
    45   23   43 1
@<TRIPOS>PROPERTY_DATA
  Total_Score	| 12.3298
  Crash		| -0.9353
  Polar		| 9.2700
  FragIndex	| 1
  FragRMSD	| 0.502

