@<TRIPOS>MOLECULE
BindingDB_50263771
 41 42 0 0 0
SMALL
NO_CHARGES


@<TRIPOS>ATOM
1    C        32.2638   20.5390   27.4742  C     
2    C        32.2218   20.6904   25.9278  C     
3    C        32.2951   22.1981   25.5614  C     
4    C        33.5416   22.8662   26.1928  C     
5    C        33.7595   22.4623   27.6846  C     
6    O        33.5196   21.0616   27.9475  O     
7    N        35.1424   22.7021   27.9557  N     
8    C        35.7081   23.4285   28.9028  C     
9    N        35.0088   24.0152   29.8559  N     
10   O        36.9288   23.4568   28.8779  O     
11   O        33.4356   24.2908   26.0960  O     
12   O        32.3369   22.3379   24.1391  O     
13   O        31.0334   20.1126   25.3702  O     
14   C        32.1330   19.0816   27.9771  C     
15   O        33.2335   18.2810   27.5670  O     
16   C        35.4334   24.7023   30.9166  C     
17   C        34.5421   24.9922   31.9575  C     
18   O        36.6281   24.9732   31.0507  O     
19   C        33.1491   24.7123   31.8742  C     
20   C        32.2934   24.8608   32.9767  C     
21   C        32.8089   25.3488   34.1944  C     
22   C        34.1657   25.7019   34.2918  C     
23   C        35.0249   25.5243   33.1914  C     
24   H        31.4587   21.1137   27.9181  H     
25   H        33.0814   20.1674   25.4905  H     
26   H        31.3794   22.6993   25.9189  H     
27   H        34.4105   22.5649   25.5907  H     
28   H        33.0858   23.0558   28.3140  H     
29   H        35.7633   22.2580   27.3464  H     
30   H        34.0558   23.8858   29.7874  H     
31   H        33.3108   24.4849   25.1414  H     
32   H        32.3506   23.3086   23.9792  H     
33   H        31.2089   19.1476   25.3374  H     
34   H        32.1076   19.0857   29.0711  H     
35   H        31.1928   18.6418   27.6105  H     
36   H        32.9546   17.8752   26.7232  H     
37   H        32.7201   24.3681   31.0049  H     
38   H        31.3030   24.6141   32.8955  H     
39   H        32.1922   25.4414   35.0024  H     
40   H        34.5321   26.0883   35.1732  H     
41   H        36.0148   25.7659   33.3201  H     
@<TRIPOS>BOND
     1    1    2 1
     2    1    6 1
     3    1   14 1
     4    2    3 1
     5    2   13 1
     6    3    4 1
     7    3   12 1
     8    4    5 1
     9    4   11 1
    10    5    6 1
    11    5    7 1
    12    7    8 am
    13    8    9 am
    14    8   10 2
    15    9   16 am
    16   14   15 1
    17   16   17 1
    18   16   18 2
    19   17   19 2
    20   17   23 1
    21   19   20 1
    22   20   21 2
    23   21   22 1
    24   22   23 2
    25    1   24 1
    26    2   25 1
    27    3   26 1
    28    4   27 1
    29    5   28 1
    30    7   29 1
    31    9   30 1
    32   11   31 1
    33   12   32 1
    34   13   33 1
    35   14   34 1
    36   14   35 1
    37   15   36 1
    38   19   37 1
    39   20   38 1
    40   21   39 1
    41   22   40 1
    42   23   41 1
@<TRIPOS>PROPERTY_DATA
  Total_Score	| 4.9693
  Crash		| -5.2224
  Polar		| 7.8775
  FragIndex	| 1
  FragRMSD	| 1.229

