@<TRIPOS>MOLECULE
BindingDB_50263722
 43 45 0 0 0
SMALL
NO_CHARGES


@<TRIPOS>ATOM
1    C        31.9858   20.5352   27.5307  C     
2    C        32.2579   20.6883   26.0091  C     
3    C        32.2788   22.1957   25.6108  C     
4    C        33.2603   23.0044   26.4900  C     
5    C        33.0428   22.7024   28.0019  C     
6    O        32.9873   21.2773   28.2709  O     
7    N        34.1582   23.1916   28.7678  N     
8    C        34.1427   23.6431   30.0364  C     
9    C        35.3544   23.8202   30.7464  C     
10   O        33.0627   23.7886   30.6236  O     
11   O        33.1005   24.4074   26.2807  O     
12   O        32.6227   22.2803   24.2272  O     
13   O        31.2804   20.0007   25.2293  O     
14   C        31.9948   19.0442   27.9887  C     
15   O        33.1867   18.3575   27.5918  O     
16   C        37.9209   24.0422   32.0556  C     
17   C        37.7792   23.2748   30.8859  C     
18   C        36.5172   23.1498   30.2762  C     
19   C        36.7858   24.6803   32.6005  C     
20   C        35.5084   24.5942   31.9536  C     
21   C        34.4485   25.2851   32.5822  C     
22   C        34.6405   25.9591   33.7438  C     
23   C        35.8738   26.0569   34.3140  C     
24   C        36.9413   25.4267   33.7754  C     
25   H        30.9989   20.9291   27.7657  H     
26   H        33.2369   20.2554   25.7995  H     
27   H        31.2714   22.6130   25.7180  H     
28   H        34.2885   22.7388   26.2061  H     
29   H        32.1047   23.1492   28.3256  H     
30   H        35.0432   23.0701   28.3559  H     
31   H        33.0945   24.5472   25.3038  H     
32   H        32.7205   23.2349   24.0358  H     
33   H        31.4663   19.0323   25.3553  H     
34   H        31.9192   18.9951   29.0798  H     
35   H        31.1437   18.5109   27.5670  H     
36   H        32.9269   17.8826   26.7686  H     
37   H        38.8452   24.1430   32.4581  H     
38   H        38.6037   22.8022   30.4856  H     
39   H        36.4775   22.5443   29.4552  H     
40   H        33.5432   25.3279   32.1842  H     
41   H        33.8688   26.3794   34.2035  H     
42   H        36.0056   26.6677   35.1029  H     
43   H        37.8325   25.5465   34.2064  H     
@<TRIPOS>BOND
     1    1    2 1
     2    1    6 1
     3    1   14 1
     4    2    3 1
     5    2   13 1
     6    3    4 1
     7    3   12 1
     8    4    5 1
     9    4   11 1
    10    5    6 1
    11    5    7 1
    12    7    8 am
    13    8    9 1
    14    8   10 2
    15    9   18 1
    16    9   20 2
    17   14   15 1
    18   16   17 1
    19   16   19 2
    20   17   18 2
    21   19   20 1
    22   19   24 1
    23   20   21 1
    24   21   22 2
    25   22   23 1
    26   23   24 2
    27    1   25 1
    28    2   26 1
    29    3   27 1
    30    4   28 1
    31    5   29 1
    32    7   30 1
    33   11   31 1
    34   12   32 1
    35   13   33 1
    36   14   34 1
    37   14   35 1
    38   15   36 1
    39   16   37 1
    40   17   38 1
    41   18   39 1
    42   21   40 1
    43   22   41 1
    44   23   42 1
    45   24   43 1
@<TRIPOS>PROPERTY_DATA
  Total_Score	| 11.8144
  Crash		| -1.6449
  Polar		| 8.7823
  FragIndex	| 1
  FragRMSD	| 0.266

