@<TRIPOS>MOLECULE
BindingDB_50240801
 37 38 0 0 0
SMALL
NO_CHARGES


@<TRIPOS>ATOM
1    C        32.0043   20.4691   27.4355  C     
2    C        32.2256   20.6515   25.9014  C     
3    C        32.3175   22.1631   25.5604  C     
4    C        33.3778   22.8805   26.4430  C     
5    C        33.1582   22.5557   27.9502  C     
6    O        33.0550   21.1375   28.1658  O     
7    N        34.2968   22.9781   28.7083  N     
8    C        34.3211   23.5274   29.9201  C     
9    C        35.5262   23.8217   30.5891  C     
10   O        33.2477   23.7832   30.4625  O     
11   O        33.3184   24.3003   26.2584  O     
12   O        32.6320   22.3032   24.1713  O     
13   O        31.1668   20.0559   25.1509  O     
14   C        31.9904   18.9905   27.8924  C     
15   O        33.2162   18.3311   27.5766  O     
16   C        35.5249   24.5277   31.8279  C     
17   C        36.7180   24.8082   32.5202  C     
18   C        37.9485   24.3823   31.9964  C     
19   C        37.9823   23.6746   30.7840  C     
20   C        36.7920   23.4034   30.0904  C     
21   H        31.0375   20.9022   27.7156  H     
22   H        33.1673   20.1745   25.6069  H     
23   H        31.3395   22.6330   25.7229  H     
24   H        34.3703   22.5418   26.1320  H     
25   H        32.2395   23.0450   28.2892  H     
26   H        35.1476   22.7630   28.3049  H     
27   H        33.2111   24.4589   25.2929  H     
28   H        32.7493   23.2663   23.9986  H     
29   H        31.3008   19.0848   25.2493  H     
30   H        31.8539   18.9474   28.9758  H     
31   H        31.1598   18.4474   27.4293  H     
32   H        33.0786   17.9682   26.6765  H     
33   H        34.6481   24.8557   32.2453  H     
34   H        36.6900   25.3130   33.4039  H     
35   H        38.8151   24.5822   32.4963  H     
36   H        38.8765   23.3549   30.4047  H     
37   H        36.8733   22.8826   29.2176  H     
@<TRIPOS>BOND
     1    1    2 1
     2    1    6 1
     3    1   14 1
     4    2    3 1
     5    2   13 1
     6    3    4 1
     7    3   12 1
     8    4    5 1
     9    4   11 1
    10    5    6 1
    11    5    7 1
    12    7    8 am
    13    8    9 1
    14    8   10 2
    15    9   16 2
    16    9   20 1
    17   14   15 1
    18   16   17 1
    19   17   18 2
    20   18   19 1
    21   19   20 2
    22    1   21 1
    23    2   22 1
    24    3   23 1
    25    4   24 1
    26    5   25 1
    27    7   26 1
    28   11   27 1
    29   12   28 1
    30   13   29 1
    31   14   30 1
    32   14   31 1
    33   15   32 1
    34   16   33 1
    35   17   34 1
    36   18   35 1
    37   19   36 1
    38   20   37 1
@<TRIPOS>PROPERTY_DATA
  Total_Score	| 10.7182
  Crash		| -1.1431
  Polar		| 8.7868
  FragIndex	| 1
  FragRMSD	| 0.072

