@<TRIPOS>MOLECULE
BindingDB_50304278
 47 49 0 0 0
SMALL
NO_CHARGES


@<TRIPOS>ATOM
1    N        34.4470   22.9982   28.6839  N     
2    C        33.3213   22.5610   27.9024  C     
3    C        33.4839   22.9119   26.3938  C     
4    O        33.4025   24.3370   26.2528  O     
5    C        32.3852   22.1887   25.5461  C     
6    O        32.6368   22.2769   24.1378  O     
7    C        32.2878   20.6737   25.9019  C     
8    O        31.2171   20.0653   25.1753  O     
9    C        32.1110   20.5028   27.4441  C     
10   O        33.2239   21.1362   28.1083  O     
11   C        32.0411   19.0362   27.9319  C     
12   O        33.2072   18.3011   27.5636  O     
13   C        34.4005   23.6201   29.8635  C     
14   C        35.5479   24.0943   30.4995  C     
15   O        33.3213   23.7444   30.4404  O     
16   C        36.8091   23.4633   30.4002  C     
17   C        37.9246   23.8711   31.1633  C     
18   C        35.4764   25.2475   31.3188  C     
19   C        36.5821   25.6872   32.0688  C     
20   C        37.8042   24.9621   32.0630  C     
21   O        38.8818   25.2680   32.9133  O     
22   C        38.8904   26.7235   33.1726  C     
23   C        37.4910   27.2669   33.6168  C     
24   O        36.4830   26.9341   32.6412  O     
25   O        39.0569   23.1087   31.0545  O     
26   C        40.3093   23.8131   31.1677  C     
27   H        35.3296   22.8400   28.3111  H     
28   H        32.3971   23.0186   28.2549  H     
29   H        34.4671   22.5919   26.0353  H     
30   H        33.1796   24.5323   25.3170  H     
31   H        31.4220   22.6645   25.7374  H     
32   H        32.8372   23.2144   23.9328  H     
33   H        33.2244   20.1923   25.5954  H     
34   H        31.3286   19.0971   25.3057  H     
35   H        31.1718   20.9762   27.7469  H     
36   H        31.9713   19.0306   29.0240  H     
37   H        31.1544   18.5295   27.5444  H     
38   H        33.0073   17.9278   26.6798  H     
39   H        36.9207   22.6475   29.8011  H     
40   H        34.6260   25.8076   31.3673  H     
41   H        39.6341   26.9641   33.9481  H     
42   H        39.1718   27.2284   32.2286  H     
43   H        37.1963   26.8506   34.5941  H     
44   H        37.5253   28.3631   33.6907  H     
45   H        40.4322   24.5937   30.4136  H     
46   H        41.1069   23.0557   31.0241  H     
47   H        40.3544   24.3167   32.1546  H     
@<TRIPOS>BOND
     1    2    1 1
     2    1   13 am
     3    2    3 1
     4    2   10 1
     5    3    4 1
     6    3    5 1
     7    5    6 1
     8    5    7 1
     9    7    8 1
    10    7    9 1
    11    9   10 1
    12    9   11 1
    13   11   12 1
    14   13   14 1
    15   13   15 2
    16   14   16 2
    17   14   18 1
    18   16   17 1
    19   17   20 2
    20   17   25 1
    21   18   19 2
    22   19   20 1
    23   19   24 1
    24   20   21 1
    25   21   22 1
    26   22   23 1
    27   23   24 1
    28   25   26 1
    29    1   27 1
    30    2   28 1
    31    3   29 1
    32    4   30 1
    33    5   31 1
    34    6   32 1
    35    7   33 1
    36    8   34 1
    37    9   35 1
    38   11   36 1
    39   11   37 1
    40   12   38 1
    41   16   39 1
    42   18   40 1
    43   22   41 1
    44   22   42 1
    45   23   43 1
    46   23   44 1
    47   26   45 1
    48   26   46 1
    49   26   47 1
@<TRIPOS>PROPERTY_DATA
  Total_Score	| 12.9416
  Crash		| -1.6101
  Polar		| 10.6347
  FragIndex	| 1
  FragRMSD	| 0.352

