@<TRIPOS>MOLECULE
BindingDB_50263723
 43 45 0 0 0
SMALL
NO_CHARGES


@<TRIPOS>ATOM
1    C        32.0290   20.4933   27.4562  C     
2    C        32.2363   20.6817   25.9223  C     
3    C        32.2932   22.1960   25.5730  C     
4    C        33.3080   22.9582   26.4635  C     
5    C        33.0994   22.6236   27.9662  C     
6    O        33.0635   21.1932   28.1815  O     
7    N        34.1999   23.1513   28.7240  N     
8    C        34.1561   23.6900   29.9478  C     
9    C        35.2927   24.1188   30.5823  C     
10   O        33.0693   23.8024   30.5111  O     
11   O        33.1842   24.3723   26.2979  O     
12   O        32.6318   22.3296   24.1915  O     
13   O        31.1900   20.0533   25.1746  O     
14   C        32.0360   19.0120   27.9057  C     
15   O        33.2276   18.3405   27.4985  O     
16   C        36.4736   23.4822   30.3888  C     
17   C        36.3552   25.6236   32.1247  C     
18   C        35.2581   25.1924   31.4640  C     
19   C        37.5907   25.0147   31.9109  C     
20   C        37.6548   23.9146   31.0060  C     
21   C        38.9009   23.2999   30.7422  C     
22   C        40.0706   23.7717   31.3623  C     
23   C        40.0028   24.8419   32.2716  C     
24   C        38.7719   25.4635   32.5502  C     
25   H        31.0543   20.9052   27.7400  H     
26   H        33.1853   20.2255   25.6222  H     
27   H        31.2960   22.6318   25.7191  H     
28   H        34.3196   22.6631   26.1605  H     
29   H        32.1455   23.0603   28.2916  H     
30   H        35.0667   23.0846   28.3056  H     
31   H        33.1627   24.5405   25.3282  H     
32   H        32.7504   23.2839   24.0227  H     
33   H        31.3563   19.0913   25.2488  H     
34   H        31.9780   18.9648   28.9946  H     
35   H        31.1718   18.4783   27.5042  H     
36   H        33.0014   17.9114   26.6468  H     
37   H        36.5207   22.6901   29.7897  H     
38   H        36.2822   26.3932   32.7497  H     
39   H        34.4035   25.6830   31.6220  H     
40   H        38.9632   22.5178   30.0895  H     
41   H        40.9687   23.3344   31.1528  H     
42   H        40.8542   25.1684   32.7383  H     
43   H        38.7425   26.2424   33.2075  H     
@<TRIPOS>BOND
     1    1    2 1
     2    1    6 1
     3    1   14 1
     4    2    3 1
     5    2   13 1
     6    3    4 1
     7    3   12 1
     8    4    5 1
     9    4   11 1
    10    5    6 1
    11    5    7 1
    12    7    8 am
    13    8    9 1
    14    8   10 2
    15    9   16 2
    16    9   18 1
    17   14   15 1
    18   16   20 1
    19   17   18 2
    20   17   19 1
    21   19   20 1
    22   19   24 2
    23   20   21 2
    24   21   22 1
    25   22   23 2
    26   23   24 1
    27    1   25 1
    28    2   26 1
    29    3   27 1
    30    4   28 1
    31    5   29 1
    32    7   30 1
    33   11   31 1
    34   12   32 1
    35   13   33 1
    36   14   34 1
    37   14   35 1
    38   15   36 1
    39   16   37 1
    40   17   38 1
    41   18   39 1
    42   21   40 1
    43   22   41 1
    44   23   42 1
    45   24   43 1
@<TRIPOS>PROPERTY_DATA
  Total_Score	| 11.5783
  Crash		| -1.3027
  Polar		| 8.8483
  FragIndex	| 1
  FragRMSD	| 0.376

