@<TRIPOS>MOLECULE
BindingDB_50306561
 40 41 0 0 0
SMALL
NO_CHARGES


@<TRIPOS>ATOM
1    N        34.3958   22.9844   28.6606  N     
2    C        33.3031   22.5034   27.8710  C     
3    C        33.5114   22.8265   26.3622  C     
4    O        33.4919   24.2459   26.1927  O     
5    C        32.3981   22.1391   25.5254  C     
6    O        32.6606   22.2793   24.1264  O     
7    C        32.2729   20.6267   25.8705  C     
8    O        31.1751   20.0578   25.1543  O     
9    C        32.1104   20.4307   27.4114  C     
10   O        33.1997   21.0846   28.1008  O     
11   C        32.0732   18.9504   27.8691  C     
12   O        33.2727   18.2548   27.5381  O     
13   C        34.2763   23.5683   29.8575  C     
14   O        33.1647   23.6359   30.3740  O     
15   C        35.4525   24.1507   30.4954  C     
16   C        35.2205   24.8738   31.7926  C     
17   C        36.1560   24.7387   32.8702  C     
18   C        35.9112   25.3707   34.0983  C     
19   C        34.7371   26.1167   34.2920  C     
20   C        33.8348   26.3048   33.2465  C     
21   C        34.1192   25.7160   31.9594  C     
22   H        35.2895   22.9184   28.2863  H     
23   H        32.3725   22.9925   28.2012  H     
24   H        34.4850   22.4519   26.0238  H     
25   H        33.2122   24.4170   25.2681  H     
26   H        31.4429   22.6347   25.7302  H     
27   H        32.7726   23.2388   23.9579  H     
28   H        33.1844   20.1196   25.5383  H     
29   H        31.2759   19.0861   25.2492  H     
30   H        31.1614   20.8841   27.7239  H     
31   H        31.9633   18.9234   28.9538  H     
32   H        31.2253   18.4232   27.4376  H     
33   H        33.1050   17.8487   26.6625  H     
34   H        36.1749   23.3345   30.6316  H     
35   H        35.9031   24.8740   29.8053  H     
36   H        37.0017   24.1919   32.7459  H     
37   H        36.5870   25.2836   34.8564  H     
38   H        34.5453   26.5387   35.2012  H     
39   H        32.9891   26.8530   33.3625  H     
40   H        33.4654   25.9020   31.2152  H     
@<TRIPOS>BOND
     1    2    1 1
     2    1   13 am
     3    2    3 1
     4    2   10 1
     5    3    4 1
     6    3    5 1
     7    5    6 1
     8    5    7 1
     9    7    8 1
    10    7    9 1
    11    9   10 1
    12    9   11 1
    13   11   12 1
    14   13   14 2
    15   13   15 1
    16   15   16 1
    17   16   17 2
    18   16   21 1
    19   17   18 1
    20   18   19 2
    21   19   20 1
    22   20   21 2
    23    1   22 1
    24    2   23 1
    25    3   24 1
    26    4   25 1
    27    5   26 1
    28    6   27 1
    29    7   28 1
    30    8   29 1
    31    9   30 1
    32   11   31 1
    33   11   32 1
    34   12   33 1
    35   15   34 1
    36   15   35 1
    37   17   36 1
    38   18   37 1
    39   19   38 1
    40   20   39 1
    41   21   40 1
@<TRIPOS>PROPERTY_DATA
  Total_Score	| 11.0252
  Crash		| -1.2970
  Polar		| 8.9154
  FragIndex	| 1
  FragRMSD	| 0.189

