@<TRIPOS>MOLECULE
BindingDB_50295842
 40 41 0 0 0
SMALL
NO_CHARGES


@<TRIPOS>ATOM
1    C        33.2081   22.6505   27.8511  C     
2    C        33.4542   22.9472   26.3472  C     
3    O        33.4207   24.3680   26.1485  O     
4    C        32.3527   22.2555   25.4906  C     
5    O        32.6393   22.3421   24.0989  O     
6    C        32.2110   20.7571   25.8539  C     
7    O        31.1065   20.1887   25.1487  O     
8    C        32.0550   20.5644   27.3999  C     
9    O        33.1240   21.2295   28.1082  O     
10   C        32.0356   19.0755   27.8318  C     
11   O        33.2445   18.4028   27.4825  O     
12   N        34.2922   23.1925   28.6119  N     
13   C        34.2209   23.7412   29.8142  C     
14   C        35.3541   24.2818   30.3829  C     
15   O        33.1533   23.7753   30.4064  O     
16   C        36.3149   24.9769   29.6191  C     
17   C        37.4795   25.5001   30.2142  C     
18   C        37.7415   25.3072   31.5845  C     
19   C        36.7706   24.6313   32.3537  C     
20   C        35.5860   24.1506   31.7647  C     
21   C        38.9787   25.8325   32.1844  C     
22   H        32.2762   23.1424   28.1564  H     
23   H        34.4441   22.5755   26.0641  H     
24   H        33.2886   24.4905   25.1776  H     
25   H        31.4080   22.7707   25.6724  H     
26   H        32.8026   23.3001   23.9029  H     
27   H        33.1275   20.2458   25.5239  H     
28   H        30.3322   20.7273   25.3938  H     
29   H        31.0991   20.9987   27.7151  H     
30   H        31.9200   19.0188   28.9128  H     
31   H        31.1925   18.5592   27.3690  H     
32   H        33.0066   17.8282   26.7091  H     
33   H        35.1741   23.1638   28.1876  H     
34   H        36.1879   25.1284   28.6082  H     
35   H        38.1447   26.0359   29.6426  H     
36   H        36.9198   24.4886   33.3621  H     
37   H        34.9140   23.6708   32.3715  H     
38   H        39.8337   25.3619   31.7056  H     
39   H        39.0156   25.6334   33.2515  H     
40   H        39.0174   26.9068   32.0300  H     
@<TRIPOS>BOND
     1    1    2 1
     2    1    9 1
     3    1   12 1
     4    2    3 1
     5    2    4 1
     6    4    5 1
     7    4    6 1
     8    6    7 1
     9    6    8 1
    10    8    9 1
    11    8   10 1
    12   10   11 1
    13   12   13 am
    14   13   14 1
    15   13   15 2
    16   14   16 2
    17   14   20 1
    18   16   17 1
    19   17   18 2
    20   18   19 1
    21   18   21 1
    22   19   20 2
    23    1   22 1
    24    2   23 1
    25    3   24 1
    26    4   25 1
    27    5   26 1
    28    6   27 1
    29    7   28 1
    30    8   29 1
    31   10   30 1
    32   10   31 1
    33   11   32 1
    34   12   33 1
    35   16   34 1
    36   17   35 1
    37   19   36 1
    38   20   37 1
    39   21   38 1
    40   21   39 1
    41   21   40 1
@<TRIPOS>PROPERTY_DATA
  Total_Score	| 10.5156
  Crash		| -1.2282
  Polar		| 8.0096
  FragIndex	| 1
  FragRMSD	| 0.646

