@<TRIPOS>MOLECULE
BindingDB_50306557
 31 31 0 0 0
SMALL
NO_CHARGES


@<TRIPOS>ATOM
1    N        34.2947   22.9833   28.6582  N     
2    C        33.1756   22.4897   27.9133  C     
3    C        33.3579   22.8321   26.4055  C     
4    O        33.2804   24.2538   26.2410  O     
5    C        32.2817   22.1067   25.5479  C     
6    O        32.5741   22.2429   24.1559  O     
7    C        32.2029   20.5934   25.8908  C     
8    O        31.1218   20.0048   25.1690  O     
9    C        32.0360   20.3940   27.4250  C     
10   O        33.1071   21.0654   28.1243  O     
11   C        32.0375   18.9094   27.8706  C     
12   O        33.2443   18.2415   27.5107  O     
13   C        34.2656   23.5220   29.8719  C     
14   C        35.4919   23.9759   30.4980  C     
15   O        33.2072   23.6842   30.4702  O     
16   O        36.5256   22.9985   30.3982  O     
17   H        35.1717   22.8541   28.2554  H     
18   H        32.2436   22.9514   28.2651  H     
19   H        34.3503   22.5049   26.0773  H     
20   H        33.2740   24.4205   25.2741  H     
21   H        31.3042   22.5679   25.7314  H     
22   H        32.6467   23.2035   23.9767  H     
23   H        33.1328   20.1167   25.5620  H     
24   H        31.2416   19.0296   25.2633  H     
25   H        31.0739   20.8168   27.7374  H     
26   H        31.9417   18.8618   28.9606  H     
27   H        31.1849   18.3711   27.4414  H     
28   H        33.0998   17.9346   26.5891  H     
29   H        35.8176   24.9026   30.0243  H     
30   H        35.3327   24.1726   31.5599  H     
31   H        37.1267   23.3282   29.6898  H     
@<TRIPOS>BOND
     1    2    1 1
     2    1   13 am
     3    2    3 1
     4    2   10 1
     5    3    4 1
     6    3    5 1
     7    5    6 1
     8    5    7 1
     9    7    8 1
    10    7    9 1
    11    9   10 1
    12    9   11 1
    13   11   12 1
    14   13   14 1
    15   13   15 2
    16   14   16 1
    17    1   17 1
    18    2   18 1
    19    3   19 1
    20    4   20 1
    21    5   21 1
    22    6   22 1
    23    7   23 1
    24    8   24 1
    25    9   25 1
    26   11   26 1
    27   11   27 1
    28   12   28 1
    29   14   29 1
    30   14   30 1
    31   16   31 1
@<TRIPOS>PROPERTY_DATA
  Total_Score	| 9.5202
  Crash		| -0.9462
  Polar		| 8.7622
  FragIndex	| 1
  FragRMSD	| 0.090

