@<TRIPOS>MOLECULE
BindingDB_50295313
 41 42 0 0 0
SMALL
NO_CHARGES


@<TRIPOS>ATOM
1    N        34.1859   23.1695   28.7182  N     
2    C        33.1000   22.6374   27.9485  C     
3    C        33.3286   22.9589   26.4408  C     
4    O        33.2650   24.3808   26.2712  O     
5    C        32.3006   22.1855   25.5528  C     
6    O        32.6459   22.2764   24.1683  O     
7    C        32.2004   20.6826   25.9397  C     
8    O        31.1099   20.0556   25.2677  O     
9    C        32.0174   20.5212   27.4759  C     
10   O        33.0703   21.2181   28.1828  O     
11   C        32.0150   19.0386   27.9329  C     
12   O        33.2016   18.3596   27.5253  O     
13   C        34.1106   23.9041   29.8659  C     
14   N        32.9097   24.3375   30.3381  N     
15   O        32.7371   24.8290   31.5356  O     
16   C        35.3378   24.1836   30.5520  C     
17   C        35.5418   25.4160   31.2177  C     
18   C        36.7382   25.6810   31.9105  C     
19   C        37.7726   24.7246   31.9348  C     
20   C        37.5969   23.5031   31.2524  C     
21   C        36.3935   23.2416   30.5714  C     
22   C        38.8736   24.9715   32.5863  C     
23   N        39.8398   25.1841   33.1694  N     
24   H        35.0849   22.9299   28.4195  H     
25   H        32.1385   23.0606   28.2449  H     
26   H        34.3374   22.6467   26.1522  H     
27   H        33.1274   24.5384   25.3078  H     
28   H        31.3242   22.6533   25.6643  H     
29   H        32.8020   23.2243   23.9767  H     
30   H        33.1184   20.1764   25.6292  H     
31   H        31.2998   19.0964   25.2820  H     
32   H        31.0438   20.9408   27.7590  H     
33   H        31.9503   18.9951   29.0211  H     
34   H        31.1442   18.5083   27.5319  H     
35   H        32.9738   17.9562   26.6611  H     
36   H        32.3378   25.7139   31.3735  H     
37   H        34.8165   26.1362   31.1934  H     
38   H        36.8399   26.5796   32.3891  H     
39   H        38.3303   22.7897   31.2514  H     
40   H        36.2773   22.3411   30.1049  H     
41   H        32.1243   24.2094   29.7841  H     
@<TRIPOS>BOND
     1    2    1 1
     2    1   13 1
     3    2    3 1
     4    2   10 1
     5    3    4 1
     6    3    5 1
     7    5    6 1
     8    5    7 1
     9    7    8 1
    10    7    9 1
    11    9   10 1
    12    9   11 1
    13   11   12 1
    14   13   14 2
    15   13   16 1
    16   14   15 1
    17   16   17 2
    18   16   21 1
    19   17   18 1
    20   18   19 2
    21   19   20 1
    22   19   22 1
    23   20   21 2
    24   22   23 3
    25    1   24 1
    26    2   25 1
    27    3   26 1
    28    4   27 1
    29    5   28 1
    30    6   29 1
    31    7   30 1
    32    8   31 1
    33    9   32 1
    34   11   33 1
    35   11   34 1
    36   12   35 1
    37   15   36 1
    38   17   37 1
    39   18   38 1
    40   20   39 1
    41   21   40 1
    42   14   41 1
@<TRIPOS>PROPERTY_DATA
  Total_Score	| 10.5892
  Crash		| -1.6247
  Polar		| 9.1488
  FragIndex	| 1
  FragRMSD	| 0.452

