@<TRIPOS>MOLECULE
BindingDB_50159803
 62 61 0 0 0
SMALL
NO_CHARGES


@<TRIPOS>ATOM
1    S        -6.3975    0.9613   16.6993  S     
2    S        -1.8414   14.7554   12.5009  S     
3    O        -7.8413    0.2466   17.2171  O     
4    O        -5.2371    0.8410   17.9250  O     
5    O        -3.2221   15.4676   11.8461  O     
6    O        -1.3140   15.5910   13.8701  O     
7    N        -6.6533    2.5800   16.3224  N     
8    N        -0.5670   14.7843   11.4062  N     
9    O        -5.7696    0.1069   15.3717  O     
10   O        -2.1319   13.1575   12.9700  O     
11   C        -1.3390   12.4514   13.9298  C     
12   C        -4.8631    0.6323   14.3917  C     
13   C        -4.5634   -0.4018   13.2650  C     
14   C        -1.9285   11.0469   14.1626  C     
15   C        -3.6110    6.4216   14.6066  C     
16   C        -2.1462    6.3351   14.0708  C     
17   C        -1.4458    7.7029   13.8674  C     
18   C        -1.4858    8.6495   15.0976  C     
19   C        -0.9150   10.0635   14.8144  C     
20   C        -4.9580    0.0498   11.8169  C     
21   C        -3.8577    0.8121   11.0003  C     
22   C        -4.1217    2.3280   10.7337  C     
23   C        -4.4266    3.2110   11.9786  C     
24   C        -3.3373    3.1544   13.0926  C     
25   C        -3.7585    3.8062   14.4427  C     
26   C        -4.4912    5.1755   14.3249  C     
27   H        -5.9348    3.2259   16.4407  H     
28   H        -7.5655    2.9041   16.1783  H     
29   H         0.2554   14.3156   11.6128  H     
30   H        -0.7051   15.1550   10.5183  H     
31   H        -0.3172   12.3626   13.5428  H     
32   H        -1.3142   13.0157   14.8662  H     
33   H        -5.3428    1.5107   13.9657  H     
34   H        -3.9295    0.9293   14.8814  H     
35   H        -3.5063   -0.6890   13.2835  H     
36   H        -5.1239   -1.3175   13.4894  H     
37   H        -2.8132   11.1400   14.7947  H     
38   H        -2.2372   10.6582   13.1958  H     
39   H        -3.5943    6.6005   15.6849  H     
40   H        -4.1147    7.2685   14.1444  H     
41   H        -1.5489    5.7163   14.7496  H     
42   H        -2.1474    5.8337   13.1006  H     
43   H        -0.3991    7.5097   13.6156  H     
44   H        -1.9104    8.1833   13.0079  H     
45   H        -2.5104    8.7420   15.4631  H     
46   H        -0.8939    8.1888   15.8960  H     
47   H        -0.0396    9.9693   14.1650  H     
48   H        -0.5657   10.4855   15.7600  H     
49   H        -5.2223   -0.8628   11.2597  H     
50   H        -5.8703    0.6522   11.8682  H     
51   H        -2.8830    0.6876   11.4830  H     
52   H        -3.7731    0.3275   10.0201  H     
53   H        -3.2405    2.7347   10.2248  H     
54   H        -4.9710    2.4051   10.0385  H     
55   H        -4.5172    4.2450   11.6292  H     
56   H        -5.4005    2.9231   12.3823  H     
57   H        -3.0924    2.1111   13.3072  H     
58   H        -2.4199    3.6343   12.7232  H     
59   H        -4.4148    3.0996   14.9587  H     
60   H        -2.8660    3.9100   15.0670  H     
61   H        -5.3118    5.1863   15.0455  H     
62   H        -4.9304    5.2878   13.3320  H     
@<TRIPOS>BOND
     1    1    3 2
     2    1    4 2
     3    1    7 am
     4    1    9 1
     5    2    5 2
     6    2    6 2
     7    2    8 am
     8    2   10 1
     9    9   12 1
    10   10   11 1
    11   11   14 1
    12   12   13 1
    13   13   20 1
    14   14   19 1
    15   15   16 1
    16   15   26 1
    17   16   17 1
    18   17   18 1
    19   18   19 1
    20   20   21 1
    21   21   22 1
    22   22   23 1
    23   23   24 1
    24   24   25 1
    25   25   26 1
    26    7   27 1
    27    7   28 1
    28    8   29 1
    29    8   30 1
    30   11   31 1
    31   11   32 1
    32   12   33 1
    33   12   34 1
    34   13   35 1
    35   13   36 1
    36   14   37 1
    37   14   38 1
    38   15   39 1
    39   15   40 1
    40   16   41 1
    41   16   42 1
    42   17   43 1
    43   17   44 1
    44   18   45 1
    45   18   46 1
    46   19   47 1
    47   19   48 1
    48   20   49 1
    49   20   50 1
    50   21   51 1
    51   21   52 1
    52   22   53 1
    53   22   54 1
    54   23   55 1
    55   23   56 1
    56   24   57 1
    57   24   58 1
    58   25   59 1
    59   25   60 1
    60   26   61 1
    61   26   62 1
@<TRIPOS>PROPERTY_DATA
  Total_Score	| 4.9596
  Crash		| -2.9194
  Polar		| 3.1877
  FragIndex	| 1
  FragRMSD	| 0.779

