@<TRIPOS>MOLECULE
BindingDB_33281
 38 37 0 0 0
SMALL
NO_CHARGES


@<TRIPOS>ATOM
1    S        -1.3422   12.5773   14.2000  S     
2    O        -0.3232   11.2220   14.2629  O     
3    N        -0.9797   13.6129   15.4750  N     
4    O        -1.1106   13.4224   12.7544  O     
5    O        -2.9678   12.1334   14.3448  O     
6    C        -0.6252   10.0341   15.0031  C     
7    C        -1.3315    9.0069   14.0907  C     
8    C        -2.1587    7.9490   14.8734  C     
9    C        -2.9808    6.9934   13.9601  C     
10   C        -3.4822    5.7064   14.6831  C     
11   C        -4.3764    4.7768   13.8040  C     
12   C        -5.0942    3.6412   14.5872  C     
13   C        -4.1682    2.6132   15.2980  C     
14   O        -4.6669    2.1786   16.5708  O     
15   S        -6.1820    1.4736   16.8654  S     
16   N        -6.5071    1.3710   18.5087  N     
17   O        -7.4304    2.3094   16.0894  O     
18   O        -6.2242   -0.0823   16.2066  O     
19   H        -1.6649   14.2239   15.8004  H     
20   H        -0.2353   13.3926   16.0583  H     
21   H         0.3142    9.6217   15.3797  H     
22   H        -1.2566   10.2752   15.8591  H     
23   H        -2.0034    9.5435   13.4187  H     
24   H        -0.5787    8.4978   13.4791  H     
25   H        -1.4832    7.3528   15.4987  H     
26   H        -2.8571    8.4712   15.5313  H     
27   H        -3.8544    7.5371   13.5810  H     
28   H        -2.3650    6.6990   13.0993  H     
29   H        -2.6045    5.1372   15.0083  H     
30   H        -4.0497    5.9993   15.5749  H     
31   H        -5.1427    5.3974   13.3249  H     
32   H        -3.7643    4.3366   13.0113  H     
33   H        -5.7660    4.0968   15.3239  H     
34   H        -5.7264    3.0932   13.8816  H     
35   H        -4.0152    1.7360   14.6617  H     
36   H        -3.1895    3.0587   15.4888  H     
37   H        -7.3790    1.0669   18.8078  H     
38   H        -5.8963    1.7732   19.1488  H     
@<TRIPOS>BOND
     1    1    2 1
     2    1    3 am
     3    1    4 2
     4    1    5 2
     5    2    6 1
     6    6    7 1
     7    7    8 1
     8    8    9 1
     9    9   10 1
    10   10   11 1
    11   11   12 1
    12   12   13 1
    13   13   14 1
    14   14   15 1
    15   15   16 am
    16   15   17 2
    17   15   18 2
    18    3   19 1
    19    3   20 1
    20    6   21 1
    21    6   22 1
    22    7   23 1
    23    7   24 1
    24    8   25 1
    25    8   26 1
    26    9   27 1
    27    9   28 1
    28   10   29 1
    29   10   30 1
    30   11   31 1
    31   11   32 1
    32   12   33 1
    33   12   34 1
    34   13   35 1
    35   13   36 1
    36   16   37 1
    37   16   38 1
@<TRIPOS>PROPERTY_DATA
  Total_Score	| 5.0320
  Crash		| -1.5234
  Polar		| 3.1829
  FragIndex	| 1
  FragRMSD	| 1.343

