@<TRIPOS>MOLECULE
BindingDB_50154471
 35 34 0 0 0
SMALL
NO_CHARGES


@<TRIPOS>ATOM
1    S        -5.7832    5.0157   14.6486  S     
2    S        -1.8191   15.1405   12.4390  S     
3    O        -6.4560    6.0105   13.4505  O     
4    O        -6.1764    3.3820   14.4045  O     
5    O        -3.1950   15.7654   11.7369  O     
6    O        -1.4529   15.9175   13.9267  O     
7    N        -6.3505    5.5738   16.1163  N     
8    N        -0.5477   15.3166   11.3533  N     
9    O        -4.1036    5.2387   14.5589  O     
10   O        -1.9944   13.4782   12.7368  O     
11   C        -1.4869   12.7440   13.8534  C     
12   C        -3.5023    6.5644   14.6924  C     
13   C        -1.9812    6.5376   14.4113  C     
14   C        -2.2141   11.3693   13.9867  C     
15   C        -1.8132    9.0854   15.1873  C     
16   C        -1.2924   10.1052   14.1337  C     
17   C        -1.1742    7.6583   15.1363  C     
18   H        -6.7581    4.9527   16.7442  H     
19   H        -6.4670    6.5285   16.2571  H     
20   H         0.3327   15.0209   11.5863  H     
21   H        -0.6863   15.8329   10.5339  H     
22   H        -0.4084   12.6295   13.7282  H     
23   H        -1.6444   13.3043   14.7832  H     
24   H        -3.9923    7.2263   14.0045  H     
25   H        -3.6966    6.8745   15.7133  H     
26   H        -1.5752    5.5797   14.7435  H     
27   H        -1.8146    6.6057   13.3367  H     
28   H        -2.9001   11.4430   14.8372  H     
29   H        -2.8606   11.2209   13.1200  H     
30   H        -1.6232    9.5058   16.1754  H     
31   H        -2.8971    8.9883   15.0964  H     
32   H        -1.2394    9.6060   13.1686  H     
33   H        -0.2715   10.3614   14.4124  H     
34   H        -1.0181    7.3295   16.1659  H     
35   H        -0.1819    7.7297   14.6799  H     
@<TRIPOS>BOND
     1    1    3 2
     2    1    4 2
     3    1    7 am
     4    1    9 1
     5    2    5 2
     6    2    6 2
     7    2    8 am
     8    2   10 1
     9    9   12 1
    10   10   11 1
    11   11   14 1
    12   12   13 1
    13   13   17 1
    14   14   16 1
    15   15   16 1
    16   15   17 1
    17    7   18 1
    18    7   19 1
    19    8   20 1
    20    8   21 1
    21   11   22 1
    22   11   23 1
    23   12   24 1
    24   12   25 1
    25   13   26 1
    26   13   27 1
    27   14   28 1
    28   14   29 1
    29   15   30 1
    30   15   31 1
    31   16   32 1
    32   16   33 1
    33   17   34 1
    34   17   35 1
@<TRIPOS>PROPERTY_DATA
  Total_Score	| 2.5110
  Crash		| -1.1168
  Polar		| 0.0005
  FragIndex	| 1
  FragRMSD	| 0.689

