@<TRIPOS>MOLECULE
BindingDB_33282
 44 43 0 0 0
SMALL
NO_CHARGES


@<TRIPOS>ATOM
1    S        -6.0405    1.2947   16.4120  S     
2    O        -5.1957    1.9296   15.0813  O     
3    N        -7.3951    2.2128   16.8355  N     
4    O        -6.4784   -0.3173   16.1669  O     
5    O        -5.0201    1.2939   17.7579  O     
6    C        -5.4242    3.1821   14.4406  C     
7    C        -4.0540    3.8337   14.1367  C     
8    C        -4.1102    5.3715   14.0434  C     
9    C        -2.6940    6.0182   14.0780  C     
10   C        -2.6736    7.3564   14.8609  C     
11   C        -1.2385    7.8720   15.1934  C     
12   C        -1.1654    9.4186   15.2843  C     
13   C        -1.2888   10.1386   13.9088  C     
14   C        -2.0828   11.4847   13.9491  C     
15   C        -1.2282   12.7706   14.0539  C     
16   O        -1.1339   13.4388   12.7871  O     
17   S        -1.8971   14.8999   12.3999  S     
18   N        -3.5622   14.7069   12.2584  N     
19   O        -1.6519   16.0083   13.6484  O     
20   O        -1.2725   15.5992   10.9891  O     
21   H        -8.0674    1.8383   17.4662  H     
22   H        -7.5682    3.0669   16.3762  H     
23   H        -5.9684    3.0068   13.5163  H     
24   H        -6.0228    3.8269   15.0644  H     
25   H        -3.3595    3.5623   14.9306  H     
26   H        -3.6680    3.4297   13.1999  H     
27   H        -4.6116    5.6849   13.1195  H     
28   H        -4.6976    5.7518   14.8828  H     
29   H        -1.9790    5.3190   14.5394  H     
30   H        -2.3615    6.2072   13.0424  H     
31   H        -3.2246    8.0973   14.2659  H     
32   H        -3.2078    7.2370   15.8124  H     
33   H        -0.9529    7.4421   16.1519  H     
34   H        -0.5295    7.5180   14.4427  H     
35   H        -1.9459    9.7459   15.9820  H     
36   H        -0.2182    9.6957   15.7397  H     
37   H        -0.2981   10.3026   13.4864  H     
38   H        -1.8135    9.4905   13.1996  H     
39   H        -2.6983   11.5326   13.0411  H     
40   H        -2.7895   11.4519   14.7788  H     
41   H        -1.6604   13.4385   14.7958  H     
42   H        -0.2147   12.5445   14.3861  H     
43   H        -4.1227   15.4709   12.0281  H     
44   H        -3.9801   13.8886   12.5779  H     
@<TRIPOS>BOND
     1    1    2 1
     2    1    3 am
     3    1    4 2
     4    1    5 2
     5    2    6 1
     6    6    7 1
     7    7    8 1
     8    8    9 1
     9    9   10 1
    10   10   11 1
    11   11   12 1
    12   12   13 1
    13   13   14 1
    14   14   15 1
    15   15   16 1
    16   16   17 1
    17   17   18 am
    18   17   19 2
    19   17   20 2
    20    3   21 1
    21    3   22 1
    22    6   23 1
    23    6   24 1
    24    7   25 1
    25    7   26 1
    26    8   27 1
    27    8   28 1
    28    9   29 1
    29    9   30 1
    30   10   31 1
    31   10   32 1
    32   11   33 1
    33   11   34 1
    34   12   35 1
    35   12   36 1
    36   13   37 1
    37   13   38 1
    38   14   39 1
    39   14   40 1
    40   15   41 1
    41   15   42 1
    42   18   43 1
    43   18   44 1
@<TRIPOS>PROPERTY_DATA
  Total_Score	| 5.3318
  Crash		| -1.3223
  Polar		| 2.1209
  FragIndex	| 1
  FragRMSD	| 1.454

