@<TRIPOS>MOLECULE
BindingDB_50159810
 50 49 0 0 0
SMALL
NO_CHARGES


@<TRIPOS>ATOM
1    S        -5.0136   14.2394   11.2750  S     
2    S        -6.2078    1.3591   16.9497  S     
3    O        -6.2247   15.3165   11.7308  O     
4    O        -4.2042   14.8021    9.8987  O     
5    O        -6.2070   -0.1969   16.3232  O     
6    O        -5.9090    1.2695   18.6137  O     
7    N        -5.7567   12.7846   10.9002  N     
8    N        -7.7124    2.0441   16.6544  N     
9    O        -3.9370   13.9772   12.5454  O     
10   O        -4.9850    2.2836   16.2480  O     
11   C        -4.6567    2.2641   14.8467  C     
12   C        -2.5103   14.2331   12.4864  C     
13   C        -1.6861   13.2632   13.3753  C     
14   C        -3.5183    3.2794   14.5949  C     
15   C        -4.0188    4.7193   14.2840  C     
16   C        -2.4479   11.9754   13.7676  C     
17   C        -1.5850   10.8662   14.4297  C     
18   C        -1.2137    9.6989   13.4756  C     
19   C        -0.7974    8.3592   14.1584  C     
20   C        -1.7328    7.7878   15.2709  C     
21   C        -3.0473    7.0820   14.8401  C     
22   C        -2.8594    5.7415   14.0633  C     
23   H        -5.3213   11.9490   11.1184  H     
24   H        -6.6793   12.7794   10.6072  H     
25   H        -7.8581    2.9693   16.8896  H     
26   H        -8.4742    1.4687   16.4692  H     
27   H        -4.3346    1.2584   14.5385  H     
28   H        -5.5465    2.5534   14.2599  H     
29   H        -2.1514   14.1632   11.4455  H     
30   H        -2.3616   15.2744   12.8179  H     
31   H        -0.7738   13.0032   12.8245  H     
32   H        -1.3697   13.7940   14.2899  H     
33   H        -2.8594    3.2890   15.4725  H     
34   H        -2.9135    2.9316   13.7431  H     
35   H        -4.6412    4.6835   13.3826  H     
36   H        -4.6492    5.0951   15.1046  H     
37   H        -3.2259   12.2679   14.4923  H     
38   H        -2.9753   11.5784   12.8801  H     
39   H        -0.6642   11.2841   14.8557  H     
40   H        -2.1645   10.4601   15.2641  H     
41   H        -2.0442    9.4892   12.7839  H     
42   H        -0.3622   10.0275   12.8659  H     
43   H        -0.6928    7.5844   13.3855  H     
44   H         0.1905    8.4898   14.6041  H     
45   H        -1.1484    7.0851   15.8731  H     
46   H        -2.0105    8.5920   15.9556  H     
47   H        -3.6171    6.8949   15.7609  H     
48   H        -3.6608    7.7544   14.2203  H     
49   H        -1.9123    5.2558   14.3573  H     
50   H        -2.7842    5.9668   12.9915  H     
@<TRIPOS>BOND
     1    1    3 2
     2    1    4 2
     3    1    7 am
     4    1    9 1
     5    2    5 2
     6    2    6 2
     7    2    8 am
     8    2   10 1
     9    9   12 1
    10   10   11 1
    11   11   14 1
    12   12   13 1
    13   13   16 1
    14   14   15 1
    15   15   22 1
    16   16   17 1
    17   17   18 1
    18   18   19 1
    19   19   20 1
    20   20   21 1
    21   21   22 1
    22    7   23 1
    23    7   24 1
    24    8   25 1
    25    8   26 1
    26   11   27 1
    27   11   28 1
    28   12   29 1
    29   12   30 1
    30   13   31 1
    31   13   32 1
    32   14   33 1
    33   14   34 1
    34   15   35 1
    35   15   36 1
    36   16   37 1
    37   16   38 1
    38   17   39 1
    39   17   40 1
    40   18   41 1
    41   18   42 1
    42   19   43 1
    43   19   44 1
    44   20   45 1
    45   20   46 1
    46   21   47 1
    47   21   48 1
    48   22   49 1
    49   22   50 1
@<TRIPOS>PROPERTY_DATA
  Total_Score	| 5.7906
  Crash		| -1.2721
  Polar		| 2.2154
  FragIndex	| 1
  FragRMSD	| 1.257

