@<TRIPOS>MOLECULE
BindingDB_33280
 38 37 0 0 0
SMALL
NO_CHARGES


@<TRIPOS>ATOM
1    S        -6.1563    1.4324   16.9412  S     
2    O        -4.7447    2.1539   16.3370  O     
3    N        -7.4628    2.4360   16.6240  N     
4    O        -6.4604   -0.0679   16.2297  O     
5    O        -6.0690    1.2333   18.6195  O     
6    C        -4.3660    2.1351   14.9601  C     
7    C        -3.3991    3.3012   14.6319  C     
8    C        -4.1401    4.6091   14.2329  C     
9    C        -3.2416    5.8135   13.7877  C     
10   C        -3.1847    7.0339   14.7637  C     
11   C        -1.7620    7.4395   15.2715  C     
12   C        -1.0393    8.4759   14.3602  C     
13   C        -1.2922    9.9619   14.7688  C     
14   C        -1.5056   10.9405   13.5793  C     
15   C        -2.0587   12.3147   14.0391  C     
16   H        -8.3323    2.2322   17.0026  H     
17   H        -7.3337    3.2613   16.1330  H     
18   H        -3.8955    1.1771   14.7345  H     
19   H        -5.2648    2.2392   14.3463  H     
20   H        -2.7563    3.4967   15.4999  H     
21   H        -2.7512    2.9835   13.8085  H     
22   H        -4.8086    4.3673   13.3975  H     
23   H        -4.7778    4.9064   15.0694  H     
24   H        -2.2288    5.4717   13.5572  H     
25   H        -3.6467    6.1817   12.8418  H     
26   H        -3.6317    7.8891   14.2441  H     
27   H        -3.8235    6.8338   15.6261  H     
28   H        -1.8566    7.8713   16.2735  H     
29   H        -1.1392    6.5475   15.3747  H     
30   H         0.0350    8.2779   14.4089  H     
31   H        -1.3338    8.3051   13.3236  H     
32   H        -2.1718   10.0258   15.4103  H     
33   H        -0.4446   10.3209   15.3610  H     
34   H        -0.5578   11.1062   13.0597  H     
35   H        -2.2166   10.5134   12.8719  H     
36   H        -3.0207   12.1898   14.5397  H     
37   H        -2.2037   12.9719   13.1782  H     
38   H        -1.3617   12.7963   14.7296  H     
@<TRIPOS>BOND
     1    1    2 1
     2    1    3 am
     3    1    4 2
     4    1    5 2
     5    2    6 1
     6    6    7 1
     7    7    8 1
     8    8    9 1
     9    9   10 1
    10   10   11 1
    11   11   12 1
    12   12   13 1
    13   13   14 1
    14   14   15 1
    15    3   16 1
    16    3   17 1
    17    6   18 1
    18    6   19 1
    19    7   20 1
    20    7   21 1
    21    8   22 1
    22    8   23 1
    23    9   24 1
    24    9   25 1
    25   10   26 1
    26   10   27 1
    27   11   28 1
    28   11   29 1
    29   12   30 1
    30   12   31 1
    31   13   32 1
    32   13   33 1
    33   14   34 1
    34   14   35 1
    35   15   36 1
    36   15   37 1
    37   15   38 1
@<TRIPOS>PROPERTY_DATA
  Total_Score	| 5.4867
  Crash		| -1.1179
  Polar		| 2.1405
  FragIndex	| 1
  FragRMSD	| 1.163

