@<TRIPOS>MOLECULE
BindingDB_50292720
 42 44 0 0 0
SMALL
NO_CHARGES


@<TRIPOS>ATOM
1    C        35.5255    4.1466   22.7828  C     
2    C        36.3411    3.0945   23.0201  C     
3    N        36.1496    2.2727   24.1032  N     
4    C        35.0424    2.4496   24.8475  C     
5    N        34.2383    3.4848   24.6101  N     
6    C        34.4819    4.3462   23.6275  C     
7    O        33.7334    5.3069   23.4856  O     
8    O        34.7170    1.7080   25.7637  O     
9    C        37.1848    1.3234   24.4772  C     
10   O        38.4857    1.8613   24.1847  O     
11   C        39.4037    0.7609   24.1166  C     
12   C        38.5958   -0.3804   23.4320  C     
13   C        37.1142   -0.0416   23.7515  C     
14   O        36.4870   -1.0236   24.5826  O     
15   O        38.9959   -1.6598   23.9226  O     
16   C        40.6833    1.2589   23.3672  C     
17   N        42.0122    1.1239   24.0394  N     
18   C        42.3576   -0.2295   24.5584  C     
19   C        43.8491   -0.2620   24.9872  C     
20   O        44.1556    0.8123   25.9008  O     
21   C        43.8068    2.1205   25.3995  C     
22   C        42.2902    2.1856   25.0599  C     
23   H        35.6920    4.7538   22.0148  H     
24   H        37.0938    2.9369   22.3874  H     
25   H        33.4652    3.6287   25.1875  H     
26   H        37.1698    1.1412   25.5614  H     
27   H        39.6882    0.4610   25.1416  H     
28   H        38.7413   -0.3702   22.3404  H     
29   H        36.5411    0.0501   22.8185  H     
30   H        35.5552   -1.0629   24.2713  H     
31   H        38.4217   -2.3031   23.4503  H     
32   H        40.7567    0.7817   22.3820  H     
33   H        40.5663    2.3302   23.1678  H     
34   H        42.7007    1.3064   23.2989  H     
35   H        41.7365   -0.4797   25.4240  H     
36   H        42.1997   -0.9855   23.7851  H     
37   H        44.0606   -1.2112   25.4842  H     
38   H        44.4948   -0.1942   24.1061  H     
39   H        44.0086    2.8577   26.1779  H     
40   H        44.4120    2.3706   24.5212  H     
41   H        42.0700    3.1854   24.6802  H     
42   H        41.7032    2.0257   25.9690  H     
@<TRIPOS>BOND
     1    1    2 2
     2    1    6 1
     3    2    3 1
     4    3    4 1
     5    9    3 1
     6    4    5 1
     7    4    8 2
     8    5    6 1
     9    6    7 2
    10    9   10 1
    11    9   13 1
    12   10   11 1
    13   11   12 1
    14   11   16 1
    15   12   13 1
    16   12   15 1
    17   13   14 1
    18   16   17 1
    19   17   18 1
    20   17   22 1
    21   18   19 1
    22   19   20 1
    23   20   21 1
    24   21   22 1
    25    1   23 1
    26    2   24 1
    27    5   25 1
    28    9   26 1
    29   11   27 1
    30   12   28 1
    31   13   29 1
    32   14   30 1
    33   15   31 1
    34   16   32 1
    35   16   33 1
    36   17   34 1
    37   18   35 1
    38   18   36 1
    39   19   37 1
    40   19   38 1
    41   21   39 1
    42   21   40 1
    43   22   41 1
    44   22   42 1
@<TRIPOS>PROPERTY_DATA
  Total_Score	| 4.4456
  Crash		| -0.8573
  Polar		| 4.6478
  FragIndex	| 1
  FragRMSD	| 0.611

