@<TRIPOS>MOLECULE
BindingDB_50292724
 32 33 0 0 0
SMALL
NO_CHARGES


@<TRIPOS>ATOM
1    C        35.7561    4.3910   23.0789  C     
2    C        36.5767    3.3773   23.4128  C     
3    N        36.2093    2.4346   24.3328  N     
4    C        35.0120    2.5696   24.9474  C     
5    N        34.2096    3.5834   24.6258  N     
6    C        34.5476    4.4748   23.6984  C     
7    O        33.7561    5.3601   23.4117  O     
8    O        34.5791    1.7792   25.7755  O     
9    C        37.0481    1.2670   24.5499  C     
10   O        38.4241    1.5375   24.8307  O     
11   C        39.1496    0.3198   24.5690  C     
12   C        38.3258   -0.5416   23.5606  C     
13   C        37.1098    0.3599   23.3097  C     
14   O        37.2725    1.0597   22.0809  O     
15   O        37.9163   -1.8118   24.1312  O     
16   C        40.5767    0.7060   24.1057  C     
17   O        40.6386    2.0472   23.6256  O     
18   P        37.1019   -2.8209   23.2465  P     
19   O        36.8644   -4.0635   24.1224  O     
20   O        35.6958   -2.3658   22.7643  O     
21   O        37.8684   -3.2927   22.1221  O     
22   H        36.0316    5.0621   22.3990  H     
23   H        37.4569    3.3189   22.9520  H     
24   H        33.3544    3.6733   25.0750  H     
25   H        36.6738    0.6827   25.4017  H     
26   H        39.2467   -0.2227   25.5113  H     
27   H        38.8974   -0.7047   22.6404  H     
28   H        36.2021   -0.2174   23.2586  H     
29   H        36.3652    1.1547   21.7248  H     
30   H        41.2654    0.6221   24.9492  H     
31   H        40.9142    0.0259   23.3207  H     
32   H        40.1138    2.0531   22.7967  H     
@<TRIPOS>BOND
     1    1    2 2
     2    1    6 1
     3    2    3 1
     4    3    4 1
     5    9    3 1
     6    4    5 1
     7    4    8 2
     8    5    6 1
     9    6    7 2
    10    9   10 1
    11    9   13 1
    12   10   11 1
    13   11   12 1
    14   11   16 1
    15   12   13 1
    16   12   15 1
    17   13   14 1
    18   15   18 1
    19   16   17 1
    20   18   19 1
    21   18   20 1
    22   18   21 2
    23    1   22 1
    24    2   23 1
    25    5   24 1
    26    9   25 1
    27   11   26 1
    28   12   27 1
    29   13   28 1
    30   14   29 1
    31   16   30 1
    32   16   31 1
    33   17   32 1
@<TRIPOS>PROPERTY_DATA
  Total_Score	| 4.6678
  Crash		| -0.9301
  Polar		| 5.7555
  FragIndex	| 1
  FragRMSD	| 1.069

