@<TRIPOS>MOLECULE
BindingDB_50118239
 36 37 0 0 0
SMALL
NO_CHARGES


@<TRIPOS>ATOM
1    C        37.0430    1.2405   24.3838  C     
2    C        35.5745    4.2576   22.8418  C     
3    C        36.3707    3.1982   23.0817  C     
4    N        36.0936    2.3024   24.0842  N     
5    C        34.9770    2.4953   24.8200  C     
6    N        34.2071    3.5577   24.5942  N     
7    C        34.4867    4.4353   23.6365  C     
8    O        33.7639    5.4116   23.5050  O     
9    O        34.6135    1.7505   25.7208  O     
10   O        38.3241    1.8184   24.6588  O     
11   C        39.2995    0.7742   24.5383  C     
12   C        38.7208   -0.2940   23.5691  C     
13   C        37.3073    0.2325   23.2436  C     
14   C        40.6445    1.4047   24.0726  C     
15   O        41.7833    0.5857   24.4274  O     
16   O        36.3046   -0.7843   23.1773  O     
17   O        38.6825   -1.5823   24.1846  O     
18   P        42.3274    0.7008   25.8922  P     
19   O        41.4783    1.3920   26.8346  O     
20   O        42.4453   -0.7400   26.4344  O     
21   O        43.7907    1.2135   25.9869  O     
22   P        44.1150    2.4448   25.0890  P     
23   O        44.1156    2.0940   23.5853  O     
24   O        45.4655    2.8392   25.4030  O     
25   O        43.2160    3.6716   25.3583  O     
26   H        36.7484    0.6654   25.2731  H     
27   H        35.7906    4.9029   22.1155  H     
28   H        37.1842    3.0944   22.5175  H     
29   H        33.4339    3.7105   25.1576  H     
30   H        39.4178    0.3447   25.5394  H     
31   H        39.3041   -0.3831   22.6470  H     
32   H        37.3363    0.7406   22.2746  H     
33   H        40.6359    1.4902   22.9843  H     
34   H        40.7460    2.4319   24.4470  H     
35   H        35.5490   -0.3525   22.7192  H     
36   H        39.6224   -1.8363   24.3083  H     
@<TRIPOS>BOND
     1    1    4 1
     2    1   10 1
     3    1   13 1
     4    2    3 2
     5    2    7 1
     6    3    4 1
     7    4    5 1
     8    5    6 1
     9    5    9 2
    10    6    7 1
    11    7    8 2
    12   10   11 1
    13   11   12 1
    14   11   14 1
    15   12   13 1
    16   12   17 1
    17   13   16 1
    18   14   15 1
    19   15   18 1
    20   18   19 2
    21   18   20 1
    22   18   21 1
    23   21   22 1
    24   22   23 1
    25   22   24 2
    26   22   25 1
    27    1   26 1
    28    2   27 1
    29    3   28 1
    30    6   29 1
    31   11   30 1
    32   12   31 1
    33   13   32 1
    34   14   33 1
    35   14   34 1
    36   16   35 1
    37   17   36 1
@<TRIPOS>PROPERTY_DATA
  Total_Score	| 6.0870
  Crash		| -1.3715
  Polar		| 7.0734
  FragIndex	| 1
  FragRMSD	| 0.842

