@<TRIPOS>MOLECULE
BindingDB_50331792
 29 30 0 0 0
SMALL
NO_CHARGES


@<TRIPOS>ATOM
1    O        39.5885   -1.0804   23.4400  O     
2    C        39.1507    0.2785   23.5294  C     
3    C        37.6253    0.4216   23.3223  C     
4    C        39.3765    0.8681   24.9396  C     
5    C        37.1529    1.2867   24.5233  C     
6    O        38.3423    1.8448   25.0983  O     
7    C        40.6795    1.5191   25.1701  C     
8    O        41.0429    1.7244   26.4594  O     
9    N        36.2263    2.3743   24.2236  N     
10   C        35.0412    2.5086   24.8582  C     
11   N        34.2677    3.5635   24.6153  N     
12   C        34.6081    4.5006   23.7350  C     
13   C        35.8098    4.4264   23.0734  C     
14   C        36.5981    3.3588   23.3474  C     
15   O        34.6168    1.7216   25.6962  O     
16   O        33.8282    5.4347   23.5839  O     
17   C        36.2320    5.4791   22.1505  C     
18   O        41.1268    2.4424   24.2853  O     
19   H        39.3666   -1.3536   22.5234  H     
20   H        39.6740    0.8744   22.7697  H     
21   H        37.4252    0.9054   22.3566  H     
22   H        37.1169   -0.5550   23.3273  H     
23   H        39.2411    0.0750   25.6866  H     
24   H        36.7398    0.5965   25.2711  H     
25   H        33.4406    3.6709   25.1075  H     
26   H        37.4865    3.3069   22.9071  H     
27   H        35.4895    5.5949   21.3583  H     
28   H        37.1919    5.2667   21.6723  H     
29   H        36.3180    6.4259   22.6940  H     
@<TRIPOS>BOND
     1    2    1 1
     2    2    3 1
     3    2    4 1
     4    3    5 1
     5    4    6 1
     6    4    7 1
     7    5    6 1
     8    5    9 1
     9    7    8 1
    10    7   18 2
    11    9   10 1
    12    9   14 1
    13   10   11 1
    14   10   15 2
    15   11   12 1
    16   12   13 1
    17   12   16 2
    18   13   14 2
    19   13   17 1
    20    1   19 1
    21    2   20 1
    22    3   21 1
    23    3   22 1
    24    4   23 1
    25    5   24 1
    26   11   25 1
    27   14   26 1
    28   17   27 1
    29   17   28 1
    30   17   29 1
@<TRIPOS>PROPERTY_DATA
  Total_Score	| 3.0823
  Crash		| -0.4560
  Polar		| 3.1500
  FragIndex	| 1
  FragRMSD	| 0.410

