@<TRIPOS>MOLECULE
BindingDB_50292719
 44 46 0 0 0
SMALL
NO_CHARGES


@<TRIPOS>ATOM
1    C        35.8633    3.9671   22.8238  C     
2    C        36.4927    2.8235   23.1610  C     
3    N        36.0666    2.0412   24.2031  N     
4    C        34.9289    2.4018   24.8348  C     
5    N        34.2961    3.5282   24.4947  N     
6    C        34.7531    4.3218   23.5307  C     
7    O        34.1551    5.3621   23.2832  O     
8    O        34.4131    1.7480   25.7285  O     
9    C        36.8591    0.8980   24.6255  C     
10   O        38.2605    1.2617   24.6139  O     
11   C        39.0039    0.3028   23.8419  C     
12   C        37.9858   -0.4385   22.9451  C     
13   C        36.6688   -0.3621   23.7352  C     
14   O        36.4704   -1.5307   24.5418  O     
15   O        38.4110   -1.7694   22.6312  O     
16   C        40.1356    0.9793   23.0070  C     
17   N        40.9342    2.0696   23.6447  N     
18   C        41.6692    1.6255   24.8669  C     
19   C        42.6732    2.7159   25.3146  C     
20   C        41.9306    4.0578   25.5563  C     
21   C        41.1136    4.4905   24.3120  C     
22   C        40.1803    3.3508   23.8365  C     
23   H        36.1979    4.5316   22.0734  H     
24   H        37.2931    2.5693   22.6311  H     
25   H        33.4896    3.7881   24.9748  H     
26   H        36.6335    0.6303   25.6643  H     
27   H        39.4487   -0.4079   24.5472  H     
28   H        37.8370    0.0971   21.9999  H     
29   H        35.8143   -0.2569   23.0509  H     
30   H        35.5234   -1.7666   24.4271  H     
31   H        38.4810   -2.2312   23.4944  H     
32   H        40.8290    0.1938   22.6958  H     
33   H        39.7163    1.3844   22.0791  H     
34   H        41.6573    2.2901   22.9583  H     
35   H        40.9750    1.4190   25.6864  H     
36   H        42.2347    0.7115   24.6612  H     
37   H        43.1700    2.3961   26.2341  H     
38   H        43.4372    2.8569   24.5444  H     
39   H        41.2481    3.9352   26.4033  H     
40   H        42.6571    4.8383   25.8139  H     
41   H        40.5143    5.3710   24.5671  H     
42   H        41.7998    4.7629   23.5073  H     
43   H        39.7311    3.6666   22.8917  H     
44   H        39.3767    3.2173   24.5644  H     
@<TRIPOS>BOND
     1    1    2 2
     2    1    6 1
     3    2    3 1
     4    3    4 1
     5    9    3 1
     6    4    5 1
     7    4    8 2
     8    5    6 1
     9    6    7 2
    10    9   10 1
    11    9   13 1
    12   10   11 1
    13   11   12 1
    14   11   16 1
    15   12   13 1
    16   12   15 1
    17   13   14 1
    18   16   17 1
    19   17   18 1
    20   17   22 1
    21   18   19 1
    22   19   20 1
    23   20   21 1
    24   21   22 1
    25    1   23 1
    26    2   24 1
    27    5   25 1
    28    9   26 1
    29   11   27 1
    30   12   28 1
    31   13   29 1
    32   14   30 1
    33   15   31 1
    34   16   32 1
    35   16   33 1
    36   17   34 1
    37   18   35 1
    38   18   36 1
    39   19   37 1
    40   19   38 1
    41   20   39 1
    42   20   40 1
    43   21   41 1
    44   21   42 1
    45   22   43 1
    46   22   44 1
@<TRIPOS>PROPERTY_DATA
  Total_Score	| 4.3528
  Crash		| -1.1241
  Polar		| 3.7668
  FragIndex	| 1
  FragRMSD	| 0.836

