@<TRIPOS>MOLECULE
BindingDB_50342006
 46 48 0 0 0
SMALL
NO_CHARGES


@<TRIPOS>ATOM
1    C        38.6640   -0.1209   23.2495  C     
2    C        37.1892   -0.1690   23.6958  C     
3    C        37.0775    1.0363   24.6711  C     
4    O        38.4033    1.5797   24.8311  O     
5    C        39.3604    0.5786   24.4374  C     
6    N        36.1699    2.0981   24.2447  N     
7    O        36.8765   -1.3955   24.3681  O     
8    O        39.2356   -1.3969   22.9489  O     
9    C        40.7892    1.1391   24.1150  C     
10   N        40.9057    2.6039   24.3878  N     
11   C        40.4090    3.4676   23.2694  C     
12   C        40.2051    4.9179   23.7707  C     
13   C        41.5008    5.5013   24.4295  C     
14   C        42.1196    4.4762   25.4329  C     
15   C        42.2592    3.0592   24.8329  C     
16   C        41.2397    6.8028   25.0933  C     
17   O        42.1384    7.3169   25.9653  O     
18   O        40.2629    7.6409   24.6549  O     
19   C        36.5049    2.8953   23.1831  C     
20   C        35.7752    3.9767   22.8499  C     
21   C        34.6564    4.2539   23.5715  C     
22   N        34.2907    3.4394   24.5619  N     
23   C        35.0158    2.3725   24.9014  C     
24   O        34.5790    1.6914   25.8207  O     
25   O        33.9768    5.2350   23.3236  O     
26   H        38.7405    0.5079   22.3559  H     
27   H        36.5241   -0.0691   22.8290  H     
28   H        36.8065    0.6548   25.6615  H     
29   H        39.4454   -0.1369   25.2685  H     
30   H        36.9121   -2.0806   23.6695  H     
31   H        39.2234   -1.8936   23.7941  H     
32   H        41.4956    0.5770   24.7372  H     
33   H        41.0753    0.9317   23.0748  H     
34   H        40.2893    2.7749   25.1874  H     
35   H        41.1014    3.4510   22.4162  H     
36   H        39.4291    3.0969   22.9093  H     
37   H        39.9159    5.5446   22.9164  H     
38   H        39.3860    4.9224   24.5001  H     
39   H        42.2359    5.6838   23.6318  H     
40   H        43.1085    4.8184   25.7510  H     
41   H        41.4809    4.4056   26.3208  H     
42   H        42.6628    2.3986   25.6086  H     
43   H        42.9630    3.0716   23.9901  H     
44   H        37.3039    2.6747   22.6202  H     
45   H        36.0488    4.5534   22.0884  H     
46   H        33.4892    3.6509   25.0667  H     
@<TRIPOS>BOND
     1    1    2 1
     2    1    5 1
     3    1    8 1
     4    2    3 1
     5    2    7 1
     6    3    4 1
     7    3    6 1
     8    4    5 1
     9    5    9 1
    10    6   19 1
    11    6   23 1
    12    9   10 1
    13   10   11 1
    14   10   15 1
    15   11   12 1
    16   12   13 1
    17   13   14 1
    18   13   16 1
    19   14   15 1
    20   16   17 1
    21   16   18 2
    22   19   20 2
    23   20   21 1
    24   21   22 1
    25   21   25 2
    26   22   23 1
    27   23   24 2
    28    1   26 1
    29    2   27 1
    30    3   28 1
    31    5   29 1
    32    7   30 1
    33    8   31 1
    34    9   32 1
    35    9   33 1
    36   10   34 1
    37   11   35 1
    38   11   36 1
    39   12   37 1
    40   12   38 1
    41   13   39 1
    42   14   40 1
    43   14   41 1
    44   15   42 1
    45   15   43 1
    46   19   44 1
    47   20   45 1
    48   22   46 1
@<TRIPOS>PROPERTY_DATA
  Total_Score	| 6.2588
  Crash		| -1.2575
  Polar		| 6.3648
  FragIndex	| 1
  FragRMSD	| 0.327

