@<TRIPOS>MOLECULE
BindingDB_50292717
 46 48 0 0 0
SMALL
NO_CHARGES


@<TRIPOS>ATOM
1    C        35.8299    4.4141   23.0672  C     
2    C        36.6629    3.4090   23.4206  C     
3    N        36.3062    2.4528   24.3276  N     
4    C        35.0964    2.5464   24.9159  C     
5    N        34.2829    3.5475   24.6078  N     
6    C        34.6109    4.4612   23.7049  C     
7    O        33.7936    5.3459   23.4916  O     
8    O        34.6585    1.7367   25.7230  O     
9    C        37.2331    1.3750   24.6516  C     
10   O        38.5361    1.8585   25.0026  O     
11   C        39.4572    0.7574   24.8504  C     
12   C        38.9552   -0.0112   23.5967  C     
13   C        37.4583    0.3651   23.5021  C     
14   O        39.1609   -1.4281   23.7220  O     
15   C        40.9372    1.2236   24.7523  C     
16   N        41.0244    2.6526   24.2766  N     
17   C        41.5332    3.5418   25.3685  C     
18   C        41.4958    5.0305   24.9627  C     
19   C        42.3007    5.2359   23.6582  C     
20   C        41.7795    4.3104   22.5339  C     
21   C        41.7410    2.8328   22.9804  C     
22   C        36.2840    5.4314   22.1192  C     
23   H        37.5694    3.3687   23.0056  H     
24   H        33.4360    3.6287   25.0681  H     
25   H        36.8986    0.8027   25.5234  H     
26   H        39.3395    0.1087   25.7336  H     
27   H        39.4766    0.3405   22.6853  H     
28   H        36.8038   -0.5045   23.6271  H     
29   H        37.2597    0.8059   22.5174  H     
30   H        40.1435   -1.5461   23.5891  H     
31   H        41.3871    1.0742   25.7403  H     
32   H        41.4772    0.5271   24.1094  H     
33   H        40.0640    2.9573   24.1002  H     
34   H        40.9222    3.4214   26.2721  H     
35   H        42.5652    3.2710   25.6343  H     
36   H        40.4569    5.3500   24.8206  H     
37   H        41.9277    5.6299   25.7732  H     
38   H        42.2191    6.2793   23.3510  H     
39   H        43.3568    5.0209   23.8556  H     
40   H        40.7807    4.6305   22.2411  H     
41   H        42.4272    4.3974   21.6665  H     
42   H        42.7593    2.4420   23.0473  H     
43   H        41.2158    2.2581   22.2215  H     
44   H        37.1131    5.9919   22.5612  H     
45   H        35.4989    6.1424   21.8486  H     
46   H        36.6381    4.9643   21.1954  H     
@<TRIPOS>BOND
     1    1    2 2
     2    1    6 1
     3    1   22 1
     4    2    3 1
     5    3    4 1
     6    9    3 1
     7    4    5 1
     8    4    8 2
     9    5    6 1
    10    6    7 2
    11    9   10 1
    12    9   13 1
    13   10   11 1
    14   11   12 1
    15   11   15 1
    16   12   13 1
    17   12   14 1
    18   15   16 1
    19   16   17 1
    20   16   21 1
    21   17   18 1
    22   18   19 1
    23   19   20 1
    24   20   21 1
    25    2   23 1
    26    5   24 1
    27    9   25 1
    28   11   26 1
    29   12   27 1
    30   13   28 1
    31   13   29 1
    32   14   30 1
    33   15   31 1
    34   15   32 1
    35   16   33 1
    36   17   34 1
    37   17   35 1
    38   18   36 1
    39   18   37 1
    40   19   38 1
    41   19   39 1
    42   20   40 1
    43   20   41 1
    44   21   42 1
    45   21   43 1
    46   22   44 1
    47   22   45 1
    48   22   46 1
@<TRIPOS>PROPERTY_DATA
  Total_Score	| 3.4414
  Crash		| -0.8101
  Polar		| 1.8802
  FragIndex	| 1
  FragRMSD	| 0.383

