@<TRIPOS>MOLECULE
BindingDB_50292715
 53 55 0 0 0
SMALL
NO_CHARGES


@<TRIPOS>ATOM
1    C        35.6823    4.1423   22.8604  C     
2    C        36.4647    3.0749   23.1312  C     
3    N        36.1656    2.1869   24.1353  N     
4    C        35.0416    2.4071   24.8566  C     
5    N        34.2775    3.4684   24.5931  N     
6    C        34.5703    4.3239   23.6173  C     
7    O        33.8335    5.2814   23.4218  O     
8    O        34.6564    1.6752   25.7607  O     
9    C        37.0842    1.0844   24.4199  C     
10   O        38.3738    1.5978   24.7440  O     
11   C        39.3924    0.6644   24.3468  C     
12   C        38.6903   -0.4913   23.5734  C     
13   C        37.3094    0.0949   23.2530  C     
14   O        36.2554   -0.8668   23.1527  O     
15   O        38.5592   -1.6808   24.3491  O     
16   C        40.4649    1.4367   23.5196  C     
17   N        40.7899    2.7873   24.1240  N     
18   C        42.1690    2.9089   24.6826  C     
19   C        42.3493    4.2455   25.4534  C     
20   C        41.9683    5.4951   24.5991  C     
21   C        40.5482    5.2880   23.9976  C     
22   C        40.4459    3.9450   23.2371  C     
23   C        42.0980    6.7457   25.3896  C     
24   O        43.2736    6.9863   26.0252  O     
25   O        41.0914    7.6489   25.4675  O     
26   C        43.6550    8.1244   26.8083  C     
27   C        43.7201    7.7042   28.2875  C     
28   H        35.9157    4.7636   22.1226  H     
29   H        37.2664    2.9425   22.5615  H     
30   H        33.4942    3.6323   25.1380  H     
31   H        36.7637    0.4958   25.2866  H     
32   H        39.8794    0.2772   25.2486  H     
33   H        39.2162   -0.7504   22.6521  H     
34   H        37.3834    0.6091   22.2865  H     
35   H        35.5245   -0.3682   22.7070  H     
36   H        39.4510   -2.0872   24.3558  H     
37   H        41.3487    0.8059   23.4160  H     
38   H        40.0555    1.5493   22.5073  H     
39   H        40.1810    2.8950   24.9373  H     
40   H        42.3558    2.0891   25.3795  H     
41   H        42.9110    2.8536   23.8763  H     
42   H        41.7123    4.2142   26.3406  H     
43   H        43.3904    4.3219   25.7826  H     
44   H        42.6745    5.5784   23.7680  H     
45   H        39.7969    5.3068   24.7949  H     
46   H        40.3142    6.1066   23.3036  H     
47   H        41.0995    3.9637   22.3558  H     
48   H        39.4156    3.8567   22.9003  H     
49   H        44.6434    8.4515   26.4688  H     
50   H        42.9656    8.9634   26.6966  H     
51   H        42.7460    7.3264   28.6108  H     
52   H        43.9856    8.5642   28.9054  H     
53   H        44.4666    6.9216   28.4268  H     
@<TRIPOS>BOND
     1    1    2 2
     2    1    6 1
     3    2    3 1
     4    3    4 1
     5    9    3 1
     6    4    5 1
     7    4    8 2
     8    5    6 1
     9    6    7 2
    10    9   10 1
    11    9   13 1
    12   10   11 1
    13   11   12 1
    14   11   16 1
    15   12   13 1
    16   12   15 1
    17   13   14 1
    18   16   17 1
    19   17   18 1
    20   17   22 1
    21   18   19 1
    22   19   20 1
    23   20   21 1
    24   20   23 1
    25   21   22 1
    26   23   24 1
    27   23   25 2
    28   24   26 1
    29   26   27 1
    30    1   28 1
    31    2   29 1
    32    5   30 1
    33    9   31 1
    34   11   32 1
    35   12   33 1
    36   13   34 1
    37   14   35 1
    38   15   36 1
    39   16   37 1
    40   16   38 1
    41   17   39 1
    42   18   40 1
    43   18   41 1
    44   19   42 1
    45   19   43 1
    46   20   44 1
    47   21   45 1
    48   21   46 1
    49   22   47 1
    50   22   48 1
    51   26   49 1
    52   26   50 1
    53   27   51 1
    54   27   52 1
    55   27   53 1
@<TRIPOS>PROPERTY_DATA
  Total_Score	| 5.6912
  Crash		| -1.1458
  Polar		| 4.9872
  FragIndex	| 1
  FragRMSD	| 0.696

