@<TRIPOS>MOLECULE
BindingDB_50292722
 32 33 0 0 0
SMALL
NO_CHARGES


@<TRIPOS>ATOM
1    O        40.7119    2.5355   24.3296  O     
2    C        40.6226    1.1111   24.1097  C     
3    C        39.2910    0.5459   24.6473  C     
4    C        38.6573   -0.5625   23.7536  C     
5    O        38.4135   -1.7477   24.5268  O     
6    C        37.3048    0.0839   23.3424  C     
7    O        36.2049   -0.8218   23.2144  O     
8    C        37.0597    1.1143   24.4640  C     
9    O        38.3565    1.6292   24.7526  O     
10   N        36.1311    2.1841   24.1380  N     
11   C        35.0073    2.4165   24.8474  C     
12   O        34.6180    1.6894   25.7502  O     
13   N        34.2635    3.4948   24.5987  N     
14   C        34.5726    4.3464   23.6203  C     
15   C        35.6677    4.1289   22.8504  C     
16   C        36.4428    3.0547   23.1237  C     
17   P        38.5329   -3.1526   23.8862  P     
18   O        37.3243   -3.9786   24.3550  O     
19   O        39.7148   -3.8253   24.3605  O     
20   O        38.5092   -3.1689   22.3506  O     
21   O        33.8695    5.3387   23.4611  O     
22   H        41.2875    2.6684   25.1438  H     
23   H        40.6939    0.9191   23.0276  H     
24   H        41.4850    0.6220   24.5961  H     
25   H        39.4661    0.1733   25.6553  H     
26   H        39.2859   -0.7442   22.8794  H     
27   H        37.4420    0.6005   22.3749  H     
28   H        35.5374   -0.3322   22.6927  H     
29   H        36.7102    0.5590   25.3413  H     
30   H        33.4822    3.6727   25.1498  H     
31   H        35.8956    4.7563   22.1145  H     
32   H        37.2666    2.9092   22.5759  H     
@<TRIPOS>BOND
     1    1    2 1
     2    3    2 1
     3    3    4 1
     4    3    9 1
     5    4    5 1
     6    4    6 1
     7    5   17 1
     8    6    7 1
     9    6    8 1
    10    8    9 1
    11    8   10 1
    12   10   11 1
    13   10   16 1
    14   11   12 2
    15   11   13 1
    16   13   14 1
    17   14   15 1
    18   14   21 2
    19   15   16 2
    20   17   18 1
    21   17   19 2
    22   17   20 1
    23    1   22 1
    24    2   23 1
    25    2   24 1
    26    3   25 1
    27    4   26 1
    28    6   27 1
    29    7   28 1
    30    8   29 1
    31   13   30 1
    32   15   31 1
    33   16   32 1
@<TRIPOS>PROPERTY_DATA
  Total_Score	| 4.1952
  Crash		| -0.6649
  Polar		| 4.7024
  FragIndex	| 1
  FragRMSD	| 0.678

