@<TRIPOS>MOLECULE
BindingDB_50184258
 59 61 0 0 0
SMALL
NO_CHARGES


@<TRIPOS>ATOM
1    C        20.4703  -15.7757   17.7456  C     
2    C        21.3839  -14.8125   18.5640  C     
3    C        22.3495  -13.9847   17.6697  C     
4    O        23.5309  -14.7167   17.2669  O     
5    C        24.5909  -14.7119   18.1325  C     
6    C        25.0386  -15.9189   18.7596  C     
7    C        26.4203  -13.4470   19.2017  C     
8    C        25.3052  -13.5011   18.3468  C     
9    C        24.3651  -17.2328   18.5921  C     
10   C        25.2498  -18.3593   17.9786  C     
11   C        24.5690  -19.7482   18.0430  C     
12   C        26.8239  -14.6250   19.8481  C     
13   C        26.1409  -15.8183   19.6380  C     
14   O        26.7245  -16.7662   20.4060  O     
15   N        27.7279  -16.2241   21.0531  N     
16   C        27.8482  -14.9225   20.7435  C     
17   C        28.8821  -14.0063   21.2688  C     
18   F        29.7553  -14.6538   22.1061  F     
19   F        29.6052  -13.4688   20.2341  F     
20   F        28.2896  -12.9940   21.9743  F     
21   N        19.6643  -16.7029   18.5175  N     
22   C        18.3107  -16.5079   18.6894  C     
23   C        20.3257  -17.8779   19.0359  C     
24   C        17.8804  -15.2622   19.2095  C     
25   C        16.5292  -14.9738   19.4508  C     
26   C        15.5353  -15.9192   19.1531  C     
27   C        15.9375  -17.1550   18.5980  C     
28   C        17.3028  -17.4715   18.3703  C     
29   C        14.1014  -15.6128   19.4037  C     
30   C        13.3873  -15.3811   18.1412  C     
31   O        13.6218  -14.2294   17.4596  O     
32   O        12.9180  -16.4278   17.4407  O     
33   C        17.6173  -18.7648   17.7104  C     
34   H        19.8286  -15.1606   17.1091  H     
35   H        21.1033  -16.3449   17.0582  H     
36   H        20.7519  -14.1112   19.1121  H     
37   H        21.9664  -15.3615   19.3080  H     
38   H        21.8262  -13.6902   16.7570  H     
39   H        22.6062  -13.0545   18.1796  H     
40   H        26.9232  -12.5650   19.3502  H     
41   H        25.0080  -12.6446   17.8753  H     
42   H        24.0248  -17.5561   19.5816  H     
43   H        23.4806  -17.1370   17.9627  H     
44   H        25.4701  -18.1256   16.9312  H     
45   H        26.2036  -18.4240   18.5103  H     
46   H        24.2900  -19.9897   19.0721  H     
47   H        25.2549  -20.5170   17.6819  H     
48   H        23.6727  -19.7662   17.4206  H     
49   H        20.6863  -18.5032   18.2159  H     
50   H        19.6785  -18.4844   19.6720  H     
51   H        21.1870  -17.5858   19.6421  H     
52   H        18.5596  -14.5497   19.4809  H     
53   H        16.2829  -14.0650   19.8620  H     
54   H        15.2110  -17.8360   18.3584  H     
55   H        13.6372  -16.4410   19.9418  H     
56   H        13.9792  -14.7263   20.0291  H     
57   H        18.2671  -18.5906   16.8514  H     
58   H        16.7238  -19.2830   17.3460  H     
59   H        18.1230  -19.4337   18.4104  H     
@<TRIPOS>BOND
     1    1    2 1
     2    1   21 1
     3    2    3 1
     4    3    4 1
     5    4    5 1
     6    5    6 2
     7    5    8 1
     8    6    9 1
     9    6   13 1
    10    7    8 2
    11    7   12 1
    12    9   10 1
    13   10   11 1
    14   12   13 2
    15   12   16 1
    16   13   14 1
    17   14   15 1
    18   15   16 2
    19   16   17 1
    20   17   18 1
    21   17   19 1
    22   17   20 1
    23   21   22 1
    24   21   23 1
    25   22   24 2
    26   22   28 1
    27   24   25 1
    28   25   26 2
    29   26   27 1
    30   26   29 1
    31   27   28 2
    32   28   33 1
    33   29   30 1
    34   30   31 1
    35   30   32 2
    36    1   34 1
    37    1   35 1
    38    2   36 1
    39    2   37 1
    40    3   38 1
    41    3   39 1
    42    7   40 1
    43    8   41 1
    44    9   42 1
    45    9   43 1
    46   10   44 1
    47   10   45 1
    48   11   46 1
    49   11   47 1
    50   11   48 1
    51   23   49 1
    52   23   50 1
    53   23   51 1
    54   24   52 1
    55   25   53 1
    56   27   54 1
    57   29   55 1
    58   29   56 1
    59   33   57 1
    60   33   58 1
    61   33   59 1
@<TRIPOS>PROPERTY_DATA
  Total_Score	| 11.8969
  Crash		| -1.6878
  Polar		| 4.8518
  FragIndex	| 1
  FragRMSD	| 0.793

