@<TRIPOS>MOLECULE
BindingDB_50184266
 59 61 0 0 0
SMALL
NO_CHARGES


@<TRIPOS>ATOM
1    C        15.5679  -16.6931   18.2540  C     
2    C        15.2229  -15.6215   19.1055  C     
3    C        16.2631  -14.7573   19.5258  C     
4    C        17.5856  -14.9586   19.1033  C     
5    C        17.9609  -16.0209   18.2245  C     
6    C        16.8958  -16.8915   17.8381  C     
7    N        19.2715  -16.2014   17.8109  N     
8    C        13.8274  -15.4260   19.5596  C     
9    C        12.8981  -15.3085   18.4236  C     
10   O        12.6211  -16.3797   17.6467  O     
11   O        12.3599  -14.1087   18.0986  O     
12   C        20.1354  -15.0828   17.4400  C     
13   C        21.0973  -14.6408   18.5925  C     
14   C        22.3015  -13.7800   18.1044  C     
15   O        23.3741  -14.6001   17.5536  O     
16   C        24.5300  -14.6433   18.2953  C     
17   C        25.0185  -15.8792   18.8115  C     
18   C        26.4407  -13.4377   19.2833  C     
19   C        25.2708  -13.4455   18.5004  C     
20   C        24.3519  -17.1936   18.6096  C     
21   C        25.3144  -18.3012   18.0877  C     
22   C        24.6848  -19.7107   18.1289  C     
23   C        26.8828  -14.6514   19.8379  C     
24   C        26.1896  -15.8308   19.5948  C     
25   O        26.8360  -16.8188   20.2554  O     
26   N        27.8710  -16.3190   20.8771  N     
27   C        27.9574  -14.9932   20.6538  C     
28   C        28.9891  -14.1119   21.2329  C     
29   F        29.9427  -14.8290   21.9204  F     
30   F        29.6251  -13.3971   20.2449  F     
31   F        28.3925  -13.2421   22.1126  F     
32   C        19.8634  -17.5316   17.6699  C     
33   C        20.2477  -18.1747   19.0365  C     
34   H        14.8467  -17.3498   17.9385  H     
35   H        16.0596  -13.9866   20.1712  H     
36   H        18.2862  -14.3198   19.4794  H     
37   H        17.0703  -17.6870   17.2233  H     
38   H        13.5253  -16.2680   20.1852  H     
39   H        13.7443  -14.5301   20.1745  H     
40   H        20.7262  -15.3488   16.5596  H     
41   H        19.5460  -14.2154   17.1256  H     
42   H        20.5087  -14.0467   19.3095  H     
43   H        21.4796  -15.5246   19.1273  H     
44   H        21.9587  -13.0964   17.3193  H     
45   H        22.6264  -13.1538   18.9451  H     
46   H        26.9437  -12.5605   19.4548  H     
47   H        24.9383  -12.5649   18.0908  H     
48   H        23.9217  -17.5134   19.5643  H     
49   H        23.5260  -17.0999   17.9012  H     
50   H        25.5966  -18.0725   17.0583  H     
51   H        26.2288  -18.3200   18.6891  H     
52   H        24.4473  -19.9904   19.1606  H     
53   H        25.3911  -20.4432   17.7281  H     
54   H        23.7742  -19.7401   17.5330  H     
55   H        19.1739  -18.1874   17.1304  H     
56   H        20.7803  -17.5133   17.0599  H     
57   H        21.0677  -17.5868   19.4768  H     
58   H        20.5865  -19.2034   18.8692  H     
59   H        19.3890  -18.1864   19.7236  H     
@<TRIPOS>BOND
     1    1    2 2
     2    1    6 1
     3    2    3 1
     4    2    8 1
     5    3    4 2
     6    4    5 1
     7    5    6 2
     8    5    7 1
     9    7   12 1
    10    7   32 1
    11    8    9 1
    12    9   10 1
    13    9   11 2
    14   12   13 1
    15   13   14 1
    16   14   15 1
    17   15   16 1
    18   16   17 2
    19   16   19 1
    20   17   20 1
    21   17   24 1
    22   18   19 2
    23   18   23 1
    24   20   21 1
    25   21   22 1
    26   23   24 2
    27   23   27 1
    28   24   25 1
    29   25   26 1
    30   26   27 2
    31   27   28 1
    32   28   29 1
    33   28   30 1
    34   28   31 1
    35   32   33 1
    36    1   34 1
    37    3   35 1
    38    4   36 1
    39    6   37 1
    40    8   38 1
    41    8   39 1
    42   12   40 1
    43   12   41 1
    44   13   42 1
    45   13   43 1
    46   14   44 1
    47   14   45 1
    48   18   46 1
    49   19   47 1
    50   20   48 1
    51   20   49 1
    52   21   50 1
    53   21   51 1
    54   22   52 1
    55   22   53 1
    56   22   54 1
    57   32   55 1
    58   32   56 1
    59   33   57 1
    60   33   58 1
    61   33   59 1
@<TRIPOS>PROPERTY_DATA
  Total_Score	| 9.7378
  Crash		| -2.0163
  Polar		| 3.2760
  FragIndex	| 1
  FragRMSD	| 0.696

