@<TRIPOS>MOLECULE
BindingDB_50184271
 54 56 0 0 0
SMALL
NO_CHARGES


@<TRIPOS>ATOM
1    C        16.4732  -17.6814   18.1458  C     
2    C        15.8459  -16.4096   18.1530  C     
3    C        16.6372  -15.2663   17.9161  C     
4    C        18.0293  -15.3934   17.6464  C     
5    C        18.6586  -16.6538   17.6951  C     
6    C        17.8562  -17.7949   17.9478  C     
7    C        20.1277  -16.8480   17.4946  C     
8    C        14.4055  -16.2722   18.4711  C     
9    C        13.6810  -15.4355   17.5102  C     
10   O        13.1046  -15.9888   16.4001  O     
11   O        13.8307  -14.1027   17.5099  O     
12   C        20.9728  -15.6451   17.0094  C     
13   C        21.0894  -14.4376   17.9789  C     
14   C        22.3977  -14.4010   18.8034  C     
15   O        23.5181  -14.5566   17.9222  O     
16   C        24.7181  -14.6259   18.5686  C     
17   C        25.4333  -15.8538   18.6338  C     
18   C        26.4867  -13.4627   19.8104  C     
19   C        25.2533  -13.4404   19.1343  C     
20   C        24.9664  -17.1307   18.0088  C     
21   C        24.3520  -18.1296   19.0339  C     
22   C        24.4067  -19.6032   18.5663  C     
23   C        27.1880  -14.6772   19.8711  C     
24   C        26.6759  -15.8337   19.2984  C     
25   O        27.5762  -16.8214   19.4939  O     
26   N        28.6041  -16.3379   20.1479  N     
27   C        28.4197  -15.0268   20.4085  C     
28   C        29.3620  -14.1391   21.1110  C     
29   F        30.5160  -14.7964   21.4553  F     
30   F        29.7012  -13.0825   20.3010  F     
31   F        28.7782  -13.6583   22.2575  F     
32   H        15.9178  -18.5233   18.3251  H     
33   H        16.2427  -14.3299   17.9313  H     
34   H        18.5371  -14.5464   17.4298  H     
35   H        18.2786  -18.7265   17.9931  H     
36   H        20.5562  -17.2126   18.4317  H     
37   H        20.2536  -17.6425   16.7517  H     
38   H        13.9120  -17.2456   18.5176  H     
39   H        14.3081  -15.8208   19.4627  H     
40   H        21.9921  -16.0307   16.7769  H     
41   H        20.5938  -15.3067   16.0509  H     
42   H        21.0481  -13.5134   17.3943  H     
43   H        20.2615  -14.4016   18.6842  H     
44   H        22.4420  -13.4231   19.3061  H     
45   H        22.3652  -15.1872   19.5742  H     
46   H        26.8643  -12.6144   20.2408  H     
47   H        24.7419  -12.5571   19.0675  H     
48   H        24.2255  -16.9296   17.2335  H     
49   H        25.8153  -17.5984   17.5071  H     
50   H        24.8861  -18.0618   19.9858  H     
51   H        23.3099  -17.8595   19.2158  H     
52   H        23.8921  -19.7265   17.6100  H     
53   H        23.9162  -20.2427   19.3067  H     
54   H        25.4398  -19.9366   18.4593  H     
@<TRIPOS>BOND
     1    1    2 2
     2    1    6 1
     3    2    3 1
     4    2    8 1
     5    3    4 2
     6    4    5 1
     7    5    6 2
     8    5    7 1
     9    7   12 1
    10    8    9 1
    11    9   10 1
    12    9   11 2
    13   12   13 1
    14   13   14 1
    15   14   15 1
    16   15   16 1
    17   16   17 2
    18   16   19 1
    19   17   20 1
    20   17   24 1
    21   18   19 2
    22   18   23 1
    23   20   21 1
    24   21   22 1
    25   23   24 2
    26   23   27 1
    27   24   25 1
    28   25   26 1
    29   26   27 2
    30   27   28 1
    31   28   29 1
    32   28   30 1
    33   28   31 1
    34    1   32 1
    35    3   33 1
    36    4   34 1
    37    6   35 1
    38    7   36 1
    39    7   37 1
    40    8   38 1
    41    8   39 1
    42   12   40 1
    43   12   41 1
    44   13   42 1
    45   13   43 1
    46   14   44 1
    47   14   45 1
    48   18   46 1
    49   19   47 1
    50   20   48 1
    51   20   49 1
    52   21   50 1
    53   21   51 1
    54   22   52 1
    55   22   53 1
    56   22   54 1
@<TRIPOS>PROPERTY_DATA
  Total_Score	| 9.8040
  Crash		| -1.0170
  Polar		| 2.9521
  FragIndex	| 1
  FragRMSD	| 0.204

