@<TRIPOS>MOLECULE
BindingDB_50184263
 52 54 0 0 0
SMALL
NO_CHARGES


@<TRIPOS>ATOM
1    C        16.4557  -14.9853   17.6505  C     
2    C        15.8710  -16.1327   18.2314  C     
3    C        16.7069  -17.2607   18.4631  C     
4    C        18.0922  -17.2102   18.1902  C     
5    C        18.6724  -16.0160   17.6859  C     
6    C        17.8316  -14.9191   17.4034  C     
7    O        20.0300  -15.9182   17.3889  O     
8    C        14.4486  -16.1413   18.6837  C     
9    C        13.4887  -15.6293   17.7006  C     
10   O        12.4968  -16.3984   17.1984  O     
11   O        13.4719  -14.2804   17.4816  O     
12   Cl       19.0250  -18.5956   18.4735  Cl    
13   C        20.9260  -15.7727   18.5118  C     
14   C        21.5993  -14.3730   18.5888  C     
15   C        22.4342  -13.9788   17.3454  C     
16   O        23.6981  -14.6601   17.1941  O     
17   C        24.6993  -14.6464   18.1354  C     
18   C        25.3307  -15.8820   18.4639  C     
19   C        26.3710  -13.4275   19.4926  C     
20   C        25.2379  -13.4295   18.6498  C     
21   C        24.8838  -17.2004   17.9413  C     
22   C        24.3458  -18.1410   19.0580  C     
23   C        24.3553  -19.6374   18.6606  C     
24   C        26.9903  -14.6533   19.7909  C     
25   C        26.4714  -15.8431   19.2963  C     
26   O        27.2647  -16.8506   19.7302  O     
27   N        28.2385  -16.3465   20.4447  N     
28   C        28.1321  -15.0032   20.5056  C     
29   C        29.0971  -14.1079   21.1619  C     
30   F        30.1393  -14.8116   21.7181  F     
31   F        29.6213  -13.2221   20.2498  F     
32   F        28.4683  -13.4106   22.1614  F     
33   H        15.8759  -14.1940   17.3798  H     
34   H        16.3108  -18.1108   18.8592  H     
35   H        18.2398  -14.0594   17.0005  H     
36   H        14.1412  -17.1534   18.9894  H     
37   H        14.3825  -15.5051   19.5759  H     
38   H        20.4453  -15.9777   19.4756  H     
39   H        21.7048  -16.5240   18.3824  H     
40   H        20.8134  -13.6275   18.7419  H     
41   H        22.2614  -14.3397   19.4655  H     
42   H        21.8377  -14.2017   16.4587  H     
43   H        22.6034  -12.8970   17.3433  H     
44   H        26.7540  -12.5493   19.8665  H     
45   H        24.8255  -12.5270   18.4059  H     
46   H        24.1045  -17.0862   17.1854  H     
47   H        25.7292  -17.6929   17.4450  H     
48   H        24.9540  -18.0217   19.9583  H     
49   H        23.3221  -17.8583   19.3126  H     
50   H        23.6966  -19.8040   17.8079  H     
51   H        24.0038  -20.2430   19.4960  H     
52   H        25.3645  -19.9602   18.4005  H     
@<TRIPOS>BOND
     1    1    2 2
     2    1    6 1
     3    2    3 1
     4    2    8 1
     5    3    4 2
     6    4    5 1
     7    4   12 1
     8    5    6 2
     9    5    7 1
    10    7   13 1
    11    8    9 1
    12    9   10 1
    13    9   11 2
    14   13   14 1
    15   14   15 1
    16   15   16 1
    17   16   17 1
    18   17   18 2
    19   17   20 1
    20   18   21 1
    21   18   25 1
    22   19   20 2
    23   19   24 1
    24   21   22 1
    25   22   23 1
    26   24   25 2
    27   24   28 1
    28   25   26 1
    29   26   27 1
    30   27   28 2
    31   28   29 1
    32   29   30 1
    33   29   31 1
    34   29   32 1
    35    1   33 1
    36    3   34 1
    37    6   35 1
    38    8   36 1
    39    8   37 1
    40   13   38 1
    41   13   39 1
    42   14   40 1
    43   14   41 1
    44   15   42 1
    45   15   43 1
    46   19   44 1
    47   20   45 1
    48   21   46 1
    49   21   47 1
    50   22   48 1
    51   22   49 1
    52   23   50 1
    53   23   51 1
    54   23   52 1
@<TRIPOS>PROPERTY_DATA
  Total_Score	| 9.1377
  Crash		| -1.0219
  Polar		| 3.3583
  FragIndex	| 1
  FragRMSD	| 0.557

