@<TRIPOS>MOLECULE
BindingDB_50184260
 56 58 0 0 0
SMALL
NO_CHARGES


@<TRIPOS>ATOM
1    C        16.6296  -14.8106   19.5105  C     
2    C        15.6561  -15.7961   19.2303  C     
3    C        16.0770  -17.0041   18.6324  C     
4    C        17.4335  -17.2329   18.3233  C     
5    C        18.4071  -16.2439   18.6093  C     
6    C        17.9835  -15.0341   19.2072  C     
7    N        19.7384  -16.4434   18.3761  N     
8    C        14.2164  -15.5609   19.5209  C     
9    C        13.4584  -15.3663   18.2727  C     
10   O        13.5967  -14.2026   17.5901  O     
11   O        12.9792  -16.4323   17.6031  O     
12   C        20.3841  -15.8569   17.2169  C     
13   C        21.0324  -14.4663   17.4390  C     
14   C        22.2627  -14.4331   18.3760  C     
15   O        23.4746  -14.6142   17.6185  O     
16   C        24.6204  -14.6444   18.3655  C     
17   C        25.1416  -15.8802   18.8391  C     
18   C        26.4712  -13.4113   19.4169  C     
19   C        25.3023  -13.4300   18.6311  C     
20   C        24.5200  -17.2074   18.5673  C     
21   C        25.4882  -18.2385   17.9247  C     
22   C        24.9374  -19.6821   17.9848  C     
23   C        26.9589  -14.6300   19.9140  C     
24   C        26.3075  -15.8244   19.6321  C     
25   O        26.9917  -16.8251   20.2359  O     
26   N        28.0168  -16.3102   20.8677  N     
27   C        28.0605  -14.9731   20.6941  C     
28   C        29.0776  -14.0773   21.2709  C     
29   F        30.0304  -14.7723   21.9723  F     
30   F        29.7170  -13.3737   20.2823  F     
31   F        28.4649  -13.2100   22.1357  F     
32   Cl       17.8255  -18.7057   17.5748  Cl    
33   C        20.4586  -17.2897   19.2970  C     
34   H        16.3587  -13.9191   19.9344  H     
35   H        15.3836  -17.7274   18.4139  H     
36   H        18.6637  -14.3148   19.4558  H     
37   H        13.8089  -16.4130   20.0743  H     
38   H        14.0706  -14.6771   20.1468  H     
39   H        21.1433  -16.5390   16.8165  H     
40   H        19.6487  -15.7418   16.4190  H     
41   H        21.3308  -14.0567   16.4698  H     
42   H        20.2782  -13.7920   17.8361  H     
43   H        22.2851  -13.4565   18.8682  H     
44   H        22.1631  -15.1980   19.1583  H     
45   H        26.9418  -12.5297   19.6360  H     
46   H        24.9434  -12.5488   18.2574  H     
47   H        24.1479  -17.6105   19.5081  H     
48   H        23.6606  -17.0972   17.9004  H     
49   H        25.6578  -17.9739   16.8749  H     
50   H        26.4523  -18.2231   18.4379  H     
51   H        24.7734  -19.9855   19.0192  H     
52   H        25.6565  -20.3719   17.5344  H     
53   H        23.9900  -19.7509   17.4385  H     
54   H        20.4430  -16.8403   20.2886  H     
55   H        21.5001  -17.4310   19.0106  H     
56   H        20.0010  -18.2795   19.3629  H     
@<TRIPOS>BOND
     1    1    2 2
     2    1    6 1
     3    2    3 1
     4    2    8 1
     5    3    4 2
     6    4    5 1
     7    4   32 1
     8    5    6 2
     9    5    7 1
    10    7   12 1
    11    7   33 1
    12    8    9 1
    13    9   10 1
    14    9   11 2
    15   12   13 1
    16   13   14 1
    17   14   15 1
    18   15   16 1
    19   16   17 2
    20   16   19 1
    21   17   20 1
    22   17   24 1
    23   18   19 2
    24   18   23 1
    25   20   21 1
    26   21   22 1
    27   23   24 2
    28   23   27 1
    29   24   25 1
    30   25   26 1
    31   26   27 2
    32   27   28 1
    33   28   29 1
    34   28   30 1
    35   28   31 1
    36    1   34 1
    37    3   35 1
    38    6   36 1
    39    8   37 1
    40    8   38 1
    41   12   39 1
    42   12   40 1
    43   13   41 1
    44   13   42 1
    45   14   43 1
    46   14   44 1
    47   18   45 1
    48   19   46 1
    49   20   47 1
    50   20   48 1
    51   21   49 1
    52   21   50 1
    53   22   51 1
    54   22   52 1
    55   22   53 1
    56   33   54 1
    57   33   55 1
    58   33   56 1
@<TRIPOS>PROPERTY_DATA
  Total_Score	| 9.9206
  Crash		| -1.8370
  Polar		| 4.5271
  FragIndex	| 1
  FragRMSD	| 0.630

