@<TRIPOS>MOLECULE
BindingDB_50184269
 51 53 0 0 0
SMALL
NO_CHARGES


@<TRIPOS>ATOM
1    C        17.0502  -16.8744   18.6976  C     
2    C        17.2703  -18.0494   19.4272  C     
3    C        18.5651  -18.6041   19.4581  C     
4    C        19.6100  -17.9945   18.7452  C     
5    C        19.4281  -16.8101   17.9645  C     
6    C        18.1045  -16.2687   17.9928  C     
7    N        20.4561  -16.2351   17.2214  N     
8    C        20.4718  -14.8001   16.9351  C     
9    C        21.4808  -17.0656   16.6193  C     
10   C        21.7586  -13.9383   16.7320  C     
11   C        22.7051  -13.7336   17.9487  C     
12   O        23.2839  -14.9552   18.4656  O     
13   C        24.5701  -14.8964   18.9985  C     
14   C        25.4414  -16.0264   18.8469  C     
15   C        26.3432  -13.6806   20.2238  C     
16   C        25.0305  -13.7587   19.7261  C     
17   C        24.9171  -17.2948   18.2476  C     
18   C        25.8914  -18.4751   17.9575  C     
19   C        25.1596  -19.8351   17.8165  C     
20   C        27.1999  -14.7761   20.0197  C     
21   C        26.7548  -15.9251   19.3696  C     
22   O        27.7872  -16.8026   19.3688  O     
23   N        28.8206  -16.2523   19.9454  N     
24   C        28.5296  -15.0023   20.3584  C     
25   C        29.4706  -14.0941   21.0519  C     
26   F        30.7488  -14.6086   21.0771  F     
27   F        29.5192  -12.8835   20.4057  F     
28   F        29.0589  -13.9062   22.3478  F     
29   H        16.1127  -16.4685   18.6741  H     
30   H        16.5065  -18.5064   19.9223  H     
31   H        18.7384  -19.4549   20.0030  H     
32   H        20.5361  -18.4354   18.8185  H     
33   H        17.8619  -15.4298   17.4619  H     
34   H        19.8763  -14.6708   16.0298  H     
35   H        19.9439  -14.3008   17.7464  H     
36   H        22.2271  -17.3469   17.3719  H     
37   H        21.9780  -16.6090   15.7713  H     
38   H        21.0320  -17.9757   16.2011  H     
39   H        22.3379  -14.3005   15.8903  H     
40   H        21.4238  -12.9335   16.4369  H     
41   H        23.4860  -13.0351   17.6032  H     
42   H        22.1542  -13.2418   18.7573  H     
43   H        26.6679  -12.8437   20.7221  H     
44   H        24.4086  -12.9676   19.9004  H     
45   H        24.1353  -17.6701   18.9288  H     
46   H        24.4318  -17.0578   17.2861  H     
47   H        26.4341  -18.2802   17.0235  H     
48   H        26.6093  -18.5841   18.7781  H     
49   H        24.6442  -20.0974   18.7474  H     
50   H        25.8846  -20.6166   17.5872  H     
51   H        24.4300  -19.7896   17.0052  H     
@<TRIPOS>BOND
     1    1    2 2
     2    1    6 1
     3    2    3 1
     4    3    4 2
     5    4    5 1
     6    5    6 2
     7    5    7 1
     8    7    8 1
     9    7    9 1
    10    8   10 1
    11   10   11 1
    12   11   12 1
    13   12   13 1
    14   13   14 2
    15   13   16 1
    16   14   17 1
    17   14   21 1
    18   15   16 2
    19   15   20 1
    20   17   18 1
    21   18   19 1
    22   20   21 2
    23   20   24 1
    24   21   22 1
    25   22   23 1
    26   23   24 2
    27   24   25 1
    28   25   26 1
    29   25   27 1
    30   25   28 1
    31    1   29 1
    32    2   30 1
    33    3   31 1
    34    4   32 1
    35    6   33 1
    36    8   34 1
    37    8   35 1
    38    9   36 1
    39    9   37 1
    40    9   38 1
    41   10   39 1
    42   10   40 1
    43   11   41 1
    44   11   42 1
    45   15   43 1
    46   16   44 1
    47   17   45 1
    48   17   46 1
    49   18   47 1
    50   18   48 1
    51   19   49 1
    52   19   50 1
    53   19   51 1
@<TRIPOS>PROPERTY_DATA
  Total_Score	| 7.9812
  Crash		| -1.4018
  Polar		| 0.0030
  FragIndex	| 1
  FragRMSD	| 0.807

