@<TRIPOS>MOLECULE
BindingDB_50184261
 52 54 0 0 0
SMALL
NO_CHARGES


@<TRIPOS>ATOM
1    C        15.5254  -14.3765   19.9580  C     
2    C        14.9876  -14.5219   18.6602  C     
3    C        15.8777  -14.8332   17.5998  C     
4    C        17.2645  -14.9802   17.8318  C     
5    C        17.8028  -14.7748   19.1178  C     
6    C        16.9113  -14.4838   20.1740  C     
7    O        19.1556  -14.7888   19.3807  O     
8    C        13.5425  -14.3055   18.3847  C     
9    C        12.9200  -15.4855   17.7555  C     
10   O        13.2239  -15.7888   16.4690  O     
11   O        12.3251  -16.4383   18.5119  O     
12   C        20.0639  -14.9094   18.2683  C     
13   C        21.5013  -14.4553   18.6699  C     
14   C        22.3872  -14.0022   17.4621  C     
15   O        23.5629  -14.8062   17.2360  O     
16   C        24.5954  -14.7437   18.1459  C     
17   C        25.0823  -15.9456   18.7394  C     
18   C        26.3946  -13.4502   19.2311  C     
19   C        25.2613  -13.5134   18.3939  C     
20   C        24.4513  -17.2815   18.5470  C     
21   C        25.4611  -18.3726   18.0979  C     
22   C        24.8699  -19.8012   18.1279  C     
23   C        26.8621  -14.6397   19.8112  C     
24   C        26.2207  -15.8527   19.5696  C     
25   O        26.8762  -16.8175   20.2493  O     
26   N        27.8663  -16.2612   20.9015  N     
27   C        27.9185  -14.9344   20.6634  C     
28   C        28.8819  -13.9973   21.2729  C     
29   F        29.7906  -14.6528   22.0748  F     
30   F        29.5788  -13.3216   20.3002  F     
31   F        28.1938  -13.0962   22.0497  F     
32   H        14.9189  -14.1504   20.7497  H     
33   H        15.5201  -14.9266   16.6436  H     
34   H        17.8703  -15.2171   17.0534  H     
35   H        17.2825  -14.3371   21.1179  H     
36   H        12.9808  -14.0700   19.2918  H     
37   H        13.4456  -13.4477   17.7152  H     
38   H        20.1124  -15.9505   17.9385  H     
39   H        19.7331  -14.2898   17.4366  H     
40   H        21.4123  -13.6161   19.3599  H     
41   H        21.9977  -15.2695   19.2102  H     
42   H        21.8162  -14.0739   16.5321  H     
43   H        22.6530  -12.9491   17.5644  H     
44   H        26.8686  -12.5588   19.4031  H     
45   H        24.9321  -12.6481   17.9551  H     
46   H        23.9888  -17.5746   19.4915  H     
47   H        23.6500  -17.2338   17.8006  H     
48   H        25.7941  -18.1505   17.0775  H     
49   H        26.3383  -18.3588   18.7518  H     
50   H        24.5302  -20.0472   19.1384  H     
51   H        25.6427  -20.5191   17.8371  H     
52   H        24.0291  -19.8877   17.4329  H     
@<TRIPOS>BOND
     1    1    2 2
     2    1    6 1
     3    2    3 1
     4    2    8 1
     5    3    4 2
     6    4    5 1
     7    5    6 2
     8    5    7 1
     9    7   12 1
    10    8    9 1
    11    9   10 1
    12    9   11 2
    13   12   13 1
    14   13   14 1
    15   14   15 1
    16   15   16 1
    17   16   17 2
    18   16   19 1
    19   17   20 1
    20   17   24 1
    21   18   19 2
    22   18   23 1
    23   20   21 1
    24   21   22 1
    25   23   24 2
    26   23   27 1
    27   24   25 1
    28   25   26 1
    29   26   27 2
    30   27   28 1
    31   28   29 1
    32   28   30 1
    33   28   31 1
    34    1   32 1
    35    3   33 1
    36    4   34 1
    37    6   35 1
    38    8   36 1
    39    8   37 1
    40   12   38 1
    41   12   39 1
    42   13   40 1
    43   13   41 1
    44   14   42 1
    45   14   43 1
    46   18   44 1
    47   19   45 1
    48   20   46 1
    49   20   47 1
    50   21   48 1
    51   21   49 1
    52   22   50 1
    53   22   51 1
    54   22   52 1
@<TRIPOS>PROPERTY_DATA
  Total_Score	| 10.1831
  Crash		| -1.9703
  Polar		| 4.7345
  FragIndex	| 1
  FragRMSD	| 0.837

