@<TRIPOS>MOLECULE
BindingDB_50184267
 55 57 0 0 0
SMALL
NO_CHARGES


@<TRIPOS>ATOM
1    C        15.8941  -14.4236   17.9250  C     
2    C        15.0729  -14.9984   18.9225  C     
3    C        15.6299  -15.9912   19.7609  C     
4    C        16.9615  -16.4149   19.5918  C     
5    C        17.7802  -15.8430   18.5904  C     
6    C        17.2299  -14.8397   17.7627  C     
7    N        19.0830  -16.2597   18.4102  N     
8    C        13.6578  -14.5694   19.0991  C     
9    C        12.6792  -15.6289   18.7941  C     
10   O        12.9372  -16.5429   17.8325  O     
11   O        11.3784  -15.4137   19.0945  O     
12   C        20.1743  -15.3722   18.7821  C     
13   C        20.9210  -14.7422   17.5717  C     
14   C        22.2496  -14.0303   17.9493  C     
15   O        23.3752  -14.8146   17.5061  O     
16   C        24.5181  -14.7591   18.2702  C     
17   C        25.0254  -15.9507   18.8641  C     
18   C        26.3632  -13.4554   19.2482  C     
19   C        25.2016  -13.5274   18.4536  C     
20   C        24.3647  -17.2812   18.7197  C     
21   C        25.2851  -18.3620   18.0845  C     
22   C        24.5819  -19.7335   17.9276  C     
23   C        26.8384  -14.6285   19.8546  C     
24   C        26.1844  -15.8454   19.6655  C     
25   O        26.8508  -16.8094   20.3423  O     
26   N        27.8541  -16.2218   20.9707  N     
27   C        27.9087  -14.8999   20.6981  C     
28   C        28.8849  -13.9481   21.2612  C     
29   F        29.7738  -14.5679   22.1104  F     
30   F        29.6067  -13.3656   20.2526  F     
31   F        28.2191  -12.9770   21.9674  F     
32   C        19.3573  -17.4856   17.9483  C     
33   O        18.5038  -18.3062   17.6378  O     
34   H        15.5229  -13.7027   17.3021  H     
35   H        15.0583  -16.4193   20.4968  H     
36   H        17.3340  -17.1396   20.2112  H     
37   H        17.7978  -14.4129   17.0269  H     
38   H        13.5241  -14.2535   20.1349  H     
39   H        13.4213  -13.7113   18.4632  H     
40   H        19.8089  -14.5489   19.4072  H     
41   H        20.8866  -15.9245   19.4002  H     
42   H        21.1275  -15.5196   16.8261  H     
43   H        20.2593  -14.0164   17.1005  H     
44   H        22.3083  -13.0647   17.4427  H     
45   H        22.2769  -13.8332   19.0326  H     
46   H        26.8459  -12.5610   19.3889  H     
47   H        24.8439  -12.6711   18.0171  H     
48   H        24.0416  -17.6108   19.7145  H     
49   H        23.4582  -17.2101   18.0952  H     
50   H        25.6108  -18.0178   17.0976  H     
51   H        26.1724  -18.4864   18.7228  H     
52   H        24.1728  -20.0676   18.8897  H     
53   H        25.3126  -20.4761   17.5848  H     
54   H        23.7703  -19.6681   17.1939  H     
55   H        20.2978  -17.7830   17.8503  H     
@<TRIPOS>BOND
     1    1    2 2
     2    1    6 1
     3    2    3 1
     4    2    8 1
     5    3    4 2
     6    4    5 1
     7    5    6 2
     8    5    7 1
     9    7   12 1
    10    7   32 am
    11    8    9 1
    12    9   10 1
    13    9   11 2
    14   12   13 1
    15   13   14 1
    16   14   15 1
    17   15   16 1
    18   16   17 2
    19   16   19 1
    20   17   20 1
    21   17   24 1
    22   18   19 2
    23   18   23 1
    24   20   21 1
    25   21   22 1
    26   23   24 2
    27   23   27 1
    28   24   25 1
    29   25   26 1
    30   26   27 2
    31   27   28 1
    32   28   29 1
    33   28   30 1
    34   28   31 1
    35   32   33 2
    36    1   34 1
    37    3   35 1
    38    4   36 1
    39    6   37 1
    40    8   38 1
    41    8   39 1
    42   12   40 1
    43   12   41 1
    44   13   42 1
    45   13   43 1
    46   14   44 1
    47   14   45 1
    48   18   46 1
    49   19   47 1
    50   20   48 1
    51   20   49 1
    52   21   50 1
    53   21   51 1
    54   22   52 1
    55   22   53 1
    56   22   54 1
    57   32   55 1
@<TRIPOS>PROPERTY_DATA
  Total_Score	| 9.8218
  Crash		| -0.7846
  Polar		| 4.4762
  FragIndex	| 1
  FragRMSD	| 0.803

