@<TRIPOS>MOLECULE
BindingDB_13993
 46 48 0 0 0
SMALL
NO_CHARGES


@<TRIPOS>ATOM
1    C        33.6700   30.1446   20.2577  C     
2    C        35.1674   29.0714   21.5239  C     
3    C        33.8047   29.1960   21.2690  C     
4    O        34.9373   30.5336   19.9431  O     
5    N        35.8047   29.8979   20.6743  N     
6    C        35.7812   28.3137   22.5216  C     
7    O        37.1083   28.4462   22.7406  O     
8    O        35.0754   27.5252   23.3603  O     
9    C        32.5035   30.7499   19.7133  C     
10   C        32.6596   31.9531   18.9741  C     
11   C        31.5407   32.6637   18.5276  C     
12   C        30.2462   32.2215   18.8450  C     
13   C        30.0364   31.0070   19.5560  C     
14   C        31.1863   30.2666   19.9347  C     
15   C        27.7492   31.2141   20.4913  C     
16   C        26.3917   30.4764   20.5134  C     
17   O        26.1537   29.7445   21.7608  O     
18   C        24.8267   29.6647   22.1266  C     
19   C        24.1228   28.4321   22.1212  C     
20   C        24.1564   30.8444   22.5252  C     
21   C        22.7835   30.8264   22.8243  C     
22   C        22.0788   29.6185   22.7676  C     
23   C        22.7295   28.4161   22.4281  C     
24   C        24.7816   27.2209   21.8196  C     
25   O        24.6595   26.1852   22.6856  O     
26   O        25.5492   27.1055   20.7042  O     
27   C        26.2541   25.9315   20.2861  C     
28   O        22.0001   27.2737   22.3422  O     
29   N        28.8159   30.4985   19.8403  N     
30   H        33.0537   28.7297   21.7824  H     
31   H        33.5992   32.3255   18.7721  H     
32   H        31.6780   33.5263   17.9760  H     
33   H        29.4511   32.7711   18.4917  H     
34   H        31.0603   29.4035   20.4532  H     
35   H        27.5895   32.2135   20.0379  H     
36   H        28.0543   31.3561   21.5455  H     
37   H        25.6328   31.2368   20.2849  H     
38   H        26.3168   29.7313   19.7136  H     
39   H        24.6526   31.7319   22.5691  H     
40   H        22.3008   31.6877   23.0813  H     
41   H        21.0734   29.6077   22.9644  H     
42   H        26.9743   25.6325   21.0491  H     
43   H        26.7847   26.1585   19.3601  H     
44   H        25.5555   25.1070   20.1099  H     
45   H        21.5646   27.1594   23.2133  H     
46   H        28.7196   29.5268   19.7976  H     
@<TRIPOS>BOND
     1    1    3 2
     2    1    4 1
     3    1    9 1
     4    2    3 1
     5    2    5 2
     6    2    6 1
     7    4    5 1
     8    6    7 2
     9    6    8 1
    10    9   10 2
    11    9   14 1
    12   10   11 1
    13   11   12 2
    14   12   13 1
    15   13   14 2
    16   13   29 1
    17   15   16 1
    18   15   29 1
    19   16   17 1
    20   17   18 1
    21   18   19 1
    22   18   20 2
    23   19   23 2
    24   19   24 1
    25   20   21 1
    26   21   22 2
    27   22   23 1
    28   23   28 1
    29   24   25 2
    30   24   26 1
    31   26   27 1
    32    3   30 1
    33   10   31 1
    34   11   32 1
    35   12   33 1
    36   14   34 1
    37   15   35 1
    38   15   36 1
    39   16   37 1
    40   16   38 1
    41   20   39 1
    42   21   40 1
    43   22   41 1
    44   27   42 1
    45   27   43 1
    46   27   44 1
    47   28   45 1
    48   29   46 1
@<TRIPOS>PROPERTY_DATA
  Total_Score	| 13.3468
  Crash		| -0.8437
  Polar		| 9.1272
  FragIndex	| 1
  FragRMSD	| 0.298

