@<TRIPOS>MOLECULE
BindingDB_13995
 49 52 0 0 0
SMALL
NO_CHARGES


@<TRIPOS>ATOM
1    C        33.1622   29.6949   20.5640  C     
2    C        35.0397   28.9423   21.4668  C     
3    O        32.8740   28.7119   21.4429  O     
4    N        33.9860   28.2684   21.9652  N     
5    C        36.3588   28.7163   21.8939  C     
6    O        37.3935   29.4657   21.4569  O     
7    O        36.6153   27.7860   22.8404  O     
8    C        32.2753   30.5262   19.8447  C     
9    C        32.8052   31.4488   18.9098  C     
10   C        31.9260   32.3387   18.2575  C     
11   C        30.5468   32.3190   18.5399  C     
12   C        29.9919   31.4003   19.4675  C     
13   C        30.8884   30.4974   20.0961  C     
14   C        26.4918   30.7015   20.7638  C     
15   O        26.0930   29.7377   21.7646  O     
16   C        24.7485   29.6700   22.0499  C     
17   C        24.0663   28.4223   22.0652  C     
18   C        24.0765   30.8350   22.4813  C     
19   C        22.7228   30.7885   22.8494  C     
20   C        22.0294   29.5697   22.8054  C     
21   C        22.6914   28.3854   22.4216  C     
22   C        24.7533   27.2198   21.7772  C     
23   O        24.7079   26.2035   22.6719  O     
24   O        25.5196   27.1140   20.6592  O     
25   C        26.2836   25.9714   20.2679  C     
26   O        21.9772   27.2240   22.3531  O     
27   C        27.9308   30.6416   20.5789  C     
28   C        28.6047   31.4142   19.7059  C     
29   C        34.5412   29.8559   20.5389  C     
30   C        35.1843   30.9050   19.7156  C     
31   C        34.2562   31.3903   18.5573  C     
32   H        32.2843   33.0028   17.5672  H     
33   H        29.9468   32.9904   18.0518  H     
34   H        30.5421   29.7996   20.7513  H     
35   H        25.9995   30.4800   19.8119  H     
36   H        26.2240   31.7142   21.0790  H     
37   H        24.5763   31.7246   22.5389  H     
38   H        22.2430   31.6408   23.1481  H     
39   H        21.0392   29.5483   23.0606  H     
40   H        27.0263   25.7319   21.0287  H     
41   H        26.7967   26.1923   19.3324  H     
42   H        25.6257   25.1128   20.1198  H     
43   H        21.5353   27.1088   23.2220  H     
44   H        28.4304   30.0201   21.1627  H     
45   H        28.0629   32.0747   19.1954  H     
46   H        35.4285   31.7478   20.3664  H     
47   H        36.1128   30.5204   19.2879  H     
48   H        34.3549   30.6955   17.7185  H     
49   H        34.6021   32.3646   18.2143  H     
@<TRIPOS>BOND
     1    1    3 1
     2    1    8 1
     3    1   29 2
     4    2    4 2
     5    2    5 1
     6    2   29 1
     7    3    4 1
     8    5    6 2
     9    5    7 1
    10    8    9 2
    11    8   13 1
    12    9   10 1
    13    9   31 1
    14   10   11 2
    15   11   12 1
    16   12   13 2
    17   12   28 1
    18   14   15 1
    19   14   27 1
    20   15   16 1
    21   16   17 1
    22   16   18 2
    23   17   21 2
    24   17   22 1
    25   18   19 1
    26   19   20 2
    27   20   21 1
    28   21   26 1
    29   22   23 2
    30   22   24 1
    31   24   25 1
    32   27   28 2
    33   29   30 1
    34   30   31 1
    35   10   32 1
    36   11   33 1
    37   13   34 1
    38   14   35 1
    39   14   36 1
    40   18   37 1
    41   19   38 1
    42   20   39 1
    43   25   40 1
    44   25   41 1
    45   25   42 1
    46   26   43 1
    47   27   44 1
    48   28   45 1
    49   30   46 1
    50   30   47 1
    51   31   48 1
    52   31   49 1
@<TRIPOS>PROPERTY_DATA
  Total_Score	| 12.5706
  Crash		| -1.8281
  Polar		| 7.6552
  FragIndex	| 1
  FragRMSD	| 0.398

