@<TRIPOS>MOLECULE
BindingDB_13990
 45 47 0 0 0
SMALL
NO_CHARGES


@<TRIPOS>ATOM
1    C        33.1919   30.0519   20.8802  C     
2    C        34.8258   29.0104   21.9914  C     
3    C        34.5712   29.8392   20.9066  C     
4    O        32.6991   29.3491   21.9359  O     
5    N        33.6536   28.7407   22.5853  N     
6    C        36.0707   28.5308   22.4121  C     
7    O        36.1564   27.5939   23.3829  O     
8    O        37.2069   28.9985   21.8514  O     
9    C        32.3670   30.8205   20.0103  C     
10   C        32.8634   31.7646   19.0764  C     
11   C        31.9745   32.5437   18.3258  C     
12   C        30.5830   32.4248   18.5060  C     
13   C        30.0307   31.4907   19.4242  C     
14   C        30.9550   30.6827   20.1352  C     
15   F        34.1420   31.9833   18.9020  F     
16   C        28.6333   31.4891   19.6605  C     
17   C        27.9482   30.7351   20.5505  C     
18   C        26.5634   30.9961   20.9520  C     
19   O        26.0279   29.8549   21.6601  O     
20   C        24.7173   29.7767   22.1013  C     
21   C        24.1066   28.4868   22.1652  C     
22   C        23.9417   30.9316   22.4329  C     
23   C        22.6049   30.8126   22.8186  C     
24   C        21.9942   29.5429   22.8795  C     
25   C        22.7349   28.3871   22.5448  C     
26   C        24.8363   27.3166   21.8344  C     
27   O        24.7809   26.2199   22.6352  O     
28   O        25.5872   27.2812   20.6990  O     
29   C        26.3419   26.1783   20.1970  C     
30   O        22.0645   27.1911   22.5150  O     
31   H        35.2717   30.2028   20.2545  H     
32   H        32.3253   33.2326   17.6646  H     
33   H        29.9690   33.0540   17.9783  H     
34   H        30.5993   29.9918   20.7871  H     
35   H        28.1194   32.1676   19.1559  H     
36   H        28.4069   30.0110   21.0292  H     
37   H        26.5793   31.8794   21.6123  H     
38   H        25.9149   31.2111   20.0850  H     
39   H        24.3509   31.8646   22.3772  H     
40   H        22.0516   31.6421   23.0552  H     
41   H        20.9956   29.4735   23.1454  H     
42   H        27.0712   25.8435   20.9381  H     
43   H        26.8711   26.4988   19.2978  H     
44   H        25.6718   25.3545   19.9375  H     
45   H        21.5700   27.1333   23.3582  H     
@<TRIPOS>BOND
     1    1    3 2
     2    1    4 1
     3    1    9 1
     4    2    3 1
     5    2    5 2
     6    2    6 1
     7    4    5 1
     8    6    7 2
     9    6    8 1
    10    9   10 2
    11    9   14 1
    12   10   11 1
    13   10   15 1
    14   11   12 2
    15   12   13 1
    16   13   14 2
    17   13   16 1
    18   16   17 2
    19   17   18 1
    20   18   19 1
    21   19   20 1
    22   20   21 1
    23   20   22 2
    24   21   25 2
    25   21   26 1
    26   22   23 1
    27   23   24 2
    28   24   25 1
    29   25   30 1
    30   26   27 2
    31   26   28 1
    32   28   29 1
    33    3   31 1
    34   11   32 1
    35   12   33 1
    36   14   34 1
    37   16   35 1
    38   17   36 1
    39   18   37 1
    40   18   38 1
    41   22   39 1
    42   23   40 1
    43   24   41 1
    44   29   42 1
    45   29   43 1
    46   29   44 1
    47   30   45 1
@<TRIPOS>PROPERTY_DATA
  Total_Score	| 13.4574
  Crash		| -1.2225
  Polar		| 8.4916
  FragIndex	| 1
  FragRMSD	| 0.751

