@<TRIPOS>MOLECULE
BindingDB_13992
 48 50 0 0 0
SMALL
NO_CHARGES


@<TRIPOS>ATOM
1    C        33.2123   29.9578   20.5213  C     
2    C        34.8624   28.9316   21.6210  C     
3    C        34.5422   30.0893   20.9136  C     
4    O        32.7993   28.7575   20.9926  O     
5    N        33.7703   28.1558   21.6344  N     
6    C        36.0865   28.6029   22.2301  C     
7    O        37.0690   29.5246   22.3565  O     
8    O        36.2003   27.4511   22.9355  O     
9    C        32.3871   30.8541   19.7837  C     
10   C        32.9299   31.9140   19.0247  C     
11   C        32.0826   32.7608   18.2813  C     
12   C        30.6869   32.5963   18.3341  C     
13   C        30.1066   31.5700   19.1116  C     
14   C        30.9813   30.6923   19.8105  C     
15   C        27.9763   30.3926   20.0874  C     
16   C        26.6200   30.7888   20.7282  C     
17   O        26.1750   29.7200   21.5898  O     
18   C        24.8563   29.7310   22.0069  C     
19   C        24.1560   28.5021   22.1736  C     
20   C        24.2364   30.9408   22.4072  C     
21   C        22.9238   30.9462   22.8952  C     
22   C        22.2232   29.7431   23.0350  C     
23   C        22.8307   28.5236   22.6835  C     
24   C        24.7849   27.2689   21.8613  C     
25   O        24.6221   26.2102   22.6953  O     
26   O        25.5673   27.1430   20.7514  O     
27   C        26.2481   25.9556   20.3451  C     
28   O        22.0678   27.4083   22.8461  O     
29   C        28.6115   31.5039   19.1962  C     
30   O        27.7657   29.2158   19.3009  O     
31   H        35.1641   30.8802   20.7420  H     
32   H        33.9397   32.0631   18.9583  H     
33   H        32.4803   33.4923   17.6941  H     
34   H        30.0917   33.2435   17.8106  H     
35   H        30.5877   29.9277   20.3567  H     
36   H        28.6690   30.1664   20.9148  H     
37   H        26.7626   31.7036   21.3209  H     
38   H        25.8970   30.9882   19.9316  H     
39   H        24.7403   31.8269   22.3491  H     
40   H        22.4792   31.8299   23.1527  H     
41   H        21.2665   29.7551   23.3903  H     
42   H        26.9223   25.6076   21.1326  H     
43   H        26.8295   26.1700   19.4489  H     
44   H        25.5194   25.1758   20.1163  H     
45   H        22.5070   26.6958   22.3455  H     
46   H        28.2686   32.4750   19.5681  H     
47   H        28.2042   31.3831   18.1853  H     
48   H        28.6637   28.9120   19.0364  H     
@<TRIPOS>BOND
     1    1    3 2
     2    1    4 1
     3    1    9 1
     4    2    3 1
     5    2    5 2
     6    2    6 1
     7    4    5 1
     8    6    7 2
     9    6    8 1
    10    9   10 2
    11    9   14 1
    12   10   11 1
    13   11   12 2
    14   12   13 1
    15   13   14 2
    16   13   29 1
    17   15   16 1
    18   15   29 1
    19   15   30 1
    20   16   17 1
    21   17   18 1
    22   18   19 1
    23   18   20 2
    24   19   23 2
    25   19   24 1
    26   20   21 1
    27   21   22 2
    28   22   23 1
    29   23   28 1
    30   24   25 2
    31   24   26 1
    32   26   27 1
    33    3   31 1
    34   10   32 1
    35   11   33 1
    36   12   34 1
    37   14   35 1
    38   15   36 1
    39   16   37 1
    40   16   38 1
    41   20   39 1
    42   21   40 1
    43   22   41 1
    44   27   42 1
    45   27   43 1
    46   27   44 1
    47   28   45 1
    48   29   46 1
    49   29   47 1
    50   30   48 1
@<TRIPOS>PROPERTY_DATA
  Total_Score	| 11.9146
  Crash		| -1.8766
  Polar		| 8.2721
  FragIndex	| 1
  FragRMSD	| 0.291

