@<TRIPOS>MOLECULE
BindingDB_13994
 48 51 0 0 0
SMALL
NO_CHARGES


@<TRIPOS>ATOM
1    C        33.1467   29.6940   20.5120  C     
2    C        34.9813   28.8450   21.4634  C     
3    C        34.4193   30.0216   20.9804  C     
4    O        32.9985   28.3647   20.7457  O     
5    N        34.0690   27.8690   21.3010  N     
6    C        36.2562   28.6507   22.0199  C     
7    O        37.0776   29.7009   22.2612  O     
8    O        36.6898   27.4085   22.3436  O     
9    C        32.1391   30.5133   19.9306  C     
10   C        32.3530   31.8831   19.6421  C     
11   C        31.3384   32.6670   19.0668  C     
12   C        30.1055   32.0933   18.7237  C     
13   C        29.8491   30.7379   18.9999  C     
14   C        30.8715   29.9603   19.5965  C     
15   C        26.4055   29.2719   19.8450  C     
16   O        26.1918   29.2797   21.2768  O     
17   C        24.8837   29.3738   21.6775  C     
18   C        24.0648   28.2175   21.7440  C     
19   C        24.3951   30.6010   22.1669  C     
20   C        23.0472   30.7295   22.5534  C     
21   C        22.2011   29.6166   22.5062  C     
22   C        22.7045   28.3591   22.1336  C     
23   C        24.6410   26.9369   21.5648  C     
24   O        24.6622   26.0983   22.6275  O     
25   O        25.3528   26.6674   20.4418  O     
26   C        26.1549   25.5185   20.1659  C     
27   O        21.8658   27.2807   22.1262  O     
28   C        27.3397   30.4227   19.4184  C     
29   C        28.5883   30.0894   18.5726  C     
30   C        27.3946   30.8267   17.9298  C     
31   H        34.8643   30.9387   20.9572  H     
32   H        33.2553   32.3173   19.8354  H     
33   H        31.5202   33.6502   18.8611  H     
34   H        29.3981   32.6787   18.2777  H     
35   H        30.6992   28.9637   19.7431  H     
36   H        26.8713   28.3150   19.6175  H     
37   H        25.4704   29.3189   19.2693  H     
38   H        25.0427   31.3985   22.2637  H     
39   H        22.6975   31.6280   22.8975  H     
40   H        21.2247   29.7024   22.7955  H     
41   H        26.9640   25.4339   20.8913  H     
42   H        26.5873   25.6291   19.1716  H     
43   H        25.5549   24.6151   20.1880  H     
44   H        21.4620   27.2157   23.0238  H     
45   H        27.3757   31.3208   20.0390  H     
46   H        28.6698   29.0521   18.2525  H     
47   H        26.7470   30.2440   17.2568  H     
48   H        27.4497   31.9089   17.7835  H     
@<TRIPOS>BOND
     1    1    3 2
     2    1    4 1
     3    1    9 1
     4    2    3 1
     5    2    5 2
     6    2    6 1
     7    4    5 1
     8    6    7 2
     9    6    8 1
    10    9   10 2
    11    9   14 1
    12   10   11 1
    13   11   12 2
    14   12   13 1
    15   13   14 2
    16   13   29 1
    17   15   16 1
    18   15   28 1
    19   16   17 1
    20   17   18 1
    21   17   19 2
    22   18   22 2
    23   18   23 1
    24   19   20 1
    25   20   21 2
    26   21   22 1
    27   22   27 1
    28   23   24 2
    29   23   25 1
    30   25   26 1
    31   28   29 1
    32   28   30 1
    33   29   30 1
    34    3   31 1
    35   10   32 1
    36   11   33 1
    37   12   34 1
    38   14   35 1
    39   15   36 1
    40   15   37 1
    41   19   38 1
    42   20   39 1
    43   21   40 1
    44   26   41 1
    45   26   42 1
    46   26   43 1
    47   27   44 1
    48   28   45 1
    49   29   46 1
    50   30   47 1
    51   30   48 1
@<TRIPOS>PROPERTY_DATA
  Total_Score	| 11.5726
  Crash		| -1.7805
  Polar		| 9.0004
  FragIndex	| 1
  FragRMSD	| 1.473

