@<TRIPOS>MOLECULE
BindingDB_50133280
 45 47 0 0 0
SMALL
NO_CHARGES


@<TRIPOS>ATOM
1    C        34.9601   28.9494   21.6384  C     
2    N        33.8844   28.1412   21.6708  N     
3    C        34.5996   30.0857   20.9217  C     
4    C        33.2685   29.9169   20.5445  C     
5    C        24.2525   28.5036   22.1173  C     
6    O        32.8929   28.7052   21.0361  O     
7    C        36.1812   28.6546   22.2692  C     
8    C        24.8881   27.2664   21.8275  C     
9    C        32.3961   30.7949   19.8424  C     
10   C        22.9119   28.5417   22.5852  C     
11   C        24.9576   29.7276   21.9904  C     
12   C        30.9967   30.6014   19.9156  C     
13   O        37.1566   29.5865   22.3694  O     
14   O        24.8205   26.2546   22.7246  O     
15   C        28.6644   31.3525   19.4044  C     
16   C        28.0072   30.5997   20.3088  C     
17   C        30.0615   31.4712   19.2890  C     
18   O        36.3182   27.5151   22.9889  O     
19   O        25.6564   27.1303   20.7144  O     
20   O        22.1805   27.3957   22.6944  O     
21   O        26.2669   29.7567   21.5982  O     
22   C        32.8773   31.8729   19.0669  C     
23   C        23.0367   30.9695   22.8259  C     
24   C        31.9828   32.7085   18.3817  C     
25   C        26.5622   30.4985   20.3944  C     
26   C        22.3070   29.7734   22.9147  C     
27   C        24.3709   30.9409   22.3989  C     
28   C        30.5950   32.5123   18.4903  C     
29   C        26.3853   25.9626   20.3267  C     
30   H        35.1920   30.9051   20.7523  H     
31   H        30.6644   29.7900   20.4391  H     
32   H        28.1002   31.9052   18.7910  H     
33   H        28.5399   30.0924   20.9894  H     
34   H        21.2386   27.6632   22.5980  H     
35   H        33.8815   32.0433   18.9796  H     
36   H        22.6066   31.8603   23.0880  H     
37   H        32.3435   33.4628   17.7978  H     
38   H        26.1131   31.5061   20.4280  H     
39   H        26.1723   29.9652   19.5161  H     
40   H        21.3355   29.8004   23.2409  H     
41   H        24.9336   31.8018   22.3657  H     
42   H        29.9760   33.1604   17.9903  H     
43   H        27.1209   25.7161   21.0935  H     
44   H        26.8949   26.1572   19.3768  H     
45   H        25.6976   25.1250   20.2069  H     
@<TRIPOS>BOND
     1    1    2 2
     2    1    3 1
     3    1    7 1
     4    2    6 1
     5    3    4 2
     6    4    6 1
     7    4    9 1
     8    5    8 1
     9    5   10 2
    10    5   11 1
    11    7   13 2
    12    7   18 1
    13    8   14 2
    14    8   19 1
    15    9   12 2
    16    9   22 1
    17   10   20 1
    18   10   26 1
    19   11   21 1
    20   11   27 2
    21   12   17 1
    22   15   16 2
    23   15   17 1
    24   16   25 1
    25   17   28 2
    26   19   29 1
    27   21   25 1
    28   22   24 2
    29   23   26 2
    30   23   27 1
    31   24   28 1
    32    3   30 1
    33   12   31 1
    34   15   32 1
    35   16   33 1
    36   20   34 1
    37   22   35 1
    38   23   36 1
    39   24   37 1
    40   25   38 1
    41   25   39 1
    42   26   40 1
    43   27   41 1
    44   28   42 1
    45   29   43 1
    46   29   44 1
    47   29   45 1
@<TRIPOS>PROPERTY_DATA
  Total_Score	| 12.9891
  Crash		| -1.2494
  Polar		| 8.3817
  FragIndex	| 1
  FragRMSD	| 0.211

