@<TRIPOS>MOLECULE
BindingDB_13991
 45 47 0 0 0
SMALL
NO_CHARGES


@<TRIPOS>ATOM
1    C        33.6418   30.2799   20.3297  C     
2    C        35.1007   29.1305   21.5702  C     
3    C        33.7427   29.3419   21.3540  C     
4    O        34.9232   30.5730   19.9658  O     
5    N        35.7672   29.9023   20.6903  N     
6    C        35.7338   28.3244   22.5213  C     
7    O        37.0761   28.3719   22.6564  O     
8    O        35.0302   27.4989   23.3349  O     
9    C        32.5105   30.9000   19.7561  C     
10   C        32.6881   32.0393   18.9399  C     
11   C        31.5846   32.6853   18.3526  C     
12   C        30.2863   32.1926   18.5761  C     
13   C        30.0652   31.0654   19.4084  C     
14   C        31.1942   30.4209   19.9711  C     
15   C        27.6301   31.0722   19.6004  C     
16   C        26.4455   30.2601   19.8155  C     
17   O        26.3709   29.8757   21.2082  O     
18   C        25.1189   29.9157   21.7757  C     
19   C        24.4140   28.7286   22.1274  C     
20   C        24.5771   31.1798   22.0920  C     
21   C        23.3123   31.2926   22.6866  C     
22   C        22.5999   30.1360   23.0230  C     
23   C        23.1352   28.8592   22.7473  C     
24   C        24.9556   27.4452   21.8684  C     
25   O        24.7058   26.4115   22.7071  O     
26   O        25.7517   27.2428   20.7897  O     
27   C        26.3650   26.0136   20.3972  C     
28   O        22.3862   27.7569   23.0571  O     
29   N        28.8364   30.5104   19.6461  N     
30   O        27.4923   32.2806   19.4628  O     
31   H        32.9806   28.9226   21.8957  H     
32   H        33.6184   32.4270   18.7518  H     
33   H        31.7201   33.5041   17.7551  H     
34   H        29.5100   32.6517   18.1015  H     
35   H        31.0567   29.5854   20.5414  H     
36   H        25.5619   30.8189   19.4818  H     
37   H        26.5016   29.3634   19.1942  H     
38   H        25.0976   32.0287   21.8647  H     
39   H        22.9273   32.2056   22.8986  H     
40   H        21.6758   30.2208   23.4592  H     
41   H        27.0171   25.6442   21.1912  H     
42   H        26.9627   26.1873   19.5005  H     
43   H        25.6011   25.2644   20.1753  H     
44   H        21.7027   28.0433   23.7035  H     
45   H        28.8438   29.5747   19.9137  H     
@<TRIPOS>BOND
     1    1    3 2
     2    1    4 1
     3    1    9 1
     4    2    3 1
     5    2    5 2
     6    2    6 1
     7    4    5 1
     8    6    7 2
     9    6    8 1
    10    9   10 2
    11    9   14 1
    12   10   11 1
    13   11   12 2
    14   12   13 1
    15   13   14 2
    16   13   29 1
    17   15   16 1
    18   15   29 am
    19   15   30 2
    20   16   17 1
    21   17   18 1
    22   18   19 1
    23   18   20 2
    24   19   23 2
    25   19   24 1
    26   20   21 1
    27   21   22 2
    28   22   23 1
    29   23   28 1
    30   24   25 2
    31   24   26 1
    32   26   27 1
    33    3   31 1
    34   10   32 1
    35   11   33 1
    36   12   34 1
    37   14   35 1
    38   16   36 1
    39   16   37 1
    40   20   38 1
    41   21   39 1
    42   22   40 1
    43   27   41 1
    44   27   42 1
    45   27   43 1
    46   28   44 1
    47   29   45 1
@<TRIPOS>PROPERTY_DATA
  Total_Score	| 11.0824
  Crash		| -1.0573
  Polar		| 8.2582
  FragIndex	| 1
  FragRMSD	| 1.270

