@<TRIPOS>MOLECULE
BindingDB_13997
 49 51 0 0 0
SMALL
NO_CHARGES


@<TRIPOS>ATOM
1    C        33.1764   29.8406   20.2758  C     
2    C        34.9032   28.8516   21.2896  C     
3    O        32.8234   28.6168   20.7269  O     
4    N        33.8360   28.0414   21.3072  N     
5    C        36.1237   28.5003   21.9099  C     
6    O        37.1340   29.3932   22.1022  O     
7    O        36.3119   27.2575   22.4092  O     
8    C        32.2537   30.7047   19.6126  C     
9    C        32.6646   31.6127   18.6076  C     
10   C        31.7529   32.5072   18.0292  C     
11   C        30.4031   32.4793   18.4152  C     
12   C        29.9228   31.5448   19.3677  C     
13   C        30.8733   30.6583   19.9422  C     
14   C        26.4138   30.5845   20.4766  C     
15   O        26.0904   29.6750   21.5577  O     
16   C        24.7531   29.6118   21.9070  C     
17   C        24.0647   28.3682   21.9694  C     
18   C        24.0938   30.7900   22.3284  C     
19   C        22.7536   30.7561   22.7418  C     
20   C        22.0560   29.5395   22.7445  C     
21   C        22.7013   28.3469   22.3615  C     
22   C        24.7286   27.1520   21.6933  C     
23   O        24.6820   26.1503   22.6074  O     
24   O        25.4325   26.9941   20.5405  O     
25   C        26.1268   25.8161   20.1262  C     
26   O        21.9695   27.1967   22.3149  O     
27   C        27.8396   30.5380   20.2120  C     
28   C        28.5577   31.5534   19.6950  C     
29   C        34.5195   30.0239   20.6279  C     
30   C        35.3553   31.2249   20.4418  C     
31   O        36.3062   31.0330   19.3973  O     
32   H        33.6276   31.6233   18.2705  H     
33   H        32.0653   33.1670   17.3164  H     
34   H        29.7637   33.1523   17.9729  H     
35   H        30.5682   29.9923   20.6554  H     
36   H        25.8931   30.2751   19.5619  H     
37   H        26.0859   31.6028   20.7290  H     
38   H        24.5969   31.6796   22.3375  H     
39   H        22.2877   31.6106   23.0350  H     
40   H        21.0715   29.5210   23.0251  H     
41   H        26.8844   25.5405   20.8588  H     
42   H        26.6106   26.0095   19.1697  H     
43   H        25.4204   24.9934   20.0081  H     
44   H        21.5617   27.1004   23.2142  H     
45   H        28.2774   29.6608   20.3282  H     
46   H        28.0524   32.3906   19.4769  H     
47   H        34.7661   32.1025   20.1994  H     
48   H        35.8660   31.4510   21.3767  H     
49   H        36.6476   30.1129   19.5034  H     
@<TRIPOS>BOND
     1    1    3 1
     2    1    8 1
     3    1   29 2
     4    2    4 2
     5    2    5 1
     6    2   29 1
     7    3    4 1
     8    5    6 2
     9    5    7 1
    10    8    9 2
    11    8   13 1
    12    9   10 1
    13   10   11 2
    14   11   12 1
    15   12   13 2
    16   12   28 1
    17   14   15 1
    18   14   27 1
    19   15   16 1
    20   16   17 1
    21   16   18 2
    22   17   21 2
    23   17   22 1
    24   18   19 1
    25   19   20 2
    26   20   21 1
    27   21   26 1
    28   22   23 2
    29   22   24 1
    30   24   25 1
    31   27   28 2
    32   29   30 1
    33   30   31 1
    34    9   32 1
    35   10   33 1
    36   11   34 1
    37   13   35 1
    38   14   36 1
    39   14   37 1
    40   18   38 1
    41   19   39 1
    42   20   40 1
    43   25   41 1
    44   25   42 1
    45   25   43 1
    46   26   44 1
    47   27   45 1
    48   28   46 1
    49   30   47 1
    50   30   48 1
    51   31   49 1
@<TRIPOS>PROPERTY_DATA
  Total_Score	| 11.1027
  Crash		| -3.4038
  Polar		| 9.4404
  FragIndex	| 1
  FragRMSD	| 0.268

