@<TRIPOS>MOLECULE
BindingDB_50180103
 38 38 0 0 0
SMALL
NO_CHARGES


@<TRIPOS>ATOM
1    S        38.4276   71.4672   60.4662  S     
2    C        39.8925   72.4865   60.1534  C     
3    C        40.1779   73.1018   61.4465  C     
4    C        39.4819   72.6306   62.5038  C     
5    C        38.5693   71.7246   62.1416  C     
6    O        37.7745   71.0635   62.9747  O     
7    C        41.1010   71.6139   59.6585  C     
8    C        39.4946   73.5778   59.1145  C     
9    O        41.0369   73.9729   61.5474  O     
10   C        39.7345   73.0526   63.8768  C     
11   C        40.9161   70.6916   58.4034  C     
12   C        40.1947   69.3255   58.6522  C     
13   C        38.9696   69.0290   57.7151  C     
14   C        39.3171   68.3287   56.3661  C     
15   C        38.1109   68.0578   55.4285  C     
16   C        37.7483   69.2688   54.5469  C     
17   H        38.3138   70.3105   63.2822  H     
18   H        41.9193   72.3019   59.4267  H     
19   H        41.4586   70.9886   60.4802  H     
20   H        39.1155   73.1370   58.1908  H     
21   H        40.3531   74.1982   58.8592  H     
22   H        38.7176   74.2307   59.5133  H     
23   H        40.7642   72.8024   64.1427  H     
24   H        39.0692   72.5521   64.5843  H     
25   H        39.5866   74.1335   63.9756  H     
26   H        40.4085   71.2563   57.6212  H     
27   H        41.9161   70.4660   58.0162  H     
28   H        40.9411   68.5278   58.5421  H     
29   H        39.8599   69.2600   59.6922  H     
30   H        38.2662   68.3874   58.2646  H     
31   H        38.4346   69.9595   57.4908  H     
32   H        40.0612   68.9104   55.8127  H     
33   H        39.7732   67.3648   56.6000  H     
34   H        38.3638   67.2257   54.7708  H     
35   H        37.2401   67.7628   56.0161  H     
36   H        37.3105   70.0596   55.1538  H     
37   H        37.0210   68.9745   53.7852  H     
38   H        38.6454   69.6533   54.0528  H     
@<TRIPOS>BOND
     1    1    2 1
     2    1    5 1
     3    2    3 1
     4    2    7 1
     5    2    8 1
     6    3    4 1
     7    3    9 2
     8    4    5 2
     9    4   10 1
    10    5    6 1
    11    7   11 1
    12   11   12 1
    13   12   13 1
    14   13   14 1
    15   14   15 1
    16   15   16 1
    17    6   17 1
    18    7   18 1
    19    7   19 1
    20    8   20 1
    21    8   21 1
    22    8   22 1
    23   10   23 1
    24   10   24 1
    25   10   25 1
    26   11   26 1
    27   11   27 1
    28   12   28 1
    29   12   29 1
    30   13   30 1
    31   13   31 1
    32   14   32 1
    33   14   33 1
    34   15   34 1
    35   15   35 1
    36   16   36 1
    37   16   37 1
    38   16   38 1
@<TRIPOS>PROPERTY_DATA
  Total_Score	| 6.9701
  Crash		| -2.9364
  Polar		| 2.7440
  FragIndex	| 1
  FragRMSD	| 0.327

