@<TRIPOS>MOLECULE
BindingDB_50138281
 28 28 0 0 0
SMALL
NO_CHARGES


@<TRIPOS>ATOM
1    C        39.6340   72.5242   62.4709  C     
2    C        39.8272   72.4351   60.0958  C     
3    C        38.5735   71.7808   62.1543  C     
4    C        40.2447   73.0140   61.3721  C     
5    S        38.1878   71.7700   60.5064  S     
6    C        40.8714   71.5029   59.6089  C     
7    C        40.8106   70.2581   59.0625  C     
8    O        37.8173   71.1168   63.0127  O     
9    C        41.9860   69.6709   58.6755  C     
10   O        41.1566   73.8415   61.4467  O     
11   C        42.2185   69.2161   57.4360  C     
12   C        40.0649   72.7241   63.8489  C     
13   C        39.5986   73.5359   59.0152  C     
14   C        39.5863   69.4751   58.8754  C     
15   H        41.7835   71.9192   59.6161  H     
16   H        38.3980   70.3998   63.3539  H     
17   H        42.7175   69.5983   59.3461  H     
18   H        43.0868   68.7859   57.2160  H     
19   H        41.5292   69.2864   56.7221  H     
20   H        39.2629   73.1911   64.4227  H     
21   H        40.9459   73.3611   63.9217  H     
22   H        40.3089   71.7625   64.3030  H     
23   H        38.8939   74.2915   59.3698  H     
24   H        39.1956   73.0926   58.1000  H     
25   H        40.5331   74.0439   58.7625  H     
26   H        39.1612   69.2101   59.8466  H     
27   H        39.7535   68.5348   58.3442  H     
28   H        38.8583   70.0412   58.2901  H     
@<TRIPOS>BOND
     1    1    3 2
     2    1    4 1
     3    1   12 1
     4    2    4 1
     5    2    5 1
     6    2    6 1
     7    2   13 1
     8    3    5 1
     9    3    8 1
    10    4   10 2
    11    6    7 2
    12    7    9 1
    13    7   14 1
    14    9   11 2
    15    6   15 1
    16    8   16 1
    17    9   17 1
    18   11   18 1
    19   11   19 1
    20   12   20 1
    21   12   21 1
    22   12   22 1
    23   13   23 1
    24   13   24 1
    25   13   25 1
    26   14   26 1
    27   14   27 1
    28   14   28 1
@<TRIPOS>PROPERTY_DATA
  Total_Score	| 6.8383
  Crash		| -0.9281
  Polar		| 2.3984
  FragIndex	| 1
  FragRMSD	| 0.170

