@<TRIPOS>MOLECULE
BindingDB_50180121
 41 41 0 0 0
SMALL
NO_CHARGES


@<TRIPOS>ATOM
1    S        38.3316   71.4774   60.5035  S     
2    C        39.7989   72.4967   60.1959  C     
3    C        40.1137   73.0739   61.5036  C     
4    C        39.4277   72.5829   62.5566  C     
5    C        38.4889   71.7105   62.1783  C     
6    O        37.7005   71.0287   62.9901  O     
7    C        41.0200   71.6363   59.6530  C     
8    C        39.4006   73.6725   59.2515  C     
9    O        40.9999   73.9118   61.6489  O     
10   C        39.6872   72.9780   63.9376  C     
11   C        40.8239   70.3294   58.7761  C     
12   C        39.9180   70.5008   57.5028  C     
13   C        38.6431   69.5886   57.4411  C     
14   C        38.7358   68.3221   56.5414  C     
15   C        38.2126   68.5503   55.0986  C     
16   C        42.2452   69.7669   58.4212  C     
17   C        42.2792   68.5454   57.4632  C     
18   H        38.2540   70.2648   63.2643  H     
19   H        41.6875   72.3096   59.1038  H     
20   H        41.6075   71.3053   60.5259  H     
21   H        38.9819   73.3081   58.3148  H     
22   H        40.2846   74.2792   59.0214  H     
23   H        38.6531   74.3245   59.7206  H     
24   H        40.7251   72.7629   64.1960  H     
25   H        39.0442   72.4546   64.6488  H     
26   H        39.5089   74.0496   64.0357  H     
27   H        40.3785   69.5811   59.4372  H     
28   H        39.5811   71.5395   57.4494  H     
29   H        40.5053   70.3337   56.5943  H     
30   H        38.3717   69.2655   58.4495  H     
31   H        37.8096   70.2025   57.0918  H     
32   H        39.7726   67.9646   56.5025  H     
33   H        38.1270   67.5225   56.9883  H     
34   H        37.1732   68.8966   55.1275  H     
35   H        38.2496   67.6127   54.5337  H     
36   H        38.8218   69.2988   54.5791  H     
37   H        42.8315   70.5719   57.9608  H     
38   H        42.7541   69.4783   59.3493  H     
39   H        41.6006   67.7624   57.8211  H     
40   H        43.2963   68.1403   57.4239  H     
41   H        41.9958   68.8531   56.4532  H     
@<TRIPOS>BOND
     1    1    2 1
     2    1    5 1
     3    2    3 1
     4    2    7 1
     5    2    8 1
     6    3    4 1
     7    3    9 2
     8    4    5 2
     9    4   10 1
    10    5    6 1
    11    7   11 1
    12   11   12 1
    13   11   16 1
    14   12   13 1
    15   13   14 1
    16   14   15 1
    17   16   17 1
    18    6   18 1
    19    7   19 1
    20    7   20 1
    21    8   21 1
    22    8   22 1
    23    8   23 1
    24   10   24 1
    25   10   25 1
    26   10   26 1
    27   11   27 1
    28   12   28 1
    29   12   29 1
    30   13   30 1
    31   13   31 1
    32   14   32 1
    33   14   33 1
    34   15   34 1
    35   15   35 1
    36   15   36 1
    37   16   37 1
    38   16   38 1
    39   17   39 1
    40   17   40 1
    41   17   41 1
@<TRIPOS>PROPERTY_DATA
  Total_Score	| 8.7164
  Crash		| -3.1108
  Polar		| 2.5739
  FragIndex	| 1
  FragRMSD	| 0.329

