@<TRIPOS>MOLECULE
BindingDB_50180118
 30 30 0 0 0
SMALL
NO_CHARGES


@<TRIPOS>ATOM
1    S        38.6568   71.2383   60.4472  S     
2    C        40.2061   73.1080   61.4018  C     
3    C        39.5094   72.6277   62.4519  C     
4    C        38.6722   71.6386   62.1116  C     
5    O        37.8433   71.0039   62.9315  O     
6    O        40.9568   74.0787   61.5032  O     
7    C        39.6705   73.1289   63.8149  C     
8    C        39.9372   72.4746   60.1134  C     
9    C        41.2011   71.7443   59.5810  C     
10   C        39.4513   73.4802   59.0241  C     
11   C        38.2435   74.2346   59.3250  C     
12   C        37.1612   74.2059   58.5136  C     
13   C        35.9205   74.8923   58.8154  C     
14   C        35.9993   76.3959   58.4906  C     
15   H        38.3393   70.2097   63.2477  H     
16   H        40.7009   72.9792   64.1322  H     
17   H        39.0149   72.6355   64.5249  H     
18   H        39.4490   74.1969   63.8295  H     
19   H        41.5734   71.0134   60.3049  H     
20   H        42.0100   72.4454   59.3604  H     
21   H        40.9688   71.2081   58.6588  H     
22   H        40.2443   74.2069   58.8248  H     
23   H        39.3178   72.9079   58.1054  H     
24   H        38.2163   74.7955   60.1576  H     
25   H        37.1892   73.6410   57.6925  H     
26   H        35.1406   74.4445   58.1951  H     
27   H        35.6617   74.7431   59.8569  H     
28   H        36.8422   76.8723   58.9912  H     
29   H        35.0730   76.8792   58.8284  H     
30   H        36.0979   76.5501   57.4138  H     
@<TRIPOS>BOND
     1    1    4 1
     2    1    8 1
     3    2    3 1
     4    2    6 2
     5    2    8 1
     6    3    4 2
     7    3    7 1
     8    4    5 1
     9    8    9 1
    10    8   10 1
    11   10   11 1
    12   11   12 2
    13   12   13 1
    14   13   14 1
    15    5   15 1
    16    7   16 1
    17    7   17 1
    18    7   18 1
    19    9   19 1
    20    9   20 1
    21    9   21 1
    22   10   22 1
    23   10   23 1
    24   11   24 1
    25   12   25 1
    26   13   26 1
    27   13   27 1
    28   14   28 1
    29   14   29 1
    30   14   30 1
@<TRIPOS>PROPERTY_DATA
  Total_Score	| 7.3714
  Crash		| -1.0415
  Polar		| 2.9765
  FragIndex	| 1
  FragRMSD	| 0.448

