@<TRIPOS>MOLECULE
BindingDB_50180122
 53 53 0 0 0
SMALL
NO_CHARGES


@<TRIPOS>ATOM
1    S        38.3651   71.4395   60.5141  S     
2    C        39.8132   72.5173   60.2665  C     
3    C        40.0743   73.0819   61.5971  C     
4    C        39.4031   72.5142   62.6196  C     
5    C        38.5049   71.6160   62.2013  C     
6    O        37.7119   70.9181   62.9909  O     
7    C        41.0528   71.6700   59.7423  C     
8    C        39.3553   73.6516   59.2848  C     
9    O        40.7536   74.0923   61.7527  O     
10   C        39.6611   72.8561   64.0172  C     
11   C        40.7558   70.7758   58.4839  C     
12   C        40.0567   69.3912   58.7351  C     
13   C        38.8781   69.1047   57.7668  C     
14   C        39.3337   68.5744   56.3684  C     
15   C        38.1533   68.2400   55.4011  C     
16   C        37.3831   69.5144   54.9219  C     
17   C        37.5815   69.9238   53.4308  C     
18   C        37.1370   71.3818   53.0927  C     
19   C        36.2373   72.1226   54.1399  C     
20   C        36.9871   72.9791   55.1912  C     
21   C        42.3277   72.5551   59.5188  C     
22   H        38.2526   70.1302   63.2217  H     
23   H        41.3185   70.9786   60.5526  H     
24   H        39.1159   73.2626   58.2956  H     
25   H        40.1380   74.4034   59.1766  H     
26   H        38.4614   74.1571   59.6724  H     
27   H        40.7189   72.6754   64.2510  H     
28   H        39.0493   72.2541   64.6978  H     
29   H        39.4274   73.9155   64.1758  H     
30   H        40.1706   71.3457   57.7618  H     
31   H        41.6937   70.5282   57.9722  H     
32   H        40.8051   68.5908   58.6426  H     
33   H        39.6639   69.3311   59.7628  H     
34   H        38.2390   68.3285   58.2125  H     
35   H        38.2637   70.0186   57.6694  H     
36   H        39.9945   69.3106   55.8979  H     
37   H        39.9405   67.6705   56.5337  H     
38   H        38.6066   67.7368   54.5395  H     
39   H        37.4645   67.5361   55.8819  H     
40   H        36.3166   69.3587   55.1097  H     
41   H        37.7040   70.3565   55.5386  H     
42   H        38.6467   69.8469   53.1733  H     
43   H        37.0330   69.2216   52.7935  H     
44   H        38.0148   71.9927   52.8701  H     
45   H        36.5766   71.3090   52.1472  H     
46   H        35.5782   72.7938   53.5746  H     
47   H        35.6084   71.3872   54.6553  H     
48   H        37.4915   72.3453   55.9266  H     
49   H        36.2609   73.6034   55.7238  H     
50   H        37.7165   73.6340   54.7004  H     
51   H        42.1437   73.2917   58.7204  H     
52   H        43.1692   71.9152   59.2168  H     
53   H        42.6065   73.0768   60.4446  H     
@<TRIPOS>BOND
     1    1    2 1
     2    1    5 1
     3    2    3 1
     4    2    7 1
     5    2    8 1
     6    3    4 1
     7    3    9 2
     8    4    5 2
     9    4   10 1
    10    5    6 1
    11    7   11 1
    12    7   21 1
    13   11   12 1
    14   12   13 1
    15   13   14 1
    16   14   15 1
    17   15   16 1
    18   16   17 1
    19   17   18 1
    20   18   19 1
    21   19   20 1
    22    6   22 1
    23    7   23 1
    24    8   24 1
    25    8   25 1
    26    8   26 1
    27   10   27 1
    28   10   28 1
    29   10   29 1
    30   11   30 1
    31   11   31 1
    32   12   32 1
    33   12   33 1
    34   13   34 1
    35   13   35 1
    36   14   36 1
    37   14   37 1
    38   15   38 1
    39   15   39 1
    40   16   40 1
    41   16   41 1
    42   17   42 1
    43   17   43 1
    44   18   44 1
    45   18   45 1
    46   19   46 1
    47   19   47 1
    48   20   48 1
    49   20   49 1
    50   20   50 1
    51   21   51 1
    52   21   52 1
    53   21   53 1
@<TRIPOS>PROPERTY_DATA
  Total_Score	| 8.7286
  Crash		| -5.4319
  Polar		| 2.9132
  FragIndex	| 1
  FragRMSD	| 0.365

