@<TRIPOS>MOLECULE
BindingDB_50180116
 44 44 0 0 0
SMALL
NO_CHARGES


@<TRIPOS>ATOM
1    S        38.3188   71.3989   60.4920  S     
2    C        39.5785   72.6727   60.1433  C     
3    C        40.0131   73.1517   61.4434  C     
4    C        39.4698   72.5572   62.5123  C     
5    C        38.5672   71.6252   62.1696  C     
6    O        37.9563   70.8252   63.0353  O     
7    C        40.7583   72.1624   59.2405  C     
8    C        38.8329   73.7850   59.3644  C     
9    O        40.8224   74.0671   61.5323  O     
10   C        39.7902   72.9297   63.8919  C     
11   C        41.4971   70.8847   59.7215  C     
12   C        41.8673   69.8512   58.5988  C     
13   C        40.8211   68.7285   58.3047  C     
14   C        40.1884   68.6720   56.8762  C     
15   C        38.6669   68.2717   56.8649  C     
16   C        37.8542   69.0277   55.7999  C     
17   C        38.2959   68.7856   54.3201  C     
18   C        37.5186   69.6749   53.3184  C     
19   H        38.5898   70.0872   63.1442  H     
20   H        40.3451   71.9882   58.2422  H     
21   H        41.5065   72.9615   59.1344  H     
22   H        38.4178   73.3610   58.4401  H     
23   H        39.5329   74.5904   59.1004  H     
24   H        38.0202   74.2178   59.9567  H     
25   H        40.8427   72.7783   64.0926  H     
26   H        39.2417   72.3560   64.6183  H     
27   H        39.5472   73.9704   64.0527  H     
28   H        42.4247   71.2274   60.1819  H     
29   H        40.9025   70.4072   60.4955  H     
30   H        42.1470   70.3541   57.6770  H     
31   H        42.7545   69.3316   58.9371  H     
32   H        41.3272   67.7719   58.4317  H     
33   H        40.0220   68.7643   59.0305  H     
34   H        40.3791   69.6135   56.3973  H     
35   H        40.7133   67.9056   56.2835  H     
36   H        38.5829   67.1973   56.6690  H     
37   H        38.1613   68.4379   57.8372  H     
38   H        36.8130   68.7470   55.8710  H     
39   H        37.9252   70.0784   56.1253  H     
40   H        39.3623   68.9669   54.2044  H     
41   H        38.1278   67.7387   54.0478  H     
42   H        36.5206   69.2851   53.1362  H     
43   H        38.0576   69.7067   52.3712  H     
44   H        37.4181   70.6853   53.7007  H     
@<TRIPOS>BOND
     1    1    2 1
     2    1    5 1
     3    2    3 1
     4    2    7 1
     5    2    8 1
     6    3    4 1
     7    3    9 2
     8    4    5 2
     9    4   10 1
    10    5    6 1
    11    7   11 1
    12   11   12 1
    13   12   13 1
    14   13   14 1
    15   14   15 1
    16   15   16 1
    17   16   17 1
    18   17   18 1
    19    6   19 1
    20    7   20 1
    21    7   21 1
    22    8   22 1
    23    8   23 1
    24    8   24 1
    25   10   25 1
    26   10   26 1
    27   10   27 1
    28   11   28 1
    29   11   29 1
    30   12   30 1
    31   12   31 1
    32   13   32 1
    33   13   33 1
    34   14   34 1
    35   14   35 1
    36   15   36 1
    37   15   37 1
    38   16   38 1
    39   16   39 1
    40   17   40 1
    41   17   41 1
    42   18   42 1
    43   18   43 1
    44   18   44 1
@<TRIPOS>PROPERTY_DATA
  Total_Score	| 6.1928
  Crash		| -4.9685
  Polar		| 2.4755
  FragIndex	| 1
  FragRMSD	| 0.560

