@<TRIPOS>MOLECULE
BindingDB_50180110
 38 38 0 0 0
SMALL
NO_CHARGES


@<TRIPOS>ATOM
1    S        38.1409   71.9261   60.5179  S     
2    C        39.8556   72.4150   60.1690  C     
3    C        40.2331   73.0295   61.4420  C     
4    C        39.6109   72.5152   62.5215  C     
5    C        38.5140   71.8433   62.1693  C     
6    O        37.7519   71.1271   62.9769  O     
7    C        40.7433   71.1349   59.8541  C     
8    C        39.8151   73.4548   59.0055  C     
9    O        41.0820   73.9063   61.5370  O     
10   C        40.0969   72.5822   63.8927  C     
11   C        40.1550   70.1724   58.7451  C     
12   C        41.1455   69.4927   57.7508  C     
13   C        40.5082   68.4088   56.8293  C     
14   C        38.9582   68.4192   56.7089  C     
15   C        38.4506   68.5890   55.2569  C     
16   C        42.2520   71.4874   59.6740  C     
17   H        38.3211   70.3880   63.2812  H     
18   H        40.7281   70.5275   60.7638  H     
19   H        39.4605   72.9921   58.0823  H     
20   H        40.8058   73.8708   58.8165  H     
21   H        39.1464   74.2861   59.2484  H     
22   H        40.2426   71.5757   64.2892  H     
23   H        39.3673   73.1066   64.5132  H     
24   H        41.0484   73.1114   63.9678  H     
25   H        39.6119   69.3664   59.2510  H     
26   H        39.3990   70.6976   58.1475  H     
27   H        41.5935   70.2610   57.1149  H     
28   H        41.9586   69.0271   58.3131  H     
29   H        40.9359   68.5050   55.8282  H     
30   H        40.8055   67.4314   57.2096  H     
31   H        38.5502   67.4982   57.1257  H     
32   H        38.5596   69.2278   57.3277  H     
33   H        39.1732   69.1423   54.6344  H     
34   H        37.5102   69.1422   55.2630  H     
35   H        38.2665   67.6081   54.8183  H     
36   H        42.4346   71.9580   58.7068  H     
37   H        42.8567   70.5799   59.7444  H     
38   H        42.6016   72.1643   60.4550  H     
@<TRIPOS>BOND
     1    1    2 1
     2    1    5 1
     3    2    3 1
     4    2    7 1
     5    2    8 1
     6    3    4 1
     7    3    9 2
     8    4    5 2
     9    4   10 1
    10    5    6 1
    11    7   11 1
    12    7   16 1
    13   11   12 1
    14   12   13 1
    15   13   14 1
    16   14   15 1
    17    6   17 1
    18    7   18 1
    19    8   19 1
    20    8   20 1
    21    8   21 1
    22   10   22 1
    23   10   23 1
    24   10   24 1
    25   11   25 1
    26   11   26 1
    27   12   27 1
    28   12   28 1
    29   13   29 1
    30   13   30 1
    31   14   31 1
    32   14   32 1
    33   15   33 1
    34   15   34 1
    35   15   35 1
    36   16   36 1
    37   16   37 1
    38   16   38 1
@<TRIPOS>PROPERTY_DATA
  Total_Score	| 7.4983
  Crash		| -2.0679
  Polar		| 2.5620
  FragIndex	| 1
  FragRMSD	| 0.230

