@<TRIPOS>MOLECULE
BindingDB_50180130
 56 56 0 0 0
SMALL
NO_CHARGES


@<TRIPOS>ATOM
1    S        38.4308   71.5526   60.4184  S     
2    C        39.9678   72.4874   60.1878  C     
3    C        40.0986   73.2173   61.4415  C     
4    C        39.4185   72.6998   62.4859  C     
5    C        38.5427   71.7682   62.0995  C     
6    O        37.8127   71.0234   62.9204  O     
7    C        41.1551   71.4890   60.0149  C     
8    C        39.8065   73.4521   58.9776  C     
9    O        40.9544   74.0844   61.5904  O     
10   C        39.6463   73.0979   63.8700  C     
11   C        41.3007   70.7834   58.6274  C     
12   C        41.5681   69.2582   58.7364  C     
13   C        41.7755   68.5107   57.3961  C     
14   C        40.5908   68.5641   56.3969  C     
15   C        39.2556   67.9352   56.8918  C     
16   C        38.2107   67.7898   55.7451  C     
17   C        37.6341   69.1453   55.2650  C     
18   C        37.8645   69.5076   53.7593  C     
19   C        37.1032   70.7875   53.3178  C     
20   C        36.4880   71.6081   54.5008  C     
21   C        36.7132   73.1343   54.4321  C     
22   C        37.0090   73.6515   53.0057  C     
23   H        38.4051   70.2831   63.1801  H     
24   H        42.1030   72.0032   60.2109  H     
25   H        41.0562   70.7173   60.7887  H     
26   H        39.5647   72.8876   58.0710  H     
27   H        40.7370   74.0031   58.8060  H     
28   H        39.0010   74.1685   59.1526  H     
29   H        40.6877   72.9112   64.1388  H     
30   H        39.0126   72.5484   64.5752  H     
31   H        39.4346   74.1653   63.9884  H     
32   H        40.3931   70.9331   58.0357  H     
33   H        42.1318   71.2423   58.0867  H     
34   H        42.4696   69.0969   59.3367  H     
35   H        40.7249   68.8030   59.2600  H     
36   H        42.6497   68.9423   56.9014  H     
37   H        42.0107   67.4650   57.6007  H     
38   H        40.4200   69.6094   56.1304  H     
39   H        40.9182   68.0509   55.4857  H     
40   H        39.4655   66.9461   57.2899  H     
41   H        38.8423   68.5329   57.7061  H     
42   H        38.6675   67.2704   54.9019  H     
43   H        37.3859   67.1624   56.0878  H     
44   H        36.5559   69.1005   55.4363  H     
45   H        38.0153   69.9598   55.8863  H     
46   H        38.9243   69.6847   53.5663  H     
47   H        37.5398   68.6853   53.1229  H     
48   H        37.7904   71.4073   52.7478  H     
49   H        36.3007   70.5080   52.6271  H     
50   H        35.4114   71.4124   54.5581  H     
51   H        36.9170   71.2729   55.4464  H     
52   H        35.8123   73.6274   54.8185  H     
53   H        37.5415   73.4126   55.0940  H     
54   H        37.9842   73.2997   52.6502  H     
55   H        37.0119   74.7373   53.0268  H     
56   H        36.2368   73.3083   52.3147  H     
@<TRIPOS>BOND
     1    1    2 1
     2    1    5 1
     3    2    3 1
     4    2    7 1
     5    2    8 1
     6    3    4 1
     7    3    9 2
     8    4    5 2
     9    4   10 1
    10    5    6 1
    11    7   11 1
    12   11   12 1
    13   12   13 1
    14   13   14 1
    15   14   15 1
    16   15   16 1
    17   16   17 1
    18   17   18 1
    19   18   19 1
    20   19   20 1
    21   20   21 1
    22   21   22 1
    23    6   23 1
    24    7   24 1
    25    7   25 1
    26    8   26 1
    27    8   27 1
    28    8   28 1
    29   10   29 1
    30   10   30 1
    31   10   31 1
    32   11   32 1
    33   11   33 1
    34   12   34 1
    35   12   35 1
    36   13   36 1
    37   13   37 1
    38   14   38 1
    39   14   39 1
    40   15   40 1
    41   15   41 1
    42   16   42 1
    43   16   43 1
    44   17   44 1
    45   17   45 1
    46   18   46 1
    47   18   47 1
    48   19   48 1
    49   19   49 1
    50   20   50 1
    51   20   51 1
    52   21   52 1
    53   21   53 1
    54   22   54 1
    55   22   55 1
    56   22   56 1
@<TRIPOS>PROPERTY_DATA
  Total_Score	| 7.9551
  Crash		| -8.9397
  Polar		| 3.0129
  FragIndex	| 1
  FragRMSD	| 0.391

