@<TRIPOS>MOLECULE
BindingDB_50180127
 59 59 0 0 0
SMALL
NO_CHARGES


@<TRIPOS>ATOM
1    S        38.3252   71.6835   60.5314  S     
2    C        39.7341   72.8175   60.3972  C     
3    C        40.1758   73.0428   61.7662  C     
4    C        39.4650   72.4261   62.7270  C     
5    C        38.4904   71.6632   62.2233  C     
6    O        37.6638   70.9208   62.9437  O     
7    C        40.8604   72.2278   59.4762  C     
8    C        39.2034   74.1436   59.7848  C     
9    O        41.0010   73.9101   62.0323  O     
10   C        39.7342   72.5689   64.1537  C     
11   C        41.2273   70.7171   59.6205  C     
12   C        40.4122   69.7057   58.7674  C     
13   C        40.9425   69.4874   57.3262  C     
14   C        40.3518   68.2311   56.6287  C     
15   C        38.8191   68.0326   56.7571  C     
16   C        37.8927   68.9225   55.8929  C     
17   C        38.1953   68.9365   54.3687  C     
18   C        37.2610   69.8751   53.5471  C     
19   C        36.6962   71.0526   54.3744  C     
20   C        36.0746   72.1825   53.5180  C     
21   C        36.2203   73.6518   54.0064  C     
22   C        37.2909   74.0177   55.0714  C     
23   C        37.0149   73.6071   56.5354  C     
24   H        38.1543   70.0921   63.1194  H     
25   H        40.5879   72.4225   58.4348  H     
26   H        41.7769   72.7976   59.6661  H     
27   H        38.8152   73.9806   58.7772  H     
28   H        40.0037   74.8846   59.7295  H     
29   H        38.4051   74.5689   60.3941  H     
30   H        40.7527   72.2399   64.3664  H     
31   H        39.0543   71.9825   64.7755  H     
32   H        39.6316   73.6144   64.4490  H     
33   H        42.2848   70.5795   59.3726  H     
34   H        41.1234   70.4307   60.6672  H     
35   H        40.4468   68.7454   59.2866  H     
36   H        39.3696   70.0126   58.7343  H     
37   H        40.7397   70.3643   56.7161  H     
38   H        42.0221   69.3584   57.3585  H     
39   H        40.6185   68.2558   55.5703  H     
40   H        40.8359   67.3539   57.0533  H     
41   H        38.5710   66.9926   56.5387  H     
42   H        38.5306   68.1972   57.7940  H     
43   H        36.8712   68.5380   56.0157  H     
44   H        37.9205   69.9309   56.3010  H     
45   H        39.2371   69.2421   54.2012  H     
46   H        38.0828   67.9103   53.9939  H     
47   H        37.8383   70.2660   52.7010  H     
48   H        36.4279   69.3014   53.1539  H     
49   H        35.9326   70.6567   55.0308  H     
50   H        37.5126   71.4785   54.9569  H     
51   H        36.5370   72.1237   52.5263  H     
52   H        35.0130   71.9424   53.4116  H     
53   H        36.4366   74.2790   53.1291  H     
54   H        35.2487   73.9702   54.3759  H     
55   H        38.2552   73.6051   54.7607  H     
56   H        37.3990   75.1044   55.0673  H     
57   H        36.0046   73.9103   56.8558  H     
58   H        37.7585   74.0931   57.1897  H     
59   H        37.1246   72.5357   56.6570  H     
@<TRIPOS>BOND
     1    1    2 1
     2    1    5 1
     3    2    3 1
     4    2    7 1
     5    2    8 1
     6    3    4 1
     7    3    9 2
     8    4    5 2
     9    4   10 1
    10    5    6 1
    11    7   11 1
    12   11   12 1
    13   12   13 1
    14   13   14 1
    15   14   15 1
    16   15   16 1
    17   16   17 1
    18   17   18 1
    19   18   19 1
    20   19   20 1
    21   20   21 1
    22   21   22 1
    23   22   23 1
    24    6   24 1
    25    7   25 1
    26    7   26 1
    27    8   27 1
    28    8   28 1
    29    8   29 1
    30   10   30 1
    31   10   31 1
    32   10   32 1
    33   11   33 1
    34   11   34 1
    35   12   35 1
    36   12   36 1
    37   13   37 1
    38   13   38 1
    39   14   39 1
    40   14   40 1
    41   15   41 1
    42   15   42 1
    43   16   43 1
    44   16   44 1
    45   17   45 1
    46   17   46 1
    47   18   47 1
    48   18   48 1
    49   19   49 1
    50   19   50 1
    51   20   51 1
    52   20   52 1
    53   21   53 1
    54   21   54 1
    55   22   55 1
    56   22   56 1
    57   23   57 1
    58   23   58 1
    59   23   59 1
@<TRIPOS>PROPERTY_DATA
  Total_Score	| 3.8749
  Crash		| -10.6280
  Polar		| 2.6108
  FragIndex	| 1
  FragRMSD	| 0.525

