@<TRIPOS>MOLECULE
BindingDB_50180104
 50 50 0 0 0
SMALL
NO_CHARGES


@<TRIPOS>ATOM
1    S        38.5431   71.6628   60.3741  S     
2    C        39.5602   73.1688   60.3542  C     
3    C        39.9839   73.3474   61.7285  C     
4    C        39.4086   72.5446   62.6388  C     
5    C        38.6022   71.6435   62.0725  C     
6    O        37.8326   70.8047   62.7430  O     
7    C        40.7561   73.1198   59.3382  C     
8    C        38.6069   74.3275   59.9343  C     
9    O        40.7226   74.2751   62.0370  O     
10   C        39.6313   72.6859   64.0703  C     
11   C        42.0592   72.3523   59.7293  C     
12   C        42.0051   70.8043   59.6775  C     
13   C        41.7056   70.2250   58.2695  C     
14   C        41.6512   68.6722   58.2944  C     
15   C        41.4633   68.0026   56.9112  C     
16   C        40.3145   68.5658   56.0345  C     
17   C        38.8594   68.1801   56.4280  C     
18   C        37.8677   68.1456   55.2325  C     
19   C        37.7932   69.4568   54.4017  C     
20   C        36.6870   69.4830   53.3239  C     
21   H        38.3574   69.9802   62.7867  H     
22   H        40.3830   72.7398   58.3860  H     
23   H        41.0843   74.1497   59.1545  H     
24   H        38.2746   74.2126   58.8987  H     
25   H        39.1099   75.2924   60.0290  H     
26   H        37.7172   74.3638   60.5641  H     
27   H        40.6921   72.5433   64.2816  H     
28   H        39.0771   71.9473   64.6519  H     
29   H        39.3340   73.6853   64.4012  H     
30   H        42.8651   72.6880   59.0627  H     
31   H        42.3562   72.6509   60.7422  H     
32   H        42.9785   70.4197   60.0201  H     
33   H        41.2504   70.4429   60.3769  H     
34   H        40.7557   70.6187   57.9190  H     
35   H        42.4961   70.5384   57.5812  H     
36   H        42.6111   68.3190   58.6862  H     
37   H        40.8704   68.3267   58.9828  H     
38   H        42.3960   68.1190   56.3514  H     
39   H        41.3160   66.9303   57.0580  H     
40   H        40.3905   69.6538   56.0348  H     
41   H        40.4999   68.2204   55.0162  H     
42   H        38.8682   67.1912   56.8833  H     
43   H        38.4822   68.8789   57.1781  H     
44   H        38.1488   67.3339   54.5613  H     
45   H        36.8755   67.9118   55.6234  H     
46   H        37.6368   70.3028   55.0779  H     
47   H        38.7416   69.5933   53.8767  H     
48   H        36.7943   68.6391   52.6455  H     
49   H        36.7762   70.3915   52.7280  H     
50   H        35.7002   69.4690   53.7879  H     
@<TRIPOS>BOND
     1    1    2 1
     2    1    5 1
     3    2    3 1
     4    2    7 1
     5    2    8 1
     6    3    4 1
     7    3    9 2
     8    4    5 2
     9    4   10 1
    10    5    6 1
    11    7   11 1
    12   11   12 1
    13   12   13 1
    14   13   14 1
    15   14   15 1
    16   15   16 1
    17   16   17 1
    18   17   18 1
    19   18   19 1
    20   19   20 1
    21    6   21 1
    22    7   22 1
    23    7   23 1
    24    8   24 1
    25    8   25 1
    26    8   26 1
    27   10   27 1
    28   10   28 1
    29   10   29 1
    30   11   30 1
    31   11   31 1
    32   12   32 1
    33   12   33 1
    34   13   34 1
    35   13   35 1
    36   14   36 1
    37   14   37 1
    38   15   38 1
    39   15   39 1
    40   16   40 1
    41   16   41 1
    42   17   42 1
    43   17   43 1
    44   18   44 1
    45   18   45 1
    46   19   46 1
    47   19   47 1
    48   20   48 1
    49   20   49 1
    50   20   50 1
@<TRIPOS>PROPERTY_DATA
  Total_Score	| 6.8681
  Crash		| -6.7687
  Polar		| 2.7863
  FragIndex	| 1
  FragRMSD	| 0.923

