@<TRIPOS>MOLECULE
BindingDB_50180123
 32 32 0 0 0
SMALL
NO_CHARGES


@<TRIPOS>ATOM
1    S        38.3318   71.4506   60.4259  S     
2    C        39.8085   72.4543   60.1026  C     
3    C        40.0241   73.1336   61.3756  C     
4    C        39.3979   72.5945   62.4384  C     
5    C        38.4959   71.6834   62.0953  C     
6    O        37.7289   70.9817   62.9155  O     
7    C        41.1079   71.6345   59.7045  C     
8    C        39.4480   73.4889   59.0004  C     
9    O        40.8105   74.0680   61.4957  O     
10   C        39.7396   72.9265   63.8172  C     
11   C        41.0610   70.1504   59.2153  C     
12   C        40.6816   69.8249   57.7258  C     
13   C        41.5847   68.6979   57.1511  C     
14   C        39.1922   69.4195   57.5385  C     
15   H        38.3056   70.2425   63.2269  H     
16   H        41.6763   72.2052   58.9562  H     
17   H        41.7717   71.6049   60.5837  H     
18   H        39.2630   73.0047   58.0413  H     
19   H        40.2599   74.2056   58.8590  H     
20   H        38.5485   74.0493   59.2795  H     
21   H        40.7969   72.6868   64.0008  H     
22   H        39.1343   72.3760   64.5496  H     
23   H        39.5836   73.9980   63.9871  H     
24   H        42.0673   69.7695   59.4109  H     
25   H        40.4328   69.5608   59.8778  H     
26   H        40.8685   70.7175   57.1174  H     
27   H        42.6435   68.9828   57.1932  H     
28   H        41.3350   68.4955   56.1038  H     
29   H        41.4465   67.7773   57.7251  H     
30   H        38.9370   68.5967   58.2026  H     
31   H        39.0121   69.1023   56.5061  H     
32   H        38.5260   70.2512   57.7379  H     
@<TRIPOS>BOND
     1    1    2 1
     2    1    5 1
     3    2    3 1
     4    2    7 1
     5    2    8 1
     6    3    4 1
     7    3    9 2
     8    4    5 2
     9    4   10 1
    10    5    6 1
    11    7   11 1
    12   11   12 1
    13   12   13 1
    14   12   14 1
    15    6   15 1
    16    7   16 1
    17    7   17 1
    18    8   18 1
    19    8   19 1
    20    8   20 1
    21   10   21 1
    22   10   22 1
    23   10   23 1
    24   11   24 1
    25   11   25 1
    26   12   26 1
    27   13   27 1
    28   13   28 1
    29   13   29 1
    30   14   30 1
    31   14   31 1
    32   14   32 1
@<TRIPOS>PROPERTY_DATA
  Total_Score	| 7.0264
  Crash		| -1.3841
  Polar		| 2.9157
  FragIndex	| 1
  FragRMSD	| 0.372

