@<TRIPOS>MOLECULE
BindingDB_50180129
 47 47 0 0 0
SMALL
NO_CHARGES


@<TRIPOS>ATOM
1    S        38.2838   71.8501   60.6242  S     
2    C        39.7607   72.9135   60.5319  C     
3    C        40.0352   73.2216   61.9279  C     
4    C        39.3964   72.4735   62.8441  C     
5    C        38.4971   71.6585   62.2919  C     
6    O        37.7099   70.8243   62.9569  O     
7    C        41.0364   72.2191   59.8655  C     
8    C        39.2536   74.1945   59.8075  C     
9    O        40.8509   74.0762   62.2489  O     
10   C        39.6661   72.5423   64.2734  C     
11   C        40.7112   70.9812   58.9539  C     
12   C        41.9070   70.1029   58.5019  C     
13   C        41.4989   68.6906   57.9736  C     
14   C        40.6346   68.6272   56.6787  C     
15   C        39.0893   68.8245   56.8187  C     
16   C        41.9909   73.2269   59.1519  C     
17   C        38.3002   68.4173   55.5278  C     
18   C        37.3596   69.5126   54.9306  C     
19   C        37.4819   69.6406   53.3913  C     
20   H        38.2464   70.0116   63.0890  H     
21   H        41.6426   71.7880   60.6705  H     
22   H        39.0241   73.9814   58.7623  H     
23   H        40.0004   74.9901   59.8434  H     
24   H        38.3518   74.5919   60.2806  H     
25   H        40.7205   72.3294   64.4551  H     
26   H        39.0754   71.8310   64.8579  H     
27   H        39.4355   73.5434   64.6375  H     
28   H        40.0585   70.2993   59.5069  H     
29   H        40.1816   71.3253   58.0655  H     
30   H        42.4788   70.6254   57.7322  H     
31   H        42.5685   69.9527   59.3608  H     
32   H        42.4369   68.1606   57.7653  H     
33   H        40.9861   68.1334   58.7594  H     
34   H        41.0259   69.3413   55.9545  H     
35   H        40.7893   67.6289   56.2585  H     
36   H        38.7353   68.2078   57.6526  H     
37   H        38.8666   69.8606   57.0786  H     
38   H        41.5277   73.6550   58.2587  H     
39   H        42.9239   72.7473   58.8538  H     
40   H        42.2448   74.0456   59.8296  H     
41   H        39.0114   68.1027   54.7618  H     
42   H        37.7016   67.5266   55.7512  H     
43   H        36.3239   69.2717   55.1772  H     
44   H        37.5753   70.4935   55.3567  H     
45   H        38.5069   69.9089   53.1174  H     
46   H        36.8137   70.4252   53.0335  H     
47   H        37.2147   68.6976   52.9079  H     
@<TRIPOS>BOND
     1    1    2 1
     2    1    5 1
     3    2    3 1
     4    2    7 1
     5    2    8 1
     6    3    4 1
     7    3    9 2
     8    4    5 2
     9    4   10 1
    10    5    6 1
    11    7   11 1
    12    7   16 1
    13   11   12 1
    14   12   13 1
    15   13   14 1
    16   14   15 1
    17   15   17 1
    18   17   18 1
    19   18   19 1
    20    6   20 1
    21    7   21 1
    22    8   22 1
    23    8   23 1
    24    8   24 1
    25   10   25 1
    26   10   26 1
    27   10   27 1
    28   11   28 1
    29   11   29 1
    30   12   30 1
    31   12   31 1
    32   13   32 1
    33   13   33 1
    34   14   34 1
    35   14   35 1
    36   15   36 1
    37   15   37 1
    38   16   38 1
    39   16   39 1
    40   16   40 1
    41   17   41 1
    42   17   42 1
    43   18   43 1
    44   18   44 1
    45   19   45 1
    46   19   46 1
    47   19   47 1
@<TRIPOS>PROPERTY_DATA
  Total_Score	| 8.1209
  Crash		| -3.6913
  Polar		| 2.7059
  FragIndex	| 1
  FragRMSD	| 0.603

