@<TRIPOS>MOLECULE
BindingDB_11435
 66 69 0 0 0
SMALL
NO_CHARGES


@<TRIPOS>ATOM
1    C        37.4253  135.5992   31.7395  C     
2    C        38.3843  134.6777   32.0455  C     
3    C        39.3844  134.3789   31.1530  C     
4    C        38.5888  136.0561   29.7507  C     
5    C        38.5078  136.9158   28.6728  C     
6    C        37.3840  137.6914   28.9534  C     
7    N        36.4091  135.9167   32.5668  N     
8    C        35.7342  135.1138   33.4320  C     
9    C        34.9933  135.7493   34.4668  C     
10   C        35.7002  133.6952   33.3462  C     
11   C        35.0498  132.9296   34.3274  C     
12   C        34.4136  133.5731   35.4191  C     
13   C        34.3699  134.9819   35.4697  C     
14   S        33.6742  132.5883   36.6449  S     
15   O        32.7257  133.4169   37.6199  O     
16   O        32.6451  131.6448   35.8738  O     
17   N        34.7273  131.5973   37.5479  N     
18   C        35.6115  132.2423   38.4856  C     
19   C        35.0893  130.2990   37.0541  C     
20   N        37.5677  136.3186   30.6019  N     
21   N        39.4877  135.0802   30.0311  N     
22   N        36.8501  137.2948   30.1227  N     
23   C        41.0238  132.7454   30.4191  C     
24   C        40.1543  132.0296   29.3376  C     
25   C        41.9884  131.7283   31.0924  C     
26   C        41.2308  130.5060   31.6726  C     
27   C        40.3060  129.8039   30.6435  C     
28   C        39.3762  130.8159   29.9171  C     
29   C        39.4335  136.9655   27.5040  C     
30   C        40.9207  136.9560   27.9572  C     
31   C        39.1398  135.8004   26.5212  C     
32   N        41.0958  128.9934   29.6965  N     
33   O        40.2516  133.3882   31.4649  O     
34   H        38.3886  134.2239   32.9279  H     
35   H        37.0218  138.4396   28.3608  H     
36   H        36.1106  136.8452   32.5281  H     
37   H        34.9737  136.7745   34.5389  H     
38   H        36.1318  133.2072   32.5570  H     
39   H        35.0326  131.9042   34.2356  H     
40   H        33.8843  135.4561   36.2427  H     
41   H        36.4357  132.7172   37.9533  H     
42   H        36.0262  131.5302   39.2031  H     
43   H        35.0975  133.0066   39.0656  H     
44   H        34.2449  129.8281   36.5344  H     
45   H        35.3948  129.6380   37.8772  H     
46   H        35.9265  130.4027   36.3527  H     
47   H        41.6396  133.4981   29.9232  H     
48   H        39.4365  132.7374   28.9119  H     
49   H        40.7970  131.6844   28.5210  H     
50   H        42.7194  131.3797   30.3572  H     
51   H        42.5403  132.2315   31.8958  H     
52   H        41.9522  129.7809   32.0627  H     
53   H        40.6153  130.8449   32.5126  H     
54   H        39.6734  129.0911   31.1893  H     
55   H        38.6226  131.1724   30.6248  H     
56   H        38.8484  130.3128   29.1009  H     
57   H        39.2570  137.9003   26.9651  H     
58   H        41.1429  137.8426   28.5571  H     
59   H        41.5734  136.9490   27.0838  H     
60   H        41.1626  136.0688   28.5429  H     
61   H        39.3604  134.8340   26.9801  H     
62   H        39.7453  135.9059   25.6171  H     
63   H        38.0909  135.8143   26.2237  H     
64   H        41.6956  129.5654   29.0956  H     
65   H        40.4524  128.4609   29.1066  H     
66   H        41.6732  128.3309   30.2216  H     
@<TRIPOS>BOND
     1    1    2 2
     2    1    7 1
     3    1   20 1
     4    2    3 1
     5    3   21 2
     6    3   33 1
     7    4    5 2
     8    4   20 1
     9    4   21 1
    10    5    6 1
    11    5   29 1
    12    6   22 2
    13    7    8 1
    14    8    9 1
    15    8   10 2
    16    9   13 2
    17   10   11 1
    18   11   12 2
    19   12   13 1
    20   12   14 1
    21   14   15 2
    22   14   16 2
    23   14   17 1
    24   17   18 1
    25   17   19 1
    26   20   22 1
    27   23   24 1
    28   23   25 1
    29   23   33 1
    30   24   28 1
    31   25   26 1
    32   26   27 1
    33   27   28 1
    34   27   32 1
    35   29   30 1
    36   29   31 1
    37    2   34 1
    38    6   35 1
    39    7   36 1
    40    9   37 1
    41   10   38 1
    42   11   39 1
    43   13   40 1
    44   18   41 1
    45   18   42 1
    46   18   43 1
    47   19   44 1
    48   19   45 1
    49   19   46 1
    50   23   47 1
    51   24   48 1
    52   24   49 1
    53   25   50 1
    54   25   51 1
    55   26   52 1
    56   26   53 1
    57   27   54 1
    58   28   55 1
    59   28   56 1
    60   29   57 1
    61   30   58 1
    62   30   59 1
    63   30   60 1
    64   31   61 1
    65   31   62 1
    66   31   63 1
    67   32   64 1
    68   32   65 1
    69   32   66 1
@<TRIPOS>PROPERTY_DATA
  Total_Score	| 10.8429
  Crash		| -2.5182
  Polar		| 3.1172
  FragIndex	| 1
  FragRMSD	| 0.406

