@<TRIPOS>MOLECULE
BindingDB_5595
 50 52 0 0 0
SMALL
NO_CHARGES


@<TRIPOS>ATOM
1    C        38.8594  135.1811   30.2900  C     
2    C        36.9952  136.2693   31.2883  C     
3    C        37.9323  137.1678   29.2948  C     
4    C        38.8956  136.1290   29.2478  C     
5    N        37.9207  135.2807   31.2674  N     
6    N        37.0261  137.2032   30.3051  N     
7    O        39.7200  134.1253   30.2797  O     
8    N        37.8420  138.1313   28.3620  N     
9    N        36.0417  136.3796   32.2394  N     
10   C        39.0732  132.8267   30.2316  C     
11   C        39.8938  131.8386   29.3453  C     
12   C        41.3927  131.7240   29.7558  C     
13   C        41.5949  130.9087   31.0674  C     
14   C        40.9720  129.4969   30.9450  C     
15   C        39.4624  129.5732   30.5718  C     
16   C        39.2238  130.4216   29.2925  C     
17   C        35.6897  135.5185   33.2405  C     
18   C        35.1924  133.2948   34.1607  C     
19   C        34.5667  133.8827   35.2821  C     
20   C        34.5364  135.2897   35.3938  C     
21   C        35.0707  136.0972   34.3728  C     
22   C        35.7496  134.1046   33.1509  C     
23   N        32.6147  133.7843   37.3069  N     
24   S        33.7265  132.8835   36.4324  S     
25   O        32.9274  131.7380   35.6684  O     
26   O        34.7753  132.2763   37.4579  O     
27   N        39.8211  135.9600   28.2715  N     
28   O        40.1241  136.7398   27.4060  O     
29   H        37.1708  138.8375   28.4183  H     
30   H        38.4723  138.1333   27.6347  H     
31   H        35.5065  137.1866   32.1980  H     
32   H        38.9981  132.4449   31.2548  H     
33   H        38.0622  132.8697   29.8095  H     
34   H        39.8688  132.2520   28.3265  H     
35   H        41.9381  131.2201   28.9476  H     
36   H        41.8366  132.7191   29.8724  H     
37   H        42.6653  130.8191   31.2602  H     
38   H        41.1460  131.4445   31.9121  H     
39   H        41.5105  128.9233   30.1775  H     
40   H        41.0823  128.9734   31.9019  H     
41   H        39.0889  128.5605   30.4056  H     
42   H        38.8970  129.9978   31.4104  H     
43   H        38.1463  130.5310   29.1373  H     
44   H        39.6264  129.8813   28.4270  H     
45   H        35.2152  132.2749   34.0489  H     
46   H        34.0927  135.7457   36.1941  H     
47   H        34.9967  137.1135   34.4515  H     
48   H        36.1395  133.6484   32.3278  H     
49   H        32.2828  133.4526   38.1523  H     
50   H        32.2087  134.5620   36.8867  H     
@<TRIPOS>BOND
     1    1    4 1
     2    1    5 2
     3    1    7 1
     4    2    5 1
     5    2    6 2
     6    2    9 1
     7    3    4 2
     8    3    6 1
     9    3    8 1
    10    4   27 1
    11    7   10 1
    12    9   17 1
    13   10   11 1
    14   11   12 1
    15   11   16 1
    16   12   13 1
    17   13   14 1
    18   14   15 1
    19   15   16 1
    20   17   21 2
    21   17   22 1
    22   18   19 1
    23   18   22 2
    24   19   20 2
    25   19   24 1
    26   20   21 1
    27   23   24 am
    28   24   25 2
    29   24   26 2
    30   27   28 2
    31    8   29 1
    32    8   30 1
    33    9   31 1
    34   10   32 1
    35   10   33 1
    36   11   34 1
    37   12   35 1
    38   12   36 1
    39   13   37 1
    40   13   38 1
    41   14   39 1
    42   14   40 1
    43   15   41 1
    44   15   42 1
    45   16   43 1
    46   16   44 1
    47   18   45 1
    48   20   46 1
    49   21   47 1
    50   22   48 1
    51   23   49 1
    52   23   50 1
@<TRIPOS>PROPERTY_DATA
  Total_Score	| 8.3632
  Crash		| -1.5309
  Polar		| 3.5536
  FragIndex	| 1
  FragRMSD	| 1.117

