@<TRIPOS>MOLECULE
BindingDB_50259445
 81 86 0 0 0
SMALL
NO_CHARGES


@<TRIPOS>ATOM
1    C         6.6564    5.7484   -1.5194  C     
2    C         6.3913    5.7924   -2.9824  C     
3    C         5.4813    6.9758   -3.4134  C     
4    C         4.0193    6.8629   -2.9176  C     
5    O         3.3615    8.1350   -3.0827  O     
6    C         2.0057    8.1239   -2.8569  C     
7    C         1.4934    7.9550   -1.5491  C     
8    C         0.1061    7.9689   -1.3213  C     
9    C        -0.7797    8.1898   -2.3901  C     
10   C        -0.2819    8.3985   -3.6899  C     
11   C         1.1126    8.3696   -3.9272  C     
12   N         8.4986    3.5258    4.6472  N     
13   C         7.2395    3.7898    5.3429  C     
14   N         7.8183    6.1809    5.4762  N     
15   C         9.5431    4.4912    4.9413  C     
16   C         6.3554    5.4698    3.6549  C     
17   C         7.3165    5.7760    2.7313  C     
18   C         7.0999    5.7657    1.3209  C     
19   C         7.6439    6.7683    0.4808  C     
20   C         7.4465    6.7534   -0.9158  C     
21   C         6.1390    4.7240   -0.7075  C     
22   C         6.3772    4.7230    0.6931  C     
23   C         5.0282    5.3005    3.3528  C     
24   O         4.6174    4.1583    3.5077  O     
25   N         4.1559    6.2508    2.9203  N     
26   C         2.7894    5.9123    2.5429  C     
27   C         1.7286    6.0181    3.5955  C     
28   C         0.3531    5.7923    3.2758  C     
29   C        -0.6503    5.9533    4.2639  C     
30   C        -0.2921    6.3168    5.5762  C     
31   C         1.0505    6.5362    5.9050  C     
32   C         2.0492    6.3782    4.9253  C     
33   C         8.6746    2.5210    3.7665  C     
34   C         7.6599    1.5628    3.3774  C     
35   O         9.7577    2.3875    3.1908  O     
36   C         4.5961    7.6019    2.6473  C     
37   C         3.6076    8.7921    2.7354  C     
38   C         4.6990    8.6169    3.8068  C     
39   Cl       -0.1154    5.3553    1.6975  Cl    
40   Cl       -2.3054    5.7222    3.9591  Cl    
41   F        -1.1312    8.6408   -4.6538  F     
42   F         2.2988    7.8034   -0.5341  F     
43   Cl        1.7087    8.6593   -5.4917  Cl    
44   C         6.7415    5.2467    5.0705  C     
45   C         9.0325    5.9367    4.6719  C     
46   C         8.6728    6.1950    3.1716  C     
47   H         7.3492    5.8787   -3.5020  H     
48   H         5.9237    4.8584   -3.3249  H     
49   H         5.9070    7.9194   -3.0483  H     
50   H         5.4686    7.0293   -4.5024  H     
51   H         3.5157    6.0818   -3.5068  H     
52   H         4.0047    6.5696   -1.8616  H     
53   H        -0.2641    7.8368   -0.3776  H     
54   H        -1.7884    8.2150   -2.2140  H     
55   H         6.4378    3.0935    5.0983  H     
56   H         7.4177    3.6752    6.4176  H     
57   H         7.5026    7.1389    5.3354  H     
58   H         8.0375    6.0488    6.4661  H     
59   H         9.8134    4.3995    5.9971  H     
60   H        10.4677    4.3429    4.3740  H     
61   H         8.1760    7.5530    0.8577  H     
62   H         7.8628    7.4907   -1.4843  H     
63   H         5.5820    3.9685   -1.1096  H     
64   H         6.0143    3.9436    1.2320  H     
65   H         2.4791    6.5567    1.7148  H     
66   H         2.7595    4.8941    2.1257  H     
67   H        -1.0062    6.4318    6.3003  H     
68   H         1.3051    6.8008    6.8590  H     
69   H         3.0157    6.5568    5.2040  H     
70   H         7.3141    1.0064    4.2520  H     
71   H         8.0250    0.8375    2.6414  H     
72   H         6.8222    2.0936    2.9255  H     
73   H         5.3416    7.7486    1.8601  H     
74   H         3.7825    9.6033    2.0138  H     
75   H         2.5886    8.5966    3.0775  H     
76   H         4.3281    8.3058    4.7885  H     
77   H         5.4952    9.3558    3.7384  H     
78   H         5.8990    5.4510    5.7352  H     
79   H         9.8060    6.6409    4.9859  H     
80   H         9.4320    5.7058    2.5506  H     
81   H         8.7728    7.2735    3.0144  H     
@<TRIPOS>BOND
     1    1    2 1
     2    1   20 2
     3    1   21 1
     4    2    3 1
     5    3    4 1
     6    4    5 1
     7    5    6 1
     8    6    7 2
     9    6   11 1
    10    7    8 1
    11    7   42 1
    12    8    9 2
    13    9   10 1
    14   10   11 2
    15   10   41 1
    16   11   43 1
    17   12   13 1
    18   12   15 1
    19   12   33 am
    20   13   44 1
    21   14   44 1
    22   14   45 1
    23   15   45 1
    24   16   17 2
    25   16   23 1
    26   16   44 1
    27   17   18 1
    28   17   46 1
    29   18   19 2
    30   18   22 1
    31   19   20 1
    32   21   22 2
    33   23   24 2
    34   23   25 am
    35   25   26 1
    36   25   36 1
    37   26   27 1
    38   27   28 2
    39   27   32 1
    40   28   29 1
    41   28   39 1
    42   29   30 2
    43   29   40 1
    44   30   31 1
    45   31   32 2
    46   33   34 1
    47   33   35 2
    48   36   37 1
    49   36   38 1
    50   37   38 1
    51   45   46 1
    52    2   47 1
    53    2   48 1
    54    3   49 1
    55    3   50 1
    56    4   51 1
    57    4   52 1
    58    8   53 1
    59    9   54 1
    60   13   55 1
    61   13   56 1
    62   14   57 1
    63   14   58 1
    64   15   59 1
    65   15   60 1
    66   19   61 1
    67   20   62 1
    68   21   63 1
    69   22   64 1
    70   26   65 1
    71   26   66 1
    72   30   67 1
    73   31   68 1
    74   32   69 1
    75   34   70 1
    76   34   71 1
    77   34   72 1
    78   36   73 1
    79   37   74 1
    80   37   75 1
    81   38   76 1
    82   38   77 1
    83   44   78 1
    84   45   79 1
    85   46   80 1
    86   46   81 1
@<TRIPOS>PROPERTY_DATA
  Total_Score	| 12.5263
  Crash		| -1.3716
  Polar		| 3.4837
  FragIndex	| 1
  FragRMSD	| 0.234

