@<TRIPOS>MOLECULE
BindingDB_50311803
 77 82 0 0 0
SMALL
NO_CHARGES


@<TRIPOS>ATOM
1    N         7.7212    4.2899    4.2567  N     
2    C         6.8817    5.5315    4.3729  C     
3    C         8.9842    4.6963    3.6338  C     
4    C         7.3199    5.9179    5.8080  C     
5    C         9.6634    5.6890    4.6508  C     
6    C         8.5647    5.2057    2.1940  C     
7    C         7.0943    5.4229    1.9606  C     
8    C         6.2504    5.4793    3.0388  C     
9    C         6.6785    5.5263    0.6185  C     
10   C         7.1231    6.6131   -0.1714  C     
11   C         6.8713    6.6662   -1.5580  C     
12   C         6.1104    5.6648   -2.1944  C     
13   C         5.6179    4.5969   -1.4065  C     
14   C         5.9219    4.5197   -0.0305  C     
15   C         5.9745    5.6634   -3.6808  C     
16   C         5.0002    6.7393   -4.2913  C     
17   C         3.4608    6.4767   -3.9873  C     
18   O         2.9708    7.5876   -3.1682  O     
19   C         1.6066    7.7350   -3.1094  C     
20   C         1.0532    7.5723   -1.8388  C     
21   C        -0.3047    7.8467   -1.5822  C     
22   C        -1.1310    8.2495   -2.6340  C     
23   C        -0.6214    8.3928   -3.9310  C     
24   C         0.7558    8.1402   -4.1614  C     
25   Cl        1.4047    8.5717   -5.6520  Cl    
26   F         1.8010    7.1687   -0.8333  F     
27   F        -1.4033    8.7671   -4.9031  F     
28   C         4.8899    5.3988    3.0133  C     
29   C        -0.7497    6.0063    4.2296  C     
30   C        -0.3758    6.5041    5.4933  C     
31   C         0.9589    6.8511    5.7584  C     
32   C         1.9243    6.7038    4.7561  C     
33   C         1.5907    6.2081    3.4673  C     
34   C         0.2421    5.8341    3.2260  C     
35   C         2.6414    6.0729    2.4166  C     
36   N         4.0427    6.3909    2.6842  N     
37   O         4.4642    4.2869    3.2933  O     
38   C         4.5175    7.7352    2.4233  C     
39   C         3.5461    8.9023    2.7199  C     
40   C         4.8165    8.7310    3.5655  C     
41   Cl       -0.2209    5.1804    1.7242  Cl    
42   Cl       -2.3957    5.6429    3.9740  Cl    
43   N         8.8267    6.0618    5.8504  N     
44   H         7.9045    3.8685    5.1685  H     
45   H         7.2607    3.5822    3.6761  H     
46   H         7.2816    6.5141    4.0637  H     
47   H         9.6126    3.8075    3.5328  H     
48   H         6.8677    6.8556    6.1401  H     
49   H         7.0108    5.1556    6.5258  H     
50   H        10.5869    5.2372    5.0242  H     
51   H         9.9460    6.6082    4.1382  H     
52   H         9.1046    6.1278    1.9818  H     
53   H         8.9071    4.4482    1.4801  H     
54   H         7.6635    7.3804    0.2320  H     
55   H         7.2852    7.4259   -2.0944  H     
56   H         5.1135    3.8232   -1.8424  H     
57   H         5.6197    3.6838    0.4806  H     
58   H         6.9613    5.8320   -4.0984  H     
59   H         5.6704    4.6710   -4.0332  H     
60   H         5.2660    7.7468   -3.9639  H     
61   H         5.1618    6.6982   -5.3772  H     
62   H         3.0461    6.2792   -4.9091  H     
63   H         3.4048    5.5669   -3.4316  H     
64   H        -0.6853    7.7759   -0.6448  H     
65   H        -2.1103    8.4639   -2.4645  H     
66   H        -1.0752    6.6148    6.2336  H     
67   H         1.2220    7.2304    6.6759  H     
68   H         2.8771    6.9904    4.9839  H     
69   H         2.3133    6.7417    1.6035  H     
70   H         2.5744    5.0693    1.9768  H     
71   H         5.1114    7.9023    1.5219  H     
72   H         3.5475    9.6971    1.9737  H     
73   H         2.6172    8.6870    3.2378  H     
74   H         4.6340    8.4233    4.5952  H     
75   H         5.5658    9.4887    3.3776  H     
76   H         9.0369    7.0369    6.0715  H     
77   H         9.1547    5.4928    6.6321  H     
@<TRIPOS>BOND
     1    1    2 1
     2    1    3 1
     3    2    4 1
     4    2    8 1
     5    3    5 1
     6    3    6 1
     7    4   43 1
     8    5   43 1
     9    6    7 1
    10    7    8 2
    11    7    9 1
    12    8   28 1
    13    9   10 2
    14    9   14 1
    15   10   11 1
    16   11   12 2
    17   12   13 1
    18   12   15 1
    19   13   14 2
    20   15   16 1
    21   16   17 1
    22   17   18 1
    23   18   19 1
    24   19   20 2
    25   19   24 1
    26   20   21 1
    27   20   26 1
    28   21   22 2
    29   22   23 1
    30   23   24 2
    31   23   27 1
    32   24   25 1
    33   28   36 am
    34   28   37 2
    35   29   30 2
    36   29   34 1
    37   29   42 1
    38   30   31 1
    39   31   32 2
    40   32   33 1
    41   33   34 2
    42   33   35 1
    43   34   41 1
    44   35   36 1
    45   36   38 1
    46   38   39 1
    47   38   40 1
    48   39   40 1
    49    1   44 1
    50    1   45 1
    51    2   46 1
    52    3   47 1
    53    4   48 1
    54    4   49 1
    55    5   50 1
    56    5   51 1
    57    6   52 1
    58    6   53 1
    59   10   54 1
    60   11   55 1
    61   13   56 1
    62   14   57 1
    63   15   58 1
    64   15   59 1
    65   16   60 1
    66   16   61 1
    67   17   62 1
    68   17   63 1
    69   21   64 1
    70   22   65 1
    71   30   66 1
    72   31   67 1
    73   32   68 1
    74   35   69 1
    75   35   70 1
    76   38   71 1
    77   39   72 1
    78   39   73 1
    79   40   74 1
    80   40   75 1
    81   43   76 1
    82   43   77 1
@<TRIPOS>PROPERTY_DATA
  Total_Score	| 10.3611
  Crash		| -2.6543
  Polar		| 2.1816
  FragIndex	| 1
  FragRMSD	| 1.137

