@<TRIPOS>MOLECULE
BindingDB_50311800
 77 82 0 0 0
SMALL
NO_CHARGES


@<TRIPOS>ATOM
1    N         7.1293    3.9346    4.4685  N     
2    C         6.0812    5.0067    4.6321  C     
3    C         8.3823    4.6594    4.2738  C     
4    C         5.9658    4.9648    6.1656  C     
5    C         8.6065    5.4343    5.6485  C     
6    C         8.1441    5.4057    2.8828  C     
7    C         6.7283    5.4127    2.3358  C     
8    C         5.7020    5.1494    3.2274  C     
9    C         6.5460    5.5549    0.9500  C     
10   C         7.3280    6.4820    0.2149  C     
11   C         7.2334    6.5774   -1.1888  C     
12   C         6.3572    5.7333   -1.9090  C     
13   C         5.5566    4.8178   -1.1866  C     
14   C         5.6587    4.7300    0.2175  C     
15   C         6.2970    5.7745   -3.3975  C     
16   C         5.4307    6.9339   -3.9677  C     
17   C         3.8913    6.7575   -3.7934  C     
18   O         3.2765    8.0524   -3.9546  O     
19   C         1.9529    8.1018   -3.5694  C     
20   C         0.9573    8.2276   -4.5665  C     
21   C        -0.4042    8.2564   -4.2122  C     
22   C        -0.7857    8.1318   -2.8710  C     
23   C         0.1914    8.0181   -1.8454  C     
24   C         1.5648    8.0704   -2.2076  C     
25   Cl        2.7351    8.1616   -0.9798  Cl    
26   F         1.2909    8.2790   -5.8116  F     
27   F        -0.1602    7.8926   -0.5936  F     
28   C         4.3522    5.1848    2.9952  C     
29   C        -1.1141    5.8795    4.1715  C     
30   C        -0.7522    6.3800    5.4305  C     
31   C         0.5769    6.7212    5.7004  C     
32   C         1.5567    6.5799    4.6956  C     
33   C         1.2112    6.1517    3.3919  C     
34   C        -0.1342    5.7470    3.1528  C     
35   C         2.2103    6.1416    2.2606  C     
36   N         3.6328    6.2731    2.6095  N     
37   O         3.8037    4.1045    3.2072  O     
38   C         4.2951    7.5440    2.3976  C     
39   C         3.5364    8.8746    2.6336  C     
40   C         4.6587    8.4563    3.5979  C     
41   Cl       -0.6123    5.0845    1.6606  Cl    
42   Cl       -2.7591    5.5136    3.9570  Cl    
43   C         7.4191    5.3028    6.7251  C     
44   H         7.2077    3.3395    5.2922  H     
45   H         6.9395    3.3488    3.6565  H     
46   H         6.3762    6.0735    4.6544  H     
47   H         9.1825    3.9196    4.1535  H     
48   H         5.2397    5.6955    6.5191  H     
49   H         5.6256    3.9839    6.5049  H     
50   H         9.5405    5.0892    6.1010  H     
51   H         8.7521    6.4948    5.4246  H     
52   H         8.4745    6.4383    2.9950  H     
53   H         8.7925    4.9231    2.1493  H     
54   H         7.9874    7.1081    0.6832  H     
55   H         7.8252    7.2377   -1.6938  H     
56   H         4.9031    4.1975   -1.6655  H     
57   H         5.0996    4.0154    0.6892  H     
58   H         7.3240    5.8715   -3.7777  H     
59   H         5.9247    4.8206   -3.7968  H     
60   H         5.7279    7.8738   -3.4839  H     
61   H         5.6343    7.0376   -5.0421  H     
62   H         3.5075    6.0515   -4.5384  H     
63   H         3.6977    6.3346   -2.8043  H     
64   H        -1.1119    8.3712   -4.9427  H     
65   H        -1.7820    8.1545   -2.6337  H     
66   H        -1.4576    6.4937    6.1644  H     
67   H         0.8298    7.0620    6.6308  H     
68   H         2.5169    6.8213    4.9432  H     
69   H         2.0920    5.1983    1.7059  H     
70   H         1.9305    6.9607    1.5721  H     
71   H         5.0015    7.6106    1.5735  H     
72   H         3.8093    9.7303    2.0246  H     
73   H         2.5507    8.8530    3.0974  H     
74   H         4.3617    8.0842    4.5754  H     
75   H         5.6279    8.9303    3.4705  H     
76   H         7.3274    6.2486    7.2606  H     
77   H         7.6882    4.5279    7.4476  H     
@<TRIPOS>BOND
     1    1    2 1
     2    1    3 1
     3    2    4 1
     4    2    8 1
     5    3    5 1
     6    3    6 1
     7    4   43 1
     8    5   43 1
     9    6    7 1
    10    7    8 2
    11    7    9 1
    12    8   28 1
    13    9   10 2
    14    9   14 1
    15   10   11 1
    16   11   12 2
    17   12   13 1
    18   12   15 1
    19   13   14 2
    20   15   16 1
    21   16   17 1
    22   17   18 1
    23   18   19 1
    24   19   20 2
    25   19   24 1
    26   20   21 1
    27   20   26 1
    28   21   22 2
    29   22   23 1
    30   23   24 2
    31   23   27 1
    32   24   25 1
    33   28   36 am
    34   28   37 2
    35   29   30 2
    36   29   34 1
    37   29   42 1
    38   30   31 1
    39   31   32 2
    40   32   33 1
    41   33   34 2
    42   33   35 1
    43   34   41 1
    44   35   36 1
    45   36   38 1
    46   38   39 1
    47   38   40 1
    48   39   40 1
    49    1   44 1
    50    1   45 1
    51    2   46 1
    52    3   47 1
    53    4   48 1
    54    4   49 1
    55    5   50 1
    56    5   51 1
    57    6   52 1
    58    6   53 1
    59   10   54 1
    60   11   55 1
    61   13   56 1
    62   14   57 1
    63   15   58 1
    64   15   59 1
    65   16   60 1
    66   16   61 1
    67   17   62 1
    68   17   63 1
    69   21   64 1
    70   22   65 1
    71   30   66 1
    72   31   67 1
    73   32   68 1
    74   35   69 1
    75   35   70 1
    76   38   71 1
    77   39   72 1
    78   39   73 1
    79   40   74 1
    80   40   75 1
    81   43   76 1
    82   43   77 1
@<TRIPOS>PROPERTY_DATA
  Total_Score	| 7.2612
  Crash		| -3.1420
  Polar		| 0.0000
  FragIndex	| 1
  FragRMSD	| 0.837

