@<TRIPOS>MOLECULE
BindingDB_50259459
 88 93 0 0 0
SMALL
NO_CHARGES


@<TRIPOS>ATOM
1    C         6.4918    5.7782   -1.4537  C     
2    C         6.1578    5.8390   -2.9014  C     
3    C         5.4349    7.1422   -3.3424  C     
4    C         4.0003    7.2879   -2.7853  C     
5    O         3.3408    8.3512   -3.5014  O     
6    C         2.0047    8.4592   -3.2159  C     
7    C         1.5768    9.0884   -2.0265  C     
8    C         0.2024    9.2338   -1.7628  C     
9    C        -0.7489    8.7540   -2.6781  C     
10   C        -0.3309    8.1370   -3.8711  C     
11   C         1.0479    7.9963   -4.1454  C     
12   C         9.0233    5.8346    4.6837  C     
13   N         8.3698    3.4350    4.6476  N     
14   C         7.1217    3.7669    5.3371  C     
15   C         6.7020    5.2531    5.0852  C     
16   N         7.8287    6.1183    5.5030  N     
17   C         9.4598    4.3626    4.9365  C     
18   C         6.3256    5.4987    3.6754  C     
19   C         7.3015    5.7672    2.7530  C     
20   C         7.0653    5.7561    1.3587  C     
21   C         6.2820    4.7398    0.7531  C     
22   C         5.9686    4.7700   -0.6154  C     
23   C         7.3509    6.7391   -0.8789  C     
24   C         7.6197    6.7382    0.4970  C     
25   C         4.9913    5.3218    3.3553  C     
26   O         4.5748    4.1817    3.5302  O     
27   N         4.1369    6.2550    2.8785  N     
28   C         2.7740    5.9065    2.4613  C     
29   C         1.6731    6.0709    3.4669  C     
30   C         0.3187    5.8013    3.1149  C     
31   C        -0.7260    6.0268    4.0393  C     
32   C        -0.4453    6.5110    5.3242  C     
33   C         0.8844    6.7584    5.6993  C     
34   C         1.9283    6.5364    4.7841  C     
35   C         8.5355    2.3889    3.8065  C     
36   C         7.5061    1.4071    3.4596  C     
37   O         9.6085    2.2475    3.2207  O     
38   C         4.5814    7.6059    2.5991  C     
39   C         3.6000    8.7892    2.7180  C     
40   C         4.7101    8.6083    3.7596  C     
41   C         7.9604   -0.0475    3.1286  C     
42   C         8.5033   -0.3142    1.8094  C     
43   O         8.6262    0.5635    0.9650  O     
44   N         8.8854   -1.5386    1.5007  N     
45   C         8.6719    6.1282    3.1937  C     
46   Cl       -0.1305    5.2149    1.5862  Cl    
47   F         1.4560    7.4482   -5.2588  F     
48   F        -1.2282    7.7138   -4.7198  F     
49   F         2.4539    9.5501   -1.1753  F     
50   H         7.0920    5.7540   -3.4674  H     
51   H         5.5339    4.9879   -3.1999  H     
52   H         6.0176    8.0119   -3.0405  H     
53   H         5.3797    7.1521   -4.4343  H     
54   H         3.4647    6.3404   -2.9185  H     
55   H         4.0452    7.5259   -1.7189  H     
56   H        -0.1092    9.6974   -0.9098  H     
57   H        -1.7443    8.8679   -2.4763  H     
58   H         9.8317    6.4951    5.0086  H     
59   H         6.2824    3.1301    5.0691  H     
60   H         7.2809    3.6290    6.4130  H     
61   H         5.8694    5.5021    5.7528  H     
62   H         8.0531    5.9408    6.4866  H     
63   H         7.5632    7.0984    5.3974  H     
64   H        10.3718    4.1823    4.3552  H     
65   H         9.7395    4.2543    5.9895  H     
66   H         5.9206    3.9671    1.3194  H     
67   H         5.3637    4.0404   -0.9952  H     
68   H         7.7760    7.4610   -1.4630  H     
69   H         8.2028    7.4929    0.8713  H     
70   H         2.4969    6.5045    1.5849  H     
71   H         2.7672    4.8728    2.1078  H     
72   H        -1.6989    5.8393    3.7811  H     
73   H        -1.2069    6.6829    5.9847  H     
74   H         1.0879    7.1080    6.6394  H     
75   H         2.8797    6.7418    5.0886  H     
76   H         6.8308    1.3024    4.3096  H     
77   H         6.9411    1.8079    2.6155  H     
78   H         5.3270    7.7393    1.8110  H     
79   H         3.7482    9.5740    1.9730  H     
80   H         2.5904    8.5843    3.0787  H     
81   H         4.3638    8.2836    4.7436  H     
82   H         5.5043    9.3533    3.6892  H     
83   H         8.7070   -0.3516    3.8679  H     
84   H         7.0859   -0.6983    3.2563  H     
85   H         9.2453   -1.7454    0.6212  H     
86   H         8.7909   -2.2482    2.1579  H     
87   H         8.8095    7.2037    3.0387  H     
88   H         9.4098    5.6144    2.5663  H     
@<TRIPOS>BOND
     1    1    2 1
     2    1   22 2
     3    1   23 1
     4    2    3 1
     5    3    4 1
     6    4    5 1
     7    5    6 1
     8    6    7 2
     9    6   11 1
    10    7    8 1
    11    7   49 1
    12    8    9 2
    13    9   10 1
    14   10   11 2
    15   10   48 1
    16   11   47 1
    17   12   16 1
    18   12   17 1
    19   12   45 1
    20   13   14 1
    21   13   17 1
    22   13   35 am
    23   14   15 1
    24   15   16 1
    25   15   18 1
    26   18   19 2
    27   18   25 1
    28   19   20 1
    29   19   45 1
    30   20   21 2
    31   20   24 1
    32   21   22 1
    33   23   24 2
    34   25   26 2
    35   25   27 am
    36   27   28 1
    37   27   38 1
    38   28   29 1
    39   29   30 2
    40   29   34 1
    41   30   31 1
    42   30   46 1
    43   31   32 2
    44   32   33 1
    45   33   34 2
    46   35   36 1
    47   35   37 2
    48   36   41 1
    49   38   39 1
    50   38   40 1
    51   39   40 1
    52   41   42 1
    53   42   43 2
    54   42   44 am
    55    2   50 1
    56    2   51 1
    57    3   52 1
    58    3   53 1
    59    4   54 1
    60    4   55 1
    61    8   56 1
    62    9   57 1
    63   12   58 1
    64   14   59 1
    65   14   60 1
    66   15   61 1
    67   16   62 1
    68   16   63 1
    69   17   64 1
    70   17   65 1
    71   21   66 1
    72   22   67 1
    73   23   68 1
    74   24   69 1
    75   28   70 1
    76   28   71 1
    77   31   72 1
    78   32   73 1
    79   33   74 1
    80   34   75 1
    81   36   76 1
    82   36   77 1
    83   38   78 1
    84   39   79 1
    85   39   80 1
    86   40   81 1
    87   40   82 1
    88   41   83 1
    89   41   84 1
    90   44   85 1
    91   44   86 1
    92   45   87 1
    93   45   88 1
@<TRIPOS>PROPERTY_DATA
  Total_Score	| 12.8525
  Crash		| -2.2441
  Polar		| 4.3670
  FragIndex	| 1
  FragRMSD	| 0.321

