@<TRIPOS>MOLECULE
BindingDB_50311805
 84 89 0 0 0
SMALL
NO_CHARGES


@<TRIPOS>ATOM
1    N         6.1611    3.5625    4.6006  N     
2    C         6.4799    5.0316    4.5955  C     
3    C         7.3954    2.8708    4.2019  C     
4    C         6.8619    5.1452    6.1025  C     
5    C         8.4562    3.2382    5.3221  C     
6    C         7.6113    3.3202    2.6940  C     
7    C         6.8308    4.5207    2.2429  C     
8    C         6.1869    5.3012    3.1786  C     
9    C         6.7383    4.7611    0.8716  C     
10   C         5.7510    4.1146    0.0973  C     
11   C         5.6177    4.4031   -1.2717  C     
12   C         6.4531    5.3588   -1.8963  C     
13   C         7.4441    5.9965   -1.1169  C     
14   C         7.5977    5.6929    0.2456  C     
15   C         6.3019    5.6855   -3.3414  C     
16   C         5.5044    6.9923   -3.6038  C     
17   C         3.9915    6.8878   -3.2911  C     
18   O         3.4060    8.2090   -3.2841  O     
19   C         2.0522    8.2202   -3.0465  C     
20   C         1.5643    8.0806   -1.7254  C     
21   C         0.1811    8.0945   -1.4730  C     
22   C        -0.7260    8.2766   -2.5319  C     
23   C        -0.2502    8.4563   -3.8459  C     
24   C         1.1380    8.4345   -4.1069  C     
25   Cl        1.7089    8.6825   -5.6867  Cl    
26   F         2.3909    7.9406   -0.7241  F     
27   F        -1.1186    8.6564   -4.8020  F     
28   C         5.4407    6.4014    2.8876  C     
29   C        -0.5297    6.0901    3.8038  C     
30   C        -0.5969    6.5901    5.1193  C     
31   C         0.5473    6.6228    5.9258  C     
32   C         1.7738    6.1958    5.4039  C     
33   C         1.8921    5.7481    4.0634  C     
34   C         0.7158    5.6759    3.2549  C     
35   C         3.2816    5.4433    3.5696  C     
36   N         4.1252    6.5670    3.1516  N     
37   O         6.0881    7.3086    2.3642  O     
38   C         3.4705    7.8002    2.7580  C     
39   C         3.1265    8.7800    3.8936  C     
40   C         4.1359    9.2039    2.8279  C     
41   C         0.7919    5.1893    1.8527  C     
42   N         7.8826    4.0785    6.4477  N     
43   C        -2.7385    5.2687    3.5182  C     
44   O        -1.6684    6.1050    3.0353  O     
45   H         5.8765    3.2427    5.5284  H     
46   H         5.4119    3.3374    3.9408  H     
47   H         7.5109    5.3684    4.3801  H     
48   H         7.2066    1.7924    4.2388  H     
49   H         7.2495    6.1367    6.3572  H     
50   H         5.9691    5.0001    6.7103  H     
51   H         8.8697    2.3251    5.7584  H     
52   H         9.2919    3.7870    4.8782  H     
53   H         8.6758    3.4945    2.5233  H     
54   H         7.3196    2.4705    2.0729  H     
55   H         5.1193    3.4309    0.5258  H     
56   H         4.8940    3.9239   -1.8077  H     
57   H         8.0607    6.6951   -1.5405  H     
58   H         8.3252    6.1717    0.7849  H     
59   H         7.2980    5.7867   -3.7808  H     
60   H         5.8131    4.8634   -3.8771  H     
61   H         5.9393    7.8099   -3.0215  H     
62   H         5.6079    7.2546   -4.6614  H     
63   H         3.5136    6.2619   -4.0536  H     
64   H         3.8595    6.4105   -2.3171  H     
65   H        -0.1708    7.9793   -0.5172  H     
66   H        -1.7306    8.2893   -2.3387  H     
67   H        -1.4896    6.9180    5.4939  H     
68   H         0.4913    6.9737    6.8818  H     
69   H         2.5973    6.2486    6.0092  H     
70   H         3.7718    4.8988    4.3733  H     
71   H         3.2579    4.7453    2.7336  H     
72   H         2.6843    7.7362    1.9991  H     
73   H         2.1519    9.2604    3.8287  H     
74   H         3.5755    8.5931    4.8756  H     
75   H         5.1640    9.2910    3.2089  H     
76   H         3.7713    9.9405    2.1036  H     
77   H        -0.1725    5.1648    1.3498  H     
78   H         1.1849    4.1699    1.8434  H     
79   H         1.4503    5.8347    1.2746  H     
80   H         8.6528    4.5171    6.9439  H     
81   H         7.4282    3.4321    7.0924  H     
82   H        -2.4032    4.2408    3.6899  H     
83   H        -3.5259    5.2536    2.7682  H     
84   H        -3.1622    5.6704    4.4475  H     
@<TRIPOS>BOND
     1    1    2 1
     2    1    3 1
     3    2    4 1
     4    2    8 1
     5    3    5 1
     6    3    6 1
     7    4   42 1
     8    5   42 1
     9    6    7 1
    10    7    8 2
    11    7    9 1
    12    8   28 1
    13    9   10 2
    14    9   14 1
    15   10   11 1
    16   11   12 2
    17   12   13 1
    18   12   15 1
    19   13   14 2
    20   15   16 1
    21   16   17 1
    22   17   18 1
    23   18   19 1
    24   19   20 2
    25   19   24 1
    26   20   21 1
    27   20   26 1
    28   21   22 2
    29   22   23 1
    30   23   24 2
    31   23   27 1
    32   24   25 1
    33   28   36 am
    34   28   37 2
    35   29   30 2
    36   29   34 1
    37   29   44 1
    38   30   31 1
    39   31   32 2
    40   32   33 1
    41   33   34 2
    42   33   35 1
    43   34   41 1
    44   35   36 1
    45   36   38 1
    46   38   39 1
    47   38   40 1
    48   39   40 1
    49   43   44 1
    50    1   45 1
    51    1   46 1
    52    2   47 1
    53    3   48 1
    54    4   49 1
    55    4   50 1
    56    5   51 1
    57    5   52 1
    58    6   53 1
    59    6   54 1
    60   10   55 1
    61   11   56 1
    62   13   57 1
    63   14   58 1
    64   15   59 1
    65   15   60 1
    66   16   61 1
    67   16   62 1
    68   17   63 1
    69   17   64 1
    70   21   65 1
    71   22   66 1
    72   30   67 1
    73   31   68 1
    74   32   69 1
    75   35   70 1
    76   35   71 1
    77   38   72 1
    78   39   73 1
    79   39   74 1
    80   40   75 1
    81   40   76 1
    82   41   77 1
    83   41   78 1
    84   41   79 1
    85   42   80 1
    86   42   81 1
    87   43   82 1
    88   43   83 1
    89   43   84 1
@<TRIPOS>PROPERTY_DATA
  Total_Score	| 10.2604
  Crash		| -2.7985
  Polar		| 1.5683
  FragIndex	| 1
  FragRMSD	| 1.433

