@<TRIPOS>MOLECULE
BindingDB_50311799
 74 79 0 0 0
SMALL
NO_CHARGES


@<TRIPOS>ATOM
1    N         7.6834    3.9494    5.1587  N     
2    C         6.6622    5.0153    5.1369  C     
3    C         8.8425    4.6064    4.5315  C     
4    C         7.4527    6.2157    5.7147  C     
5    C         8.9187    5.9381    5.3091  C     
6    C         8.5231    4.8034    3.0175  C     
7    C         7.1146    5.1463    2.7228  C     
8    C         6.1979    5.2143    3.7363  C     
9    C         6.8009    5.2276    1.3573  C     
10   C         5.9656    4.2737    0.7297  C     
11   C         5.6367    4.3906   -0.6337  C     
12   C         6.1470    5.4538   -1.4122  C     
13   C         7.0506    6.3589   -0.8067  C     
14   C         7.3699    6.2476    0.5573  C     
15   C         5.6562    5.6864   -2.8016  C     
16   C         5.1472    7.1569   -2.9506  C     
17   C         4.2537    7.3974   -4.1952  C     
18   O         3.6285    8.7059   -4.1463  O     
19   C         2.3262    8.7183   -3.7015  C     
20   C         2.0326    8.9360   -2.3354  C     
21   C         0.6967    8.9411   -1.8907  C     
22   C        -0.3556    8.7338   -2.7995  C     
23   C        -0.0751    8.5455   -4.1696  C     
24   C         1.2616    8.5805   -4.6261  C     
25   Cl        1.5983    8.5008   -6.2896  Cl    
26   F         2.9879    9.1691   -1.4722  F     
27   F        -1.0779    8.3793   -4.9934  F     
28   C         4.8404    5.2232    3.5269  C     
29   C        -0.7821    5.8249    4.1077  C     
30   C        -0.5051    6.2204    5.4284  C     
31   C         0.8135    6.4750    5.8289  C     
32   C         1.8625    6.3557    4.9030  C     
33   C         1.6186    5.9972    3.5541  C     
34   C         0.2772    5.7058    3.1681  C     
35   C         2.7336    5.9654    2.5488  C     
36   N         4.0942    6.2287    3.0197  N     
37   O         4.3077    4.1418    3.7668  O     
38   C         4.6579    7.5451    2.7714  C     
39   C         3.7628    8.7997    2.6526  C     
40   C         4.5958    8.5788    3.9194  C     
41   Cl       -0.0880    5.2240    1.5769  Cl    
42   Cl       -2.4065    5.5211    3.7159  Cl    
43   H         7.9023    3.6856    6.1229  H     
44   H         7.3807    3.1303    4.6246  H     
45   H         5.8484    4.7498    5.8236  H     
46   H         9.7543    4.0150    4.6637  H     
47   H         7.0959    7.1682    5.3221  H     
48   H         7.3576    6.2357    6.8052  H     
49   H         9.5486    5.8095    6.1924  H     
50   H         9.3332    6.7500    4.7065  H     
51   H         9.1974    5.5609    2.6163  H     
52   H         8.7555    3.8592    2.5148  H     
53   H         5.5814    3.4843    1.2531  H     
54   H         5.0049    3.7035   -1.0539  H     
55   H         7.4532    7.1302   -1.3474  H     
56   H         7.9914    6.9507    0.9662  H     
57   H         6.4756    5.5042   -3.5146  H     
58   H         4.8266    5.0077   -3.0423  H     
59   H         4.5727    7.4435   -2.0554  H     
60   H         6.0259    7.8183   -3.0469  H     
61   H         4.8911    7.3933   -5.0863  H     
62   H         3.5262    6.5821   -4.3170  H     
63   H         0.4856    9.1194   -0.9071  H     
64   H        -1.3212    8.7481   -2.4600  H     
65   H        -1.2626    6.3271    6.1091  H     
66   H         1.0117    6.7572    6.7912  H     
67   H         2.8065    6.5477    5.2362  H     
68   H         2.7184    4.9906    2.0559  H     
69   H         2.4687    6.6803    1.7608  H     
70   H         5.5700    7.6128    2.1782  H     
71   H         4.1283    9.5791    1.9838  H     
72   H         2.6857    8.6901    2.8031  H     
73   H         3.9970    8.3365    4.8016  H     
74   H         5.4173    9.2965    4.0151  H     
@<TRIPOS>BOND
     1    1    2 1
     2    1    3 1
     3    2    4 1
     4    2    8 1
     5    3    5 1
     6    3    6 1
     7    4    5 1
     8    6    7 1
     9    7    8 2
    10    7    9 1
    11    8   28 1
    12    9   10 2
    13    9   14 1
    14   10   11 1
    15   11   12 2
    16   12   13 1
    17   12   15 1
    18   13   14 2
    19   15   16 1
    20   16   17 1
    21   17   18 1
    22   18   19 1
    23   19   20 2
    24   19   24 1
    25   20   21 1
    26   20   26 1
    27   21   22 2
    28   22   23 1
    29   23   24 2
    30   23   27 1
    31   24   25 1
    32   28   36 am
    33   28   37 2
    34   29   30 2
    35   29   34 1
    36   29   42 1
    37   30   31 1
    38   31   32 2
    39   32   33 1
    40   33   34 2
    41   33   35 1
    42   34   41 1
    43   35   36 1
    44   36   38 1
    45   38   39 1
    46   38   40 1
    47   39   40 1
    48    1   43 1
    49    1   44 1
    50    2   45 1
    51    3   46 1
    52    4   47 1
    53    4   48 1
    54    5   49 1
    55    5   50 1
    56    6   51 1
    57    6   52 1
    58   10   53 1
    59   11   54 1
    60   13   55 1
    61   14   56 1
    62   15   57 1
    63   15   58 1
    64   16   59 1
    65   16   60 1
    66   17   61 1
    67   17   62 1
    68   21   63 1
    69   22   64 1
    70   30   65 1
    71   31   66 1
    72   32   67 1
    73   35   68 1
    74   35   69 1
    75   38   70 1
    76   39   71 1
    77   39   72 1
    78   40   73 1
    79   40   74 1
@<TRIPOS>PROPERTY_DATA
  Total_Score	| 7.4203
  Crash		| -3.0830
  Polar		| 0.0037
  FragIndex	| 1
  FragRMSD	| 0.672

