@<TRIPOS>MOLECULE
BindingDB_50259440
 81 86 0 0 0
SMALL
NO_CHARGES


@<TRIPOS>ATOM
1    C         6.5444    5.7803   -1.4982  C     
2    C         6.3529    5.8159   -2.9810  C     
3    C         5.4645    6.9907   -3.4811  C     
4    C         3.9893    6.8696   -3.0333  C     
5    O         3.2881    8.0992   -3.3063  O     
6    C         1.9283    8.0571   -3.1396  C     
7    C         1.3485    7.8111   -1.8738  C     
8    C        -0.0509    7.7958   -1.7195  C     
9    C        -0.8831    8.0463   -2.8259  C     
10   C        -0.3136    8.3351   -4.0783  C     
11   C         1.0876    8.3466   -4.2373  C     
12   N         8.1356    3.3813    4.7440  N     
13   C         6.9272    3.7941    5.4498  C     
14   N         7.7474    6.1069    5.5211  N     
15   C         9.2842    4.2411    4.9895  C     
16   C         6.2162    5.5134    3.7037  C     
17   C         7.1929    5.7375    2.7704  C     
18   C         6.9589    5.7529    1.3635  C     
19   C         6.1799    4.7570    0.7149  C     
20   C         5.9627    4.7818   -0.6804  C     
21   C         7.3408    6.7589   -0.8627  C     
22   C         7.5316    6.7516    0.5325  C     
23   C         4.8805    5.4047    3.3837  C     
24   O         4.4128    4.2925    3.6090  O     
25   N         4.0724    6.3695    2.8883  N     
26   C         2.6941    6.0528    2.5153  C     
27   C         1.6654    6.0689    3.6033  C     
28   C         0.2958    5.7735    3.3281  C     
29   C        -0.6803    5.8960    4.3505  C     
30   C        -0.3023    6.3026    5.6436  C     
31   C         1.0448    6.5476    5.9354  C     
32   C         2.0152    6.4172    4.9307  C     
33   C         8.1642    2.3119    3.9193  C     
34   C         9.3285    1.8641    3.1662  C     
35   O         7.1557    1.6382    3.7499  O     
36   C         4.5481    7.7167    2.6167  C     
37   C         3.6228    8.9406    2.7928  C     
38   C         4.7592    8.6970    3.7887  C     
39   Cl       -0.1955    5.2749    1.7749  Cl    
40   Cl       -2.3342    5.6070    4.0877  Cl    
41   Br        1.8034    8.7856   -5.8991  Br    
42   F        -0.5743    7.5528   -0.5487  F     
43   C         6.5754    5.2863    5.1314  C     
44   C         8.9259    5.7337    4.7069  C     
45   C         8.5803    6.0283    3.2141  C     
46   H         7.3302    5.9015   -3.4647  H     
47   H         5.9139    4.8775   -3.3358  H     
48   H         5.8750    7.9351   -3.1154  H     
49   H         5.4877    7.0273   -4.5752  H     
50   H         3.5262    6.0272   -3.5634  H     
51   H         3.9603    6.6642   -1.9622  H     
52   H         1.9429    7.6397   -1.0619  H     
53   H        -1.9003    8.0346   -2.7167  H     
54   H        -0.9221    8.5494   -4.8698  H     
55   H         6.0584    3.1704    5.2383  H     
56   H         7.1126    3.6940    6.5236  H     
57   H         7.5325    7.0961    5.3781  H     
58   H         7.9634    5.9590    6.5101  H     
59   H         9.5681    4.1422    6.0427  H     
60   H        10.1734    3.9864    4.4078  H     
61   H         5.7763    3.9836    1.2506  H     
62   H         5.3751    4.0582   -1.0984  H     
63   H         7.7933    7.4946   -1.4112  H     
64   H         8.0951    7.5045    0.9359  H     
65   H         2.3582    6.7458    1.7407  H     
66   H         2.6682    5.0690    2.0399  H     
67   H        -1.0045    6.4252    6.3799  H     
68   H         1.3200    6.8417    6.8767  H     
69   H         2.9837    6.5952    5.1942  H     
70   H         9.6461    2.6482    2.4783  H     
71   H         9.1215    0.9674    2.5752  H     
72   H        10.1481    1.6289    3.8463  H     
73   H         5.2505    7.8479    1.7889  H     
74   H         3.7926    9.7774    2.1069  H     
75   H         2.6246    8.7807    3.2033  H     
76   H         4.3990    8.4219    4.7806  H     
77   H         5.5645    9.4274    3.7029  H     
78   H         5.7584    5.5878    5.7964  H     
79   H         9.7712    6.3578    5.0180  H     
80   H         9.2977    5.4909    2.5865  H     
81   H         8.7652    7.0936    3.0662  H     
@<TRIPOS>BOND
     1    1    2 1
     2    1   20 2
     3    1   21 1
     4    2    3 1
     5    3    4 1
     6    4    5 1
     7    5    6 1
     8    6    7 2
     9    6   11 1
    10    7    8 1
    11    8    9 2
    12    8   42 1
    13    9   10 1
    14   10   11 2
    15   11   41 1
    16   12   13 1
    17   12   15 1
    18   12   33 am
    19   13   43 1
    20   14   43 1
    21   14   44 1
    22   15   44 1
    23   16   17 2
    24   16   23 1
    25   16   43 1
    26   17   18 1
    27   17   45 1
    28   18   19 2
    29   18   22 1
    30   19   20 1
    31   21   22 2
    32   23   24 2
    33   23   25 am
    34   25   26 1
    35   25   36 1
    36   26   27 1
    37   27   28 2
    38   27   32 1
    39   28   29 1
    40   28   39 1
    41   29   30 2
    42   29   40 1
    43   30   31 1
    44   31   32 2
    45   33   34 1
    46   33   35 2
    47   36   37 1
    48   36   38 1
    49   37   38 1
    50   44   45 1
    51    2   46 1
    52    2   47 1
    53    3   48 1
    54    3   49 1
    55    4   50 1
    56    4   51 1
    57    7   52 1
    58    9   53 1
    59   10   54 1
    60   13   55 1
    61   13   56 1
    62   14   57 1
    63   14   58 1
    64   15   59 1
    65   15   60 1
    66   19   61 1
    67   20   62 1
    68   21   63 1
    69   22   64 1
    70   26   65 1
    71   26   66 1
    72   30   67 1
    73   31   68 1
    74   32   69 1
    75   34   70 1
    76   34   71 1
    77   34   72 1
    78   36   73 1
    79   37   74 1
    80   37   75 1
    81   38   76 1
    82   38   77 1
    83   43   78 1
    84   44   79 1
    85   45   80 1
    86   45   81 1
@<TRIPOS>PROPERTY_DATA
  Total_Score	| 12.9605
  Crash		| -1.1109
  Polar		| 3.5426
  FragIndex	| 1
  FragRMSD	| 0.159

