@<TRIPOS>MOLECULE
BindingDB_50259435
 81 86 0 0 0
SMALL
NO_CHARGES


@<TRIPOS>ATOM
1    C         6.6007    5.7289   -1.5006  C     
2    C         6.3171    5.8070   -2.9652  C     
3    C         5.3365    6.9513   -3.3713  C     
4    C         3.9188    6.8499   -2.7663  C     
5    O         3.2862    8.1578   -2.8675  O     
6    C         1.9212    8.1935   -2.7608  C     
7    C         1.3501    9.1122   -1.8522  C     
8    C        -0.0411    9.2539   -1.7620  C     
9    C        -0.8852    8.4866   -2.5930  C     
10   C        -0.3266    7.5763   -3.5117  C     
11   C         1.0644    7.4310   -3.5963  C     
12   N         8.4836    3.4871    4.7493  N     
13   C         7.2112    3.7762    5.4079  C     
14   N         7.8161    6.1621    5.4965  N     
15   C         9.5314    4.4619    5.0199  C     
16   C         6.3678    5.4345    3.6719  C     
17   C         7.3363    5.7023    2.7433  C     
18   C         7.1069    5.6917    1.3383  C     
19   C         7.6437    6.7033    0.4981  C     
20   C         7.4101    6.7060   -0.8895  C     
21   C         6.0928    4.6914   -0.6813  C     
22   C         6.3353    4.6758    0.7085  C     
23   C         5.0351    5.3224    3.3489  C     
24   O         4.5849    4.1861    3.4828  O     
25   N         4.2293    6.3127    2.8923  N     
26   C         2.8448    6.0334    2.5199  C     
27   C         1.8089    6.0783    3.6068  C     
28   C         0.4281    5.8488    3.3181  C     
29   C        -0.5494    6.0186    4.3328  C     
30   C        -0.1599    6.3781    5.6361  C     
31   C         1.2004    6.5427    5.9459  C     
32   C         2.1662    6.4126    4.9387  C     
33   C         8.6923    2.4407    3.9274  C     
34   C         7.6742    1.4769    3.5479  C     
35   O         9.7928    2.2471    3.4204  O     
36   C         4.7112    7.6607    2.6637  C     
37   C         3.6798    8.8197    2.6982  C     
38   C         4.7121    8.6898    3.8142  C     
39   Cl       -0.0800    5.3960    1.7540  Cl    
40   Cl       -2.2159    5.8352    4.0445  Cl    
41   C         6.7336    5.2340    5.0979  C     
42   C         9.0316    5.8998    4.6955  C     
43   C         8.6927    6.1092    3.1893  C     
44   H         7.2697    5.9647   -3.4782  H     
45   H         5.9154    4.8606   -3.3370  H     
46   H         5.7917    7.9040   -3.1076  H     
47   H         5.2547    6.9380   -4.4596  H     
48   H         3.3670    6.0938   -3.3529  H     
49   H         3.9672    6.5058   -1.7152  H     
50   H         1.9651    9.6863   -1.2692  H     
51   H        -0.4456    9.9105   -1.0982  H     
52   H        -1.8990    8.5970   -2.5347  H     
53   H        -0.9372    7.0329   -4.1298  H     
54   H         1.4517    6.7891   -4.2894  H     
55   H         6.4075    3.0809    5.1593  H     
56   H         7.3654    3.6868    6.4881  H     
57   H         7.5080    7.1237    5.3537  H     
58   H         8.0472    6.0273    6.4832  H     
59   H         9.7929    4.4105    6.0807  H     
60   H        10.4576    4.2932    4.4636  H     
61   H         8.1853    7.4791    0.8851  H     
62   H         7.8339    7.4499   -1.4496  H     
63   H         5.5234    3.9447   -1.0847  H     
64   H         5.9597    3.9021    1.2613  H     
65   H         2.5169    6.7481    1.7623  H     
66   H         2.8038    5.0579    2.0271  H     
67   H        -0.8545    6.5083    6.3755  H     
68   H         1.4844    6.7885    6.8986  H     
69   H         3.1363    6.6046    5.1972  H     
70   H         7.2950    0.9731    4.4391  H     
71   H         8.0525    0.7105    2.8636  H     
72   H         6.8600    1.9980    3.0443  H     
73   H         5.4815    7.8010    1.8981  H     
74   H         3.8593    9.6377    2.0033  H     
75   H         2.6603    8.6136    3.0335  H     
76   H         4.3176    8.3533    4.7758  H     
77   H         5.5107    9.4305    3.7756  H     
78   H         5.8788    5.4604    5.7428  H     
79   H         9.8097    6.6101    4.9921  H     
80   H         9.4523    5.6014    2.5857  H     
81   H         8.7987    7.1796    3.0046  H     
@<TRIPOS>BOND
     1    1    2 1
     2    1   20 2
     3    1   21 1
     4    2    3 1
     5    3    4 1
     6    4    5 1
     7    5    6 1
     8    6    7 2
     9    6   11 1
    10    7    8 1
    11    8    9 2
    12    9   10 1
    13   10   11 2
    14   12   13 1
    15   12   15 1
    16   12   33 am
    17   13   41 1
    18   14   41 1
    19   14   42 1
    20   15   42 1
    21   16   17 2
    22   16   23 1
    23   16   41 1
    24   17   18 1
    25   17   43 1
    26   18   19 2
    27   18   22 1
    28   19   20 1
    29   21   22 2
    30   23   24 2
    31   23   25 am
    32   25   26 1
    33   25   36 1
    34   26   27 1
    35   27   28 2
    36   27   32 1
    37   28   29 1
    38   28   39 1
    39   29   30 2
    40   29   40 1
    41   30   31 1
    42   31   32 2
    43   33   34 1
    44   33   35 2
    45   36   37 1
    46   36   38 1
    47   37   38 1
    48   42   43 1
    49    2   44 1
    50    2   45 1
    51    3   46 1
    52    3   47 1
    53    4   48 1
    54    4   49 1
    55    7   50 1
    56    8   51 1
    57    9   52 1
    58   10   53 1
    59   11   54 1
    60   13   55 1
    61   13   56 1
    62   14   57 1
    63   14   58 1
    64   15   59 1
    65   15   60 1
    66   19   61 1
    67   20   62 1
    68   21   63 1
    69   22   64 1
    70   26   65 1
    71   26   66 1
    72   30   67 1
    73   31   68 1
    74   32   69 1
    75   34   70 1
    76   34   71 1
    77   34   72 1
    78   36   73 1
    79   37   74 1
    80   37   75 1
    81   38   76 1
    82   38   77 1
    83   41   78 1
    84   42   79 1
    85   43   80 1
    86   43   81 1
@<TRIPOS>PROPERTY_DATA
  Total_Score	| 13.0349
  Crash		| -1.3896
  Polar		| 3.5204
  FragIndex	| 1
  FragRMSD	| 0.320

