@<TRIPOS>MOLECULE
BindingDB_50259465
 77 82 0 0 0
SMALL
NO_CHARGES


@<TRIPOS>ATOM
1    C         6.5384    5.7037   -1.6267  C     
2    C         6.3018    5.7574   -3.0991  C     
3    C         5.4277    6.9685   -3.5576  C     
4    C         3.9176    6.8052   -3.2436  C     
5    O         3.2918    8.1110   -3.2417  O     
6    C         1.9307    8.0848   -3.0163  C     
7    C         1.4110    7.9461   -1.7083  C     
8    C         0.0245    7.9625   -1.4660  C     
9    C        -0.8692    8.1780   -2.5383  C     
10   C        -0.3686    8.3861   -3.8350  C     
11   C         1.0289    8.3329   -4.0850  C     
12   N         8.1087    3.3352    4.6152  N     
13   C         6.8918    3.7827    5.3320  C     
14   N         7.7492    6.0667    5.3958  N     
15   C         9.2758    4.2239    4.8031  C     
16   C         6.2155    5.4700    3.5506  C     
17   C         7.1988    5.7057    2.6249  C     
18   C         6.9785    5.6964    1.2228  C     
19   C         7.5021    6.7191    0.3877  C     
20   C         7.3090    6.7089   -1.0036  C     
21   C         6.0328    4.6626   -0.8125  C     
22   C         6.2596    4.6551    0.5797  C     
23   C         4.8892    5.3024    3.2165  C     
24   O         4.4895    4.1468    3.3274  O     
25   N         4.0437    6.2641    2.7923  N     
26   C         2.6587    5.9365    2.4468  C     
27   C         1.6289    6.0499    3.5274  C     
28   C         0.2493    5.8018    3.2581  C     
29   C        -0.7270    6.0166    4.2644  C     
30   C        -0.3379    6.4613    5.5369  C     
31   C         1.0175    6.6735    5.8256  C     
32   C         1.9862    6.4711    4.8307  C     
33   C         4.4834    7.6221    2.5271  C     
34   C         3.5229    8.8122    2.7134  C     
35   C         4.6581    8.5884    3.7126  C     
36   Cl       -0.2519    5.2344    1.7356  Cl    
37   Cl       -2.3908    5.7789    4.0013  Cl    
38   Cl        1.6268    8.6260   -5.6480  Cl    
39   F        -1.2252    8.6336   -4.7974  F     
40   F         2.2156    7.8305   -0.6875  F     
41   C         6.5594    5.2722    4.9867  C     
42   C         8.9150    5.7198    4.5556  C     
43   C         8.5621    6.0698    3.0791  C     
44   H         7.2755    5.8207   -3.5939  H     
45   H         5.8255    4.8397   -3.4578  H     
46   H         5.8054    7.8799   -3.0791  H     
47   H         5.5520    7.1012   -4.6421  H     
48   H         3.4579    6.1605   -4.0008  H     
49   H         3.8138    6.3363   -2.2609  H     
50   H        -0.3360    7.8387   -0.5199  H     
51   H        -1.8754    8.2057   -2.3502  H     
52   H         8.3546    2.3933    4.9253  H     
53   H         7.8956    3.2948    3.6190  H     
54   H         6.0651    3.1234    5.0667  H     
55   H         7.0525    3.6800    6.4069  H     
56   H         7.5372    7.0541    5.2940  H     
57   H         7.9802    5.8771    6.3777  H     
58   H         9.6498    4.1045    5.8229  H     
59   H        10.0722    3.9125    4.1236  H     
60   H         8.0494    7.4907    0.7859  H     
61   H         7.7234    7.4596   -1.5618  H     
62   H         5.5037    3.8949   -1.2282  H     
63   H         5.9137    3.8613    1.1256  H     
64   H         2.3099    6.5771    1.6374  H     
65   H         2.6353    4.9186    2.0441  H     
66   H        -1.0334    6.6292    6.2633  H     
67   H         1.2971    6.9965    6.7559  H     
68   H         2.9602    6.6464    5.0777  H     
69   H         5.2035    7.7673    1.7167  H     
70   H         3.6618    9.6402    2.0126  H     
71   H         2.5249    8.6168    3.1026  H     
72   H         4.3279    8.2513    4.6990  H     
73   H         5.4638    9.3223    3.6376  H     
74   H         5.7379    5.5927    5.6294  H     
75   H         9.7621    6.3347    4.8761  H     
76   H         9.3106    5.5997    2.4306  H     
77   H         8.6706    7.1534    2.9811  H     
@<TRIPOS>BOND
     1    1    2 1
     2    1   20 2
     3    1   21 1
     4    2    3 1
     5    3    4 1
     6    4    5 1
     7    5    6 1
     8    6    7 2
     9    6   11 1
    10    7    8 1
    11    7   40 1
    12    8    9 2
    13    9   10 1
    14   10   11 2
    15   10   39 1
    16   11   38 1
    17   12   13 1
    18   12   15 1
    19   13   41 1
    20   14   41 1
    21   14   42 1
    22   15   42 1
    23   16   17 2
    24   16   23 1
    25   16   41 1
    26   17   18 1
    27   17   43 1
    28   18   19 2
    29   18   22 1
    30   19   20 1
    31   21   22 2
    32   23   24 2
    33   23   25 am
    34   25   26 1
    35   25   33 1
    36   26   27 1
    37   27   28 2
    38   27   32 1
    39   28   29 1
    40   28   36 1
    41   29   30 2
    42   29   37 1
    43   30   31 1
    44   31   32 2
    45   33   34 1
    46   33   35 1
    47   34   35 1
    48   42   43 1
    49    2   44 1
    50    2   45 1
    51    3   46 1
    52    3   47 1
    53    4   48 1
    54    4   49 1
    55    8   50 1
    56    9   51 1
    57   12   52 1
    58   12   53 1
    59   13   54 1
    60   13   55 1
    61   14   56 1
    62   14   57 1
    63   15   58 1
    64   15   59 1
    65   19   60 1
    66   20   61 1
    67   21   62 1
    68   22   63 1
    69   26   64 1
    70   26   65 1
    71   30   66 1
    72   31   67 1
    73   32   68 1
    74   33   69 1
    75   34   70 1
    76   34   71 1
    77   35   72 1
    78   35   73 1
    79   41   74 1
    80   42   75 1
    81   43   76 1
    82   43   77 1
@<TRIPOS>PROPERTY_DATA
  Total_Score	| 12.2721
  Crash		| -1.0511
  Polar		| 3.5569
  FragIndex	| 1
  FragRMSD	| 0.995

