@<TRIPOS>MOLECULE
BindingDB_50259436
 81 86 0 0 0
SMALL
NO_CHARGES


@<TRIPOS>ATOM
1    C         6.6954    5.6702   -1.3643  C     
2    C         6.2152    5.8284   -2.7665  C     
3    C         5.2586    7.0526   -3.0085  C     
4    C         4.0841    7.2056   -1.9538  C     
5    O         3.0471    8.2231   -2.0252  O     
6    C         2.4350    8.4593   -3.2284  C     
7    C         0.5516    8.4569   -4.7786  C     
8    C         1.3934    8.9317   -5.8054  C     
9    C         2.7291    9.2756   -5.5281  C     
10   C         3.2231    9.0570   -4.2217  C     
11   N         7.9100    3.3688    5.0430  N     
12   C         6.7257    3.9413    5.6712  C     
13   N         7.7592    6.1515    5.6082  N     
14   C         9.1340    4.1360    5.2449  C     
15   C         6.2831    5.5277    3.7395  C     
16   C         7.3207    5.6837    2.8673  C     
17   C         7.1663    5.6493    1.4599  C     
18   C         7.6801    6.6838    0.6375  C     
19   C         7.4637    6.6893   -0.7522  C     
20   C         6.2277    4.6020   -0.5609  C     
21   C         6.4772    4.5852    0.8244  C     
22   C         4.9740    5.3713    3.3476  C     
23   O         4.5614    4.2215    3.4539  O     
24   N         4.1426    6.3352    2.8878  N     
25   C         2.7583    6.0261    2.5132  C     
26   C         1.7135    6.0655    3.5890  C     
27   C         0.3421    5.8117    3.3059  C     
28   C        -0.6397    5.9754    4.3142  C     
29   C        -0.2559    6.3159    5.6228  C     
30   C         1.0975    6.5210    5.9289  C     
31   C         2.0647    6.3913    4.9273  C     
32   C         7.8536    2.2395    4.3097  C     
33   C         8.9890    1.6218    3.6409  C     
34   O         6.7966    1.6389    4.1714  O     
35   C         4.5885    7.6854    2.6002  C     
36   C         3.4981    8.7510    2.8830  C     
37   C         4.8315    8.8132    3.6181  C     
38   Cl       -2.3034    5.7876    4.0234  Cl    
39   Cl       -0.1411    5.3074    1.7556  Cl    
40   C         1.0660    8.2333   -3.4862  C     
41   Cl        0.0131    7.8008   -2.2234  Cl    
42   C         6.5340    5.4210    5.2011  C     
43   C         8.9332    5.6388    4.8743  C     
44   C         8.6968    5.9023    3.3580  C     
45   H         7.0645    5.9223   -3.4460  H     
46   H         5.6715    4.9229   -3.0751  H     
47   H         5.8630    7.9985   -3.1767  H     
48   H         4.7747    6.8644   -3.9805  H     
49   H         3.5725    6.2506   -1.8683  H     
50   H         4.5374    7.4175   -0.9896  H     
51   H        -0.4357    8.2727   -4.9688  H     
52   H         1.0167    9.0981   -6.7343  H     
53   H         3.3387    9.6663   -6.2488  H     
54   H         4.1851    9.2251   -3.9546  H     
55   H         5.8038    3.3807    5.4893  H     
56   H         6.8755    3.9377    6.7564  H     
57   H         7.6441    7.1501    5.4130  H     
58   H         7.9341    6.0201    6.6076  H     
59   H         9.3943    4.0685    6.3058  H     
60   H         9.9957    3.7680    4.6895  H     
61   H         8.2008    7.4726    1.0383  H     
62   H         7.8227    7.4682   -1.3063  H     
63   H         5.6653    3.8523   -0.9646  H     
64   H         6.1283    3.7945    1.3684  H     
65   H         2.4380    6.7303    1.7358  H     
66   H         2.7225    5.0453    2.0257  H     
67   H        -0.9621    6.4364    6.3567  H     
68   H         1.3657    6.7685    6.8827  H     
69   H         3.0333    6.5697    5.1866  H     
70   H         9.7700    1.3843    4.3753  H     
71   H         9.3937    2.3068    2.8887  H     
72   H         8.7235    0.6898    3.1301  H     
73   H         4.9800    7.8537    1.5958  H     
74   H         3.3663    9.5448    2.1475  H     
75   H         2.6740    8.5277    3.5547  H     
76   H         4.8074    8.5384    4.6689  H     
77   H         5.5087    9.6035    3.2886  H     
78   H         5.7081    5.8712    5.7565  H     
79   H         9.8120    6.1990    5.2064  H     
80   H         9.4034    5.2887    2.7907  H     
81   H         8.9616    6.9451    3.1683  H     
@<TRIPOS>BOND
     1    1    2 1
     2    1   19 2
     3    1   20 1
     4    2    3 1
     5    3    4 1
     6    4    5 1
     7    5    6 1
     8    6   10 1
     9    6   40 2
    10    7    8 2
    11    7   40 1
    12    8    9 1
    13    9   10 2
    14   11   12 1
    15   11   14 1
    16   11   32 am
    17   12   42 1
    18   13   42 1
    19   13   43 1
    20   14   43 1
    21   15   16 2
    22   15   22 1
    23   15   42 1
    24   16   17 1
    25   16   44 1
    26   17   18 2
    27   17   21 1
    28   18   19 1
    29   20   21 2
    30   22   23 2
    31   22   24 am
    32   24   25 1
    33   24   35 1
    34   25   26 1
    35   26   27 2
    36   26   31 1
    37   27   28 1
    38   27   39 1
    39   28   29 2
    40   28   38 1
    41   29   30 1
    42   30   31 2
    43   32   33 1
    44   32   34 2
    45   35   36 1
    46   35   37 1
    47   36   37 1
    48   40   41 1
    49   43   44 1
    50    2   45 1
    51    2   46 1
    52    3   47 1
    53    3   48 1
    54    4   49 1
    55    4   50 1
    56    7   51 1
    57    8   52 1
    58    9   53 1
    59   10   54 1
    60   12   55 1
    61   12   56 1
    62   13   57 1
    63   13   58 1
    64   14   59 1
    65   14   60 1
    66   18   61 1
    67   19   62 1
    68   20   63 1
    69   21   64 1
    70   25   65 1
    71   25   66 1
    72   29   67 1
    73   30   68 1
    74   31   69 1
    75   33   70 1
    76   33   71 1
    77   33   72 1
    78   35   73 1
    79   36   74 1
    80   36   75 1
    81   37   76 1
    82   37   77 1
    83   42   78 1
    84   43   79 1
    85   44   80 1
    86   44   81 1
@<TRIPOS>PROPERTY_DATA
  Total_Score	| 12.8227
  Crash		| -1.5969
  Polar		| 3.4381
  FragIndex	| 1
  FragRMSD	| 0.222

