@<TRIPOS>MOLECULE
BindingDB_50259443
 81 86 0 0 0
SMALL
NO_CHARGES


@<TRIPOS>ATOM
1    C         6.5354    5.7573   -1.4616  C     
2    C         6.2023    5.8244   -2.9129  C     
3    C         5.4393    7.1101   -3.3332  C     
4    C         4.0327    7.2688   -2.6962  C     
5    O         3.3409    8.3461   -3.3684  O     
6    C         1.9857    8.4033   -3.1837  C     
7    C         1.1549    7.8962   -4.2134  C     
8    C        -0.2454    7.9848   -4.1073  C     
9    C        -0.8296    8.5865   -2.9778  C     
10   C        -0.0079    9.1086   -1.9541  C     
11   C         1.3903    9.0318   -2.0666  C     
12   N         8.4203    3.4892    4.7466  N     
13   C         7.1557    3.7941    5.4015  C     
14   N         7.7842    6.1660    5.5093  N     
15   C         9.4852    4.4570    5.0068  C     
16   C         6.3227    5.4737    3.6804  C     
17   C         7.2926    5.7527    2.7598  C     
18   C         7.0613    5.7453    1.3625  C     
19   C         7.5881    6.7530    0.5101  C     
20   C         7.3476    6.7508   -0.8722  C     
21   C         6.0361    4.7240   -0.6353  C     
22   C         6.3066    4.7121    0.7456  C     
23   C         4.9831    5.3258    3.3589  C     
24   O         4.5468    4.1966    3.5522  O     
25   N         4.1636    6.2893    2.8721  N     
26   C         2.7874    5.9731    2.4866  C     
27   C         1.7334    6.0632    3.5526  C     
28   C         0.3647    5.8121    3.2479  C     
29   C        -0.6325    5.9713    4.2487  C     
30   C        -0.2672    6.3695    5.5487  C     
31   C         1.0819    6.5788    5.8686  C     
32   C         2.0702    6.4369    4.8816  C     
33   C         8.6195    2.4282    3.9423  C     
34   C         7.5967    1.4581    3.5847  C     
35   O         9.7184    2.2200    3.4388  O     
36   C         4.6239    7.6371    2.5993  C     
37   C         3.6171    8.8068    2.6723  C     
38   C         4.6918    8.6572    3.7476  C     
39   Cl       -0.1090    5.3236    1.6894  Cl    
40   Cl       -2.2857    5.7197    3.9551  Cl    
41   F         2.1556    9.5779   -1.1587  F     
42   F        -0.5762    9.6812   -0.9292  F     
43   F         1.6806    7.3499   -5.2783  F     
44   C         6.6897    5.2589    5.1022  C     
45   C         8.9957    5.9047    4.7022  C     
46   C         8.6476    6.1516    3.2044  C     
47   H         7.1322    5.7701   -3.4844  H     
48   H         5.6013    4.9610   -3.2107  H     
49   H         6.0321    7.9921   -3.0739  H     
50   H         5.3160    7.0962   -4.4173  H     
51   H         3.4703    6.3198   -2.7709  H     
52   H         4.1355    7.5188   -1.6318  H     
53   H        -0.8440    7.6313   -4.8605  H     
54   H        -1.8526    8.6572   -2.9113  H     
55   H         6.3456    3.1159    5.1459  H     
56   H         7.3059    3.6941    6.4803  H     
57   H         7.4871    7.1320    5.3760  H     
58   H         8.0163    6.0223    6.4970  H     
59   H         9.7633    4.3876    6.0644  H     
60   H        10.4032    4.2843    4.4364  H     
61   H         8.1450    7.5188    0.8971  H     
62   H         7.7538    7.4897   -1.4498  H     
63   H         5.4724    3.9677   -1.0411  H     
64   H         5.9437    3.9296    1.2964  H     
65   H         2.4743    6.6445    1.6801  H     
66   H         2.7586    4.9689    2.0483  H     
67   H        -0.9752    6.4863    6.2758  H     
68   H         1.3421    6.8631    6.8159  H     
69   H         3.0369    6.6136    5.1547  H     
70   H         7.2050    0.9687    4.4822  H     
71   H         7.9792    0.6754    2.9170  H     
72   H         6.7884    1.9718    3.0673  H     
73   H         5.3625    7.7591    1.8112  H     
74   H         3.7838    9.6187    1.9634  H     
75   H         2.6017    8.6027    3.0227  H     
76   H         4.3247    8.3430    4.7237  H     
77   H         5.4778    9.4076    3.6845  H     
78   H         5.8425    5.4888    5.7642  H     
79   H         9.7781    6.6016    5.0172  H     
80   H         9.4019    5.6420    2.5916  H     
81   H         8.7570    7.2196    3.0365  H     
@<TRIPOS>BOND
     1    1    2 1
     2    1   20 2
     3    1   21 1
     4    2    3 1
     5    3    4 1
     6    4    5 1
     7    5    6 1
     8    6    7 2
     9    6   11 1
    10    7    8 1
    11    7   43 1
    12    8    9 2
    13    9   10 1
    14   10   11 2
    15   10   42 1
    16   11   41 1
    17   12   13 1
    18   12   15 1
    19   12   33 am
    20   13   44 1
    21   14   44 1
    22   14   45 1
    23   15   45 1
    24   16   17 2
    25   16   23 1
    26   16   44 1
    27   17   18 1
    28   17   46 1
    29   18   19 2
    30   18   22 1
    31   19   20 1
    32   21   22 2
    33   23   24 2
    34   23   25 am
    35   25   26 1
    36   25   36 1
    37   26   27 1
    38   27   28 2
    39   27   32 1
    40   28   29 1
    41   28   39 1
    42   29   30 2
    43   29   40 1
    44   30   31 1
    45   31   32 2
    46   33   34 1
    47   33   35 2
    48   36   37 1
    49   36   38 1
    50   37   38 1
    51   45   46 1
    52    2   47 1
    53    2   48 1
    54    3   49 1
    55    3   50 1
    56    4   51 1
    57    4   52 1
    58    8   53 1
    59    9   54 1
    60   13   55 1
    61   13   56 1
    62   14   57 1
    63   14   58 1
    64   15   59 1
    65   15   60 1
    66   19   61 1
    67   20   62 1
    68   21   63 1
    69   22   64 1
    70   26   65 1
    71   26   66 1
    72   30   67 1
    73   31   68 1
    74   32   69 1
    75   34   70 1
    76   34   71 1
    77   34   72 1
    78   36   73 1
    79   37   74 1
    80   37   75 1
    81   38   76 1
    82   38   77 1
    83   44   78 1
    84   45   79 1
    85   46   80 1
    86   46   81 1
@<TRIPOS>PROPERTY_DATA
  Total_Score	| 12.4139
  Crash		| -1.9446
  Polar		| 3.4972
  FragIndex	| 1
  FragRMSD	| 0.289

