@<TRIPOS>MOLECULE
BindingDB_50259444
 81 86 0 0 0
SMALL
NO_CHARGES


@<TRIPOS>ATOM
1    C         6.6301    5.7464   -1.5175  C     
2    C         6.3501    5.8104   -2.9778  C     
3    C         5.2285    6.8434   -3.3677  C     
4    C         3.7847    6.2663   -3.3690  C     
5    O         3.1685    6.4660   -2.0736  O     
6    C         2.0799    7.3013   -2.1082  C     
7    C         2.1046    8.5572   -1.4648  C     
8    C         1.0021    9.4282   -1.5896  C     
9    C        -0.1387    9.0381   -2.3168  C     
10   C        -0.1771    7.7746   -2.9431  C     
11   C         0.9272    6.9018   -2.8195  C     
12   N         8.3957    3.4414    4.8025  N     
13   C         7.1003    3.7784    5.3857  C     
14   N         7.7512    6.1555    5.4704  N     
15   C         9.4465    4.4122    5.0815  C     
16   C         6.3558    5.4258    3.6028  C     
17   C         7.3572    5.7085    2.7135  C     
18   C         7.1680    5.7085    1.3111  C     
19   C         6.4727    4.6488    0.6715  C     
20   C         6.1749    4.6820   -0.7028  C     
21   C         7.4108    6.7564   -0.9073  C     
22   C         7.6541    6.7500    0.4791  C     
23   C         5.0328    5.2541    3.2469  C     
24   O         4.6476    4.0935    3.3497  O     
25   N         4.1558    6.2089    2.8612  N     
26   C         2.7683    5.8874    2.5228  C     
27   C         1.7613    6.0062    3.6317  C     
28   C         0.3681    5.8147    3.3860  C     
29   C        -0.5870    6.0667    4.4064  C     
30   C        -0.1532    6.4383    5.6945  C     
31   C         1.2117    6.5683    5.9687  C     
32   C         2.1549    6.3523    4.9503  C     
33   C         8.6312    2.3191    4.0985  C     
34   C         7.6466    1.2908    3.8017  C     
35   O         9.7553    2.0873    3.6653  O     
36   C         4.6075    7.5611    2.5907  C     
37   C         3.6287    8.7576    2.7146  C     
38   C         4.7414    8.5675    3.7573  C     
39   Cl       -0.1851    5.3125    1.8555  Cl    
40   Cl       -2.2645    5.9821    4.1566  Cl    
41   F         0.8975    5.7176   -3.3735  F     
42   F         3.1603    8.9126   -0.7703  F     
43   Cl       -1.5590    7.3325   -3.8224  Cl    
44   C         6.6659    5.2432    5.0393  C     
45   C         8.9905    5.8576    4.7233  C     
46   C         8.7066    6.0826    3.2027  C     
47   H         7.2821    6.1078   -3.4759  H     
48   H         6.0916    4.8103   -3.3586  H     
49   H         5.2243    7.7191   -2.6927  H     
50   H         5.4359    7.2211   -4.3911  H     
51   H         3.2347    6.7194   -4.2068  H     
52   H         3.7991    5.1949   -3.5668  H     
53   H         1.0259   10.3393   -1.1327  H     
54   H        -0.9341    9.6795   -2.3788  H     
55   H         6.2939    3.0982    5.1031  H     
56   H         7.1899    3.6986    6.4755  H     
57   H         7.4679    7.1222    5.2952  H     
58   H         7.9253    6.0351    6.4737  H     
59   H         9.6739    4.3660    6.1505  H     
60   H        10.3818    4.2165    4.5552  H     
61   H         6.1460    3.8388    1.2056  H     
62   H         5.6349    3.9147   -1.1145  H     
63   H         7.7917    7.5235   -1.4686  H     
64   H         8.1496    7.5542    0.8770  H     
65   H         2.4401    6.5591    1.7236  H     
66   H         2.7020    4.8806    2.0964  H     
67   H        -0.8295    6.6267    6.4385  H     
68   H         1.5286    6.8423    6.9030  H     
69   H         3.1348    6.4832    5.1925  H     
70   H         7.2151    0.9063    4.7269  H     
71   H         8.0754    0.4430    3.2624  H     
72   H         6.8597    1.7126    3.1789  H     
73   H         5.3391    7.7067    1.7929  H     
74   H         3.7908    9.5763    2.0043  H     
75   H         2.6204    8.5661    3.0893  H     
76   H         4.3874    8.2507    4.7448  H     
77   H         5.5549    9.2924    3.6734  H     
78   H         5.7940    5.4986    5.6530  H     
79   H         9.7637    6.5558    5.0627  H     
80   H         9.4675    5.5363    2.6349  H     
81   H         8.8695    7.1515    3.0196  H     
@<TRIPOS>BOND
     1    1    2 1
     2    1   20 2
     3    1   21 1
     4    2    3 1
     5    3    4 1
     6    4    5 1
     7    5    6 1
     8    6    7 2
     9    6   11 1
    10    7    8 1
    11    7   42 1
    12    8    9 2
    13    9   10 1
    14   10   11 2
    15   10   43 1
    16   11   41 1
    17   12   13 1
    18   12   15 1
    19   12   33 am
    20   13   44 1
    21   14   44 1
    22   14   45 1
    23   15   45 1
    24   16   17 2
    25   16   23 1
    26   16   44 1
    27   17   18 1
    28   17   46 1
    29   18   19 2
    30   18   22 1
    31   19   20 1
    32   21   22 2
    33   23   24 2
    34   23   25 am
    35   25   26 1
    36   25   36 1
    37   26   27 1
    38   27   28 2
    39   27   32 1
    40   28   29 1
    41   28   39 1
    42   29   30 2
    43   29   40 1
    44   30   31 1
    45   31   32 2
    46   33   34 1
    47   33   35 2
    48   36   37 1
    49   36   38 1
    50   37   38 1
    51   45   46 1
    52    2   47 1
    53    2   48 1
    54    3   49 1
    55    3   50 1
    56    4   51 1
    57    4   52 1
    58    8   53 1
    59    9   54 1
    60   13   55 1
    61   13   56 1
    62   14   57 1
    63   14   58 1
    64   15   59 1
    65   15   60 1
    66   19   61 1
    67   20   62 1
    68   21   63 1
    69   22   64 1
    70   26   65 1
    71   26   66 1
    72   30   67 1
    73   31   68 1
    74   32   69 1
    75   34   70 1
    76   34   71 1
    77   34   72 1
    78   36   73 1
    79   37   74 1
    80   37   75 1
    81   38   76 1
    82   38   77 1
    83   44   78 1
    84   45   79 1
    85   46   80 1
    86   46   81 1
@<TRIPOS>PROPERTY_DATA
  Total_Score	| 11.9967
  Crash		| -2.1503
  Polar		| 3.5413
  FragIndex	| 1
  FragRMSD	| 0.271

