@<TRIPOS>MOLECULE
BindingDB_50259441
 84 89 0 0 0
SMALL
NO_CHARGES


@<TRIPOS>ATOM
1    C         6.6675    5.6754   -1.4582  C     
2    C         6.1443    5.8744   -2.8420  C     
3    C         5.3089    7.1872   -2.9384  C     
4    C         4.2286    7.2437   -4.0452  C     
5    O         3.5898    8.5451   -4.0279  O     
6    C         2.2494    8.5557   -3.7165  C     
7    C         1.2782    8.5496   -4.7449  C     
8    C        -0.0935    8.5166   -4.4200  C     
9    C        -0.5173    8.5242   -3.0730  C     
10   C         0.4524    8.6073   -2.0500  C     
11   C         1.8264    8.6356   -2.3661  C     
12   N         8.1210    3.4262    4.7433  N     
13   C         6.8970    3.8217    5.4369  C     
14   N         7.7018    6.1255    5.5500  N     
15   C         9.2672    4.2741    5.0357  C     
16   C         6.2954    5.4977    3.6275  C     
17   C         7.3361    5.7212    2.7672  C     
18   C         7.2092    5.6485    1.3598  C     
19   C         6.5115    4.5800    0.7343  C     
20   C         6.2204    4.6067   -0.6409  C     
21   C         7.5266    6.6336   -0.8736  C     
22   C         7.7686    6.6386    0.5101  C     
23   C         4.9863    5.3409    3.2126  C     
24   O         4.5574    4.1947    3.3236  O     
25   N         4.1599    6.3125    2.7706  N     
26   C         2.7744    6.0139    2.4173  C     
27   C         1.7702    6.0724    3.5363  C     
28   C         0.3812    5.8535    3.2972  C     
29   C        -0.5631    6.0081    4.3468  C     
30   C        -0.1272    6.3540    5.6408  C     
31   C         1.2368    6.5389    5.8996  C     
32   C         2.1694    6.4008    4.8571  C     
33   C         8.1400    2.4175    3.8461  C     
34   C         9.2716    2.0839    2.9947  C     
35   O         7.1476    1.7132    3.6831  O     
36   C         4.6265    7.6635    2.5312  C     
37   C         3.6464    8.8503    2.6578  C     
38   C         4.7281    8.6400    3.7165  C     
39   Cl       -0.1762    5.4163    1.7477  Cl    
40   Cl       -2.2371    5.8265    4.1230  Cl    
41   Cl        2.9357    8.7988   -1.0942  Cl    
42   Cl        1.7297    8.6086   -6.3781  Cl    
43   C        -1.9622    8.4726   -2.7667  C     
44   C         6.5555    5.3085    5.0838  C     
45   C         8.9249    5.7789    4.7946  C     
46   C         8.6595    6.1239    3.2997  C     
47   H         6.9778    5.9180   -3.5456  H     
48   H         5.5157    5.0300   -3.1365  H     
49   H         4.8077    7.3618   -1.9826  H     
50   H         5.9977    8.0272   -3.0993  H     
51   H         4.7118    7.1210   -5.0116  H     
52   H         3.5255    6.4145   -3.9040  H     
53   H        -0.7924    8.4966   -5.1680  H     
54   H         0.1577    8.6530   -1.0726  H     
55   H         6.0334    3.1939    5.2072  H     
56   H         7.0561    3.7334    6.5166  H     
57   H         7.4957    7.1158    5.4188  H     
58   H         7.8723    5.9577    6.5454  H     
59   H         9.5309    4.1463    6.0892  H     
60   H        10.1663    4.0325    4.4691  H     
61   H         6.1673    3.7908    1.2927  H     
62   H         5.6311    3.8656   -1.0360  H     
63   H         7.9037    7.3986   -1.4449  H     
64   H         8.3021    7.4219    0.8969  H     
65   H         2.4247    6.7012    1.6436  H     
66   H         2.7409    5.0196    1.9593  H     
67   H        -0.7995    6.4818    6.4014  H     
68   H         1.5509    6.7891    6.8381  H     
69   H         3.1479    6.5674    5.0928  H     
70   H         9.5412    2.9529    2.3905  H     
71   H         9.0430    1.2635    2.3071  H     
72   H        10.1274    1.7854    3.6069  H     
73   H         5.3906    7.8039    1.7614  H     
74   H         3.8304    9.6860    1.9848  H     
75   H         2.6275    8.6537    2.9991  H     
76   H         4.3439    8.3075    4.6866  H     
77   H         5.5308    9.3753    3.6781  H     
78   H        -2.4632    9.3339   -3.2130  H     
79   H        -2.1603    8.4822   -1.6931  H     
80   H        -2.3877    7.5567   -3.1848  H     
81   H         5.6949    5.6176    5.6854  H     
82   H         9.7527    6.3917    5.1675  H     
83   H         9.4647    5.6854    2.7000  H     
84   H         8.7397    7.2137    3.2040  H     
@<TRIPOS>BOND
     1    1    2 1
     2    1   20 2
     3    1   21 1
     4    2    3 1
     5    3    4 1
     6    4    5 1
     7    5    6 1
     8    6    7 2
     9    6   11 1
    10    7    8 1
    11    7   42 1
    12    8    9 2
    13    9   10 1
    14    9   43 1
    15   10   11 2
    16   11   41 1
    17   12   13 1
    18   12   15 1
    19   12   33 am
    20   13   44 1
    21   14   44 1
    22   14   45 1
    23   15   45 1
    24   16   17 2
    25   16   23 1
    26   16   44 1
    27   17   18 1
    28   17   46 1
    29   18   19 2
    30   18   22 1
    31   19   20 1
    32   21   22 2
    33   23   24 2
    34   23   25 am
    35   25   26 1
    36   25   36 1
    37   26   27 1
    38   27   28 2
    39   27   32 1
    40   28   29 1
    41   28   39 1
    42   29   30 2
    43   29   40 1
    44   30   31 1
    45   31   32 2
    46   33   34 1
    47   33   35 2
    48   36   37 1
    49   36   38 1
    50   37   38 1
    51   45   46 1
    52    2   47 1
    53    2   48 1
    54    3   49 1
    55    3   50 1
    56    4   51 1
    57    4   52 1
    58    8   53 1
    59   10   54 1
    60   13   55 1
    61   13   56 1
    62   14   57 1
    63   14   58 1
    64   15   59 1
    65   15   60 1
    66   19   61 1
    67   20   62 1
    68   21   63 1
    69   22   64 1
    70   26   65 1
    71   26   66 1
    72   30   67 1
    73   31   68 1
    74   32   69 1
    75   34   70 1
    76   34   71 1
    77   34   72 1
    78   36   73 1
    79   37   74 1
    80   37   75 1
    81   38   76 1
    82   38   77 1
    83   43   78 1
    84   43   79 1
    85   43   80 1
    86   44   81 1
    87   45   82 1
    88   46   83 1
    89   46   84 1
@<TRIPOS>PROPERTY_DATA
  Total_Score	| 13.6044
  Crash		| -2.2748
  Polar		| 3.3848
  FragIndex	| 1
  FragRMSD	| 0.257

