@<TRIPOS>MOLECULE
BindingDB_50259466
 77 82 0 0 0
SMALL
NO_CHARGES


@<TRIPOS>ATOM
1    C         6.2853    5.7126   -1.6596  C     
2    C         6.0227    5.9144   -3.1125  C     
3    C         5.3127    7.2521   -3.4551  C     
4    C         3.9012    7.4187   -2.8466  C     
5    O         3.2706    8.5566   -3.4673  O     
6    C         1.9207    8.6368   -3.2394  C     
7    C         1.4345    8.9160   -1.9440  C     
8    C         0.0482    8.9992   -1.7126  C     
9    C        -0.8576    8.8137   -2.7706  C     
10   C        -0.3806    8.5736   -4.0728  C     
11   C         1.0102    8.4982   -4.3137  C     
12   N         8.1282    6.2906    5.4983  N     
13   C         6.9064    5.5246    5.8339  C     
14   N         7.8280    3.5522    4.7044  N     
15   C         9.3103    5.4696    5.1465  C     
16   C         6.2201    4.9144    3.4605  C     
17   C         7.1528    5.0646    2.4731  C     
18   C         6.8284    5.3139    1.1231  C     
19   C         5.8913    4.5042    0.4366  C     
20   C         5.6157    4.7057   -0.9290  C     
21   C         7.2397    6.5058   -0.9854  C     
22   C         7.5022    6.3149    0.3836  C     
23   C         4.8700    5.0430    3.2214  C     
24   O         4.2918    3.9618    3.1577  O     
25   N         4.1820    6.1842    2.9829  N     
26   C         2.7934    6.1069    2.5286  C     
27   C         1.7212    6.0040    3.5763  C     
28   C         0.3541    5.8239    3.2080  C     
29   C        -0.6574    5.7663    4.2031  C     
30   C        -0.3122    5.8795    5.5626  C     
31   C         1.0283    6.0365    5.9394  C     
32   C         2.0300    6.0921    4.9580  C     
33   C         4.8323    7.4843    3.0747  C     
34   C         4.1385    8.8550    2.9020  C     
35   C         4.4736    8.3429    4.3025  C     
36   Cl       -0.0919    5.6760    1.5706  Cl    
37   Cl       -2.3051    5.5627    3.8401  Cl    
38   Cl        1.6015    8.2884   -5.8918  Cl    
39   F        -1.2484    8.4400   -5.0396  F     
40   F         2.2668    9.1152   -0.9585  F     
41   C         8.9640    4.3220    4.1568  C     
42   C         6.6176    4.4038    4.7963  C     
43   C         8.5847    4.7964    2.7224  C     
44   H         6.9831    5.8907   -3.6367  H     
45   H         5.4235    5.0934   -3.5201  H     
46   H         5.9356    8.0835   -3.1245  H     
47   H         5.2251    7.3210   -4.5428  H     
48   H         3.3340    6.4980   -3.0232  H     
49   H         3.9816    7.5857   -1.7689  H     
50   H        -0.3086    9.1980   -0.7772  H     
51   H        -1.8638    8.8784   -2.5938  H     
52   H         7.9132    6.9161    4.7237  H     
53   H         8.3777    6.8701    6.3034  H     
54   H         7.0363    5.0816    6.8257  H     
55   H         6.0623    6.2100    5.8877  H     
56   H         7.6336    2.7566    4.0916  H     
57   H         8.0703    3.2021    5.6345  H     
58   H        10.0785    6.1196    4.7220  H     
59   H         9.7175    5.0319    6.0603  H     
60   H         5.4167    3.7364    0.9191  H     
61   H         4.9295    4.1005   -1.3885  H     
62   H         7.7612    7.2261   -1.4917  H     
63   H         8.1960    6.9174    0.8355  H     
64   H         2.5495    6.9598    1.8937  H     
65   H         2.7017    5.2427    1.8635  H     
66   H        -1.0327    5.8408    6.2884  H     
67   H         1.2757    6.1078    6.9298  H     
68   H         2.9929    6.1946    5.2783  H     
69   H         5.8888    7.5384    2.8129  H     
70   H         4.7733    9.6796    2.5679  H     
71   H         3.0657    8.9136    2.7094  H     
72   H         3.5842    8.0977    4.8815  H     
73   H         5.2732    8.9027    4.7862  H     
74   H         9.8321    3.6587    4.0954  H     
75   H         5.8375    3.7606    5.2170  H     
76   H         8.8956    4.0002    2.0369  H     
77   H         9.1801    5.6790    2.4767  H     
@<TRIPOS>BOND
     1    1    2 1
     2    1   20 2
     3    1   21 1
     4    2    3 1
     5    3    4 1
     6    4    5 1
     7    5    6 1
     8    6    7 2
     9    6   11 1
    10    7    8 1
    11    7   40 1
    12    8    9 2
    13    9   10 1
    14   10   11 2
    15   10   39 1
    16   11   38 1
    17   12   13 1
    18   12   15 1
    19   13   42 1
    20   14   41 1
    21   14   42 1
    22   15   41 1
    23   16   17 2
    24   16   23 1
    25   16   42 1
    26   17   18 1
    27   17   43 1
    28   18   19 2
    29   18   22 1
    30   19   20 1
    31   21   22 2
    32   23   24 2
    33   23   25 am
    34   25   26 1
    35   25   33 1
    36   26   27 1
    37   27   28 2
    38   27   32 1
    39   28   29 1
    40   28   36 1
    41   29   30 2
    42   29   37 1
    43   30   31 1
    44   31   32 2
    45   33   34 1
    46   33   35 1
    47   34   35 1
    48   41   43 1
    49    2   44 1
    50    2   45 1
    51    3   46 1
    52    3   47 1
    53    4   48 1
    54    4   49 1
    55    8   50 1
    56    9   51 1
    57   12   52 1
    58   12   53 1
    59   13   54 1
    60   13   55 1
    61   14   56 1
    62   14   57 1
    63   15   58 1
    64   15   59 1
    65   19   60 1
    66   20   61 1
    67   21   62 1
    68   22   63 1
    69   26   64 1
    70   26   65 1
    71   30   66 1
    72   31   67 1
    73   32   68 1
    74   33   69 1
    75   34   70 1
    76   34   71 1
    77   35   72 1
    78   35   73 1
    79   41   74 1
    80   42   75 1
    81   43   76 1
    82   43   77 1
@<TRIPOS>PROPERTY_DATA
  Total_Score	| 11.1219
  Crash		| -2.2417
  Polar		| 3.2854
  FragIndex	| 1
  FragRMSD	| 1.032

