@<TRIPOS>MOLECULE
BindingDB_50259442
 81 86 0 0 0
SMALL
NO_CHARGES


@<TRIPOS>ATOM
1    C         6.3931    5.1983   -1.3400  C     
2    C         5.7441    5.3070   -2.6767  C     
3    C         4.3251    5.9448   -2.5892  C     
4    C         4.3093    7.3022   -1.8338  C     
5    O         3.0643    7.7882   -1.2962  O     
6    C         1.9494    7.8385   -2.0868  C     
7    C         0.6933    7.6045   -1.4756  C     
8    C        -0.4917    7.7052   -2.2309  C     
9    C        -0.4317    8.0373   -3.5955  C     
10   C         0.8091    8.2953   -4.2005  C     
11   C         1.9973    8.2222   -3.4507  C     
12   N         8.6967    3.3713    5.0077  N     
13   C         7.4466    3.7069    5.6775  C     
14   N         7.9760    6.1096    5.4600  N     
15   C         9.7321    4.3863    5.1499  C     
16   C         6.5480    5.1008    3.7695  C     
17   C         7.4837    5.3480    2.7993  C     
18   C         7.2162    5.2452    1.4065  C     
19   C         6.5004    4.1457    0.8666  C     
20   C         6.0664    4.1359   -0.4703  C     
21   C         7.2464    6.2160   -0.8627  C     
22   C         7.6400    6.2420    0.4857  C     
23   C         5.2124    4.8644    3.5239  C     
24   O         4.8839    3.7003    3.7221  O     
25   N         4.2799    5.7948    3.2169  N     
26   C         2.8519    5.4628    3.1809  C     
27   C         2.0153    5.9176    4.3402  C     
28   C         0.5903    5.8408    4.3059  C     
29   C        -0.1760    6.2752    5.4200  C     
30   C         0.4691    6.7880    6.5628  C     
31   C         1.8690    6.8440    6.6163  C     
32   C         2.6292    6.3992    5.5237  C     
33   C         8.8829    2.2537    4.2754  C     
34   C         7.8803    1.2234    4.0531  C     
35   O         9.9628    2.0442    3.7364  O     
36   C         4.6792    7.1742    2.9625  C     
37   C         4.3761    7.6507    1.5302  C     
38   C         3.7462    8.3818    2.7169  C     
39   Cl       -0.2190    5.2184    2.9410  Cl    
40   Cl       -1.8740    6.1947    5.4566  Cl    
41   Cl        3.4287    8.6781   -4.2373  Cl    
42   Cl        0.5721    7.2021    0.1672  Cl    
43   F        -1.5257    8.1337   -4.2987  F     
44   C         6.9245    5.1015    5.2024  C     
45   C         9.1964    5.7785    4.6994  C     
46   C         8.8230    5.8537    3.1900  C     
47   H         6.3657    5.8964   -3.3569  H     
48   H         5.6585    4.3130   -3.1203  H     
49   H         3.9559    6.1124   -3.6036  H     
50   H         3.6391    5.2525   -2.0986  H     
51   H         4.9359    7.2084   -0.9549  H     
52   H         4.7693    8.0637   -2.4641  H     
53   H        -1.4003    7.5307   -1.7919  H     
54   H         0.8395    8.5665   -5.1870  H     
55   H         6.6565    2.9694    5.5417  H     
56   H         7.6332    3.7486    6.7543  H     
57   H         7.6394    7.0309    5.1745  H     
58   H         8.1907    6.1338    6.4552  H     
59   H        10.0209    4.4436    6.2040  H     
60   H        10.6485    4.1773    4.5933  H     
61   H         6.2526    3.3474    1.4535  H     
62   H         5.4800    3.3638   -0.7954  H     
63   H         7.5224    6.9889   -1.4743  H     
64   H         8.1798    7.0523    0.7905  H     
65   H         2.4416    5.8834    2.2624  H     
66   H         2.6771    4.3880    3.0907  H     
67   H        -0.0710    7.1047    7.3726  H     
68   H         2.3334    7.1920    7.4575  H     
69   H         3.6447    6.4335    5.6069  H     
70   H         7.5710    0.7965    5.0102  H     
71   H         8.2572    0.4083    3.4309  H     
72   H         7.0139    1.6486    3.5460  H     
73   H         5.6536    7.5005    3.3354  H     
74   H         5.1933    8.1595    1.0219  H     
75   H         3.7015    7.0271    0.9416  H     
76   H         2.6721    8.2462    2.8306  H     
77   H         4.1703    9.3711    2.9092  H     
78   H         6.0770    5.3839    5.8372  H     
79   H         9.9601    6.5290    4.9233  H     
80   H         9.5975    5.3374    2.6151  H     
81   H         8.8710    6.9142    2.9311  H     
@<TRIPOS>BOND
     1    1    2 1
     2    1   20 2
     3    1   21 1
     4    2    3 1
     5    3    4 1
     6    4    5 1
     7    5    6 1
     8    6    7 2
     9    6   11 1
    10    7    8 1
    11    7   42 1
    12    8    9 2
    13    9   10 1
    14    9   43 1
    15   10   11 2
    16   11   41 1
    17   12   13 1
    18   12   15 1
    19   12   33 am
    20   13   44 1
    21   14   44 1
    22   14   45 1
    23   15   45 1
    24   16   17 2
    25   16   23 1
    26   16   44 1
    27   17   18 1
    28   17   46 1
    29   18   19 2
    30   18   22 1
    31   19   20 1
    32   21   22 2
    33   23   24 2
    34   23   25 am
    35   25   26 1
    36   25   36 1
    37   26   27 1
    38   27   28 2
    39   27   32 1
    40   28   29 1
    41   28   39 1
    42   29   30 2
    43   29   40 1
    44   30   31 1
    45   31   32 2
    46   33   34 1
    47   33   35 2
    48   36   37 1
    49   36   38 1
    50   37   38 1
    51   45   46 1
    52    2   47 1
    53    2   48 1
    54    3   49 1
    55    3   50 1
    56    4   51 1
    57    4   52 1
    58    8   53 1
    59   10   54 1
    60   13   55 1
    61   13   56 1
    62   14   57 1
    63   14   58 1
    64   15   59 1
    65   15   60 1
    66   19   61 1
    67   20   62 1
    68   21   63 1
    69   22   64 1
    70   26   65 1
    71   26   66 1
    72   30   67 1
    73   31   68 1
    74   32   69 1
    75   34   70 1
    76   34   71 1
    77   34   72 1
    78   36   73 1
    79   37   74 1
    80   37   75 1
    81   38   76 1
    82   38   77 1
    83   44   78 1
    84   45   79 1
    85   46   80 1
    86   46   81 1
@<TRIPOS>PROPERTY_DATA
  Total_Score	| 8.3234
  Crash		| -3.3240
  Polar		| 3.9492
  FragIndex	| 1
  FragRMSD	| 0.627

