@<TRIPOS>MOLECULE
BindingDB_50329836
 41 44 0 0 0
SMALL
NO_CHARGES


@<TRIPOS>ATOM
1    C        -6.1324    4.4742   14.3085  C     
2    C        -6.2575    3.5780   15.3885  C     
3    C        -5.7963    2.2465   15.2559  C     
4    C        -5.1894    1.8502   14.0386  C     
5    C        -5.0728    2.7376   12.9449  C     
6    C        -5.5664    4.0516   13.0911  C     
7    Cl       -6.9275    4.1926   16.8196  Cl    
8    C        -4.4740    2.3308   11.7458  C     
9    C        -3.2994    1.4616   11.6932  C     
10   O        -4.9855    2.6909   10.6925  O     
11   S        -5.9599    1.0479   16.5132  S     
12   N        -7.3681    1.1003   17.4258  N     
13   O        -5.8117   -0.4370   15.9643  O     
14   O        -4.7621    1.2575   17.5268  O     
15   S        -2.0404    1.9855   10.4960  S     
16   C        -1.4441    3.4611   11.2002  C     
17   N        -1.9782    4.1673   12.2071  N     
18   N        -0.3171    4.0720   10.7673  N     
19   C        -0.1462    5.1675   11.5273  C     
20   C        -1.2000    5.2243   12.4366  C     
21   N         0.7667    7.1080   12.4684  N     
22   C         0.8353    6.1482   11.5543  C     
23   C        -0.2298    7.2161   13.3942  C     
24   C        -1.2827    6.2593   13.3954  C     
25   C        -2.3225    6.3462   14.3401  C     
26   C        -2.3053    7.3675   15.3035  C     
27   C        -1.2561    8.3049   15.3238  C     
28   C        -0.2235    8.2352   14.3657  C     
29   H        -6.4430    5.4489   14.4005  H     
30   H        -4.8503    0.8877   13.9364  H     
31   H        -5.4961    4.7238   12.3237  H     
32   H        -2.8052    1.3833   12.6691  H     
33   H        -3.6274    0.4563   11.4103  H     
34   H        -7.3068    1.0683   18.3898  H     
35   H        -8.2255    1.2462   16.9944  H     
36   H        -2.7824    3.9473   12.6953  H     
37   H         1.5867    6.1191   10.9125  H     
38   H        -3.0810    5.6602   14.3432  H     
39   H        -3.0477    7.4141   16.0029  H     
40   H        -1.2401    9.0335   16.0396  H     
41   H         0.5393    8.9207   14.3939  H     
@<TRIPOS>BOND
     1    1    2 2
     2    1    6 1
     3    2    3 1
     4    2    7 1
     5    3    4 2
     6    3   11 1
     7    4    5 1
     8    5    6 2
     9    5    8 1
    10    8    9 1
    11    8   10 2
    12    9   15 1
    13   11   12 am
    14   11   13 2
    15   11   14 2
    16   15   16 1
    17   16   17 1
    18   16   18 2
    19   17   20 1
    20   18   19 1
    21   19   20 2
    22   19   22 1
    23   20   24 1
    24   21   22 2
    25   21   23 1
    26   23   24 1
    27   23   28 2
    28   24   25 2
    29   25   26 1
    30   26   27 2
    31   27   28 1
    32    1   29 1
    33    4   30 1
    34    6   31 1
    35    9   32 1
    36    9   33 1
    37   12   34 1
    38   12   35 1
    39   17   36 1
    40   22   37 1
    41   25   38 1
    42   26   39 1
    43   27   40 1
    44   28   41 1
@<TRIPOS>PROPERTY_DATA
  Total_Score	| 7.9288
  Crash		| -1.0600
  Polar		| 4.7057
  FragIndex	| 1
  FragRMSD	| 1.354

