@<TRIPOS>MOLECULE
BindingDB_50380153
 37 38 0 0 0
SMALL
NO_CHARGES


@<TRIPOS>ATOM
1    S        -5.7082    1.2537   16.5280  S     
2    O        -4.2347    1.0963   17.1038  O     
3    O        -5.9822   -0.1962   15.9394  O     
4    C        -6.1290    4.5989   14.2263  C     
5    C        -6.1855    3.7339   15.3500  C     
6    C        -5.7069    2.4042   15.2148  C     
7    C        -5.1490    1.9853   13.9982  C     
8    C        -5.0395    2.8546   12.8800  C     
9    C        -5.6012    4.1490   13.0101  C     
10   C        -4.3805    2.4598   11.7154  C     
11   C        -3.1357    1.7167   11.7071  C     
12   O        -4.8748    2.7515   10.6205  O     
13   S        -1.8594    2.5486   10.7356  S     
14   C        -1.4540    3.9411   11.6753  C     
15   N        -0.2051    4.4359   11.4974  N     
16   C         0.2575    5.5608   12.1218  C     
17   C        -0.6104    6.2399   13.0013  C     
18   C        -1.9123    5.7036   13.1912  C     
19   N        -2.2967    4.5756   12.5182  N     
20   Cl       -6.7880    4.3538   16.8134  Cl    
21   N        -6.7628    1.4219   17.8255  N     
22   C        -2.8830    6.4077   14.0862  C     
23   C         1.6481    5.9861   11.8556  C     
24   H        -6.4610    5.5665   14.3093  H     
25   H        -4.7823    1.0336   13.9208  H     
26   H        -5.5527    4.8018   12.2207  H     
27   H        -2.7773    1.5896   12.7325  H     
28   H        -3.2908    0.7216   11.2682  H     
29   H        -0.3039    7.0804   13.4894  H     
30   H        -7.5755    0.8800   17.8704  H     
31   H        -6.4986    1.9679   18.5966  H     
32   H        -2.4112    6.6575   15.0326  H     
33   H        -3.7550    5.7643   14.2576  H     
34   H        -3.2009    7.3196   13.5956  H     
35   H         2.3230    5.1877   12.1557  H     
36   H         1.9216    6.8956   12.4078  H     
37   H         1.7842    6.1771   10.7915  H     
@<TRIPOS>BOND
     1    1    2 2
     2    1    3 2
     3    1    6 1
     4    1   21 am
     5    4    5 2
     6    4    9 1
     7    5    6 1
     8    5   20 1
     9    6    7 2
    10    7    8 1
    11    8    9 2
    12    8   10 1
    13   10   11 1
    14   10   12 2
    15   11   13 1
    16   13   14 1
    17   14   15 2
    18   14   19 1
    19   15   16 1
    20   16   17 2
    21   16   23 1
    22   17   18 1
    23   18   19 2
    24   18   22 1
    25    4   24 1
    26    7   25 1
    27    9   26 1
    28   11   27 1
    29   11   28 1
    30   17   29 1
    31   21   30 1
    32   21   31 1
    33   22   32 1
    34   22   33 1
    35   22   34 1
    36   23   35 1
    37   23   36 1
    38   23   37 1
@<TRIPOS>PROPERTY_DATA
  Total_Score	| 6.9687
  Crash		| -0.7895
  Polar		| 4.8401
  FragIndex	| 1
  FragRMSD	| 1.154

