@<TRIPOS>MOLECULE
BindingDB_50380139
 33 34 0 0 0
SMALL
NO_CHARGES


@<TRIPOS>ATOM
1    S        -5.7180    1.2057   16.5890  S     
2    O        -4.2428    1.0513   17.1584  O     
3    O        -6.0001   -0.2654   16.0555  O     
4    C        -6.0983    4.5043   14.2175  C     
5    C        -6.1647    3.6612   15.3441  C     
6    C        -5.7005    2.3264   15.2498  C     
7    C        -5.1659    1.8751   14.0249  C     
8    C        -5.1207    2.6994   12.8726  C     
9    C        -5.5914    4.0270   12.9959  C     
10   C        -4.6313    2.2313   11.6459  C     
11   C        -3.4349    1.4105   11.5213  C     
12   O        -5.0908    2.7015   10.6109  O     
13   S        -1.9198    2.3751   11.7885  S     
14   C        -1.8361    3.2450   10.2770  C     
15   C        -0.7840    2.9644    9.3779  C     
16   C        -0.7105    3.6342    8.1428  C     
17   C        -1.6836    4.5955    7.7994  C     
18   C        -2.7087    4.9083    8.7111  C     
19   C        -2.7802    4.2437    9.9503  C     
20   Cl       -6.7907    4.3129   16.7793  Cl    
21   N        -6.7647    1.3891   17.8897  N     
22   H        -6.4176    5.4790   14.2722  H     
23   H        -4.8205    0.9112   13.9678  H     
24   H        -5.5448    4.6680   12.2020  H     
25   H        -3.4490    0.5896   12.2301  H     
26   H        -3.3839    0.9562   10.5248  H     
27   H        -0.0763    2.2653    9.6091  H     
28   H         0.0443    3.4239    7.4901  H     
29   H        -1.6462    5.0590    6.8869  H     
30   H        -3.4043    5.6145    8.4708  H     
31   H        -3.5288    4.4823   10.6042  H     
32   H        -7.6306    0.9470   17.8822  H     
33   H        -6.5371    1.9899   18.6156  H     
@<TRIPOS>BOND
     1    1    2 2
     2    1    3 2
     3    1    6 1
     4    1   21 am
     5    4    5 2
     6    4    9 1
     7    5    6 1
     8    5   20 1
     9    6    7 2
    10    7    8 1
    11    8    9 2
    12    8   10 1
    13   10   11 1
    14   10   12 2
    15   11   13 1
    16   13   14 1
    17   14   15 2
    18   14   19 1
    19   15   16 1
    20   16   17 2
    21   17   18 1
    22   18   19 2
    23    4   22 1
    24    7   23 1
    25    9   24 1
    26   11   25 1
    27   11   26 1
    28   15   27 1
    29   16   28 1
    30   17   29 1
    31   18   30 1
    32   19   31 1
    33   21   32 1
    34   21   33 1
@<TRIPOS>PROPERTY_DATA
  Total_Score	| 6.9400
  Crash		| -1.0165
  Polar		| 4.9229
  FragIndex	| 1
  FragRMSD	| 1.043

