@<TRIPOS>MOLECULE
BindingDB_50380152
 37 38 0 0 0
SMALL
NO_CHARGES


@<TRIPOS>ATOM
1    S        -5.7396    1.1939   16.5413  S     
2    O        -4.3120    1.2003   17.2439  O     
3    O        -5.8486   -0.2955   15.9994  O     
4    C        -6.1163    4.5831   14.2931  C     
5    C        -6.2104    3.6840   15.3745  C     
6    C        -5.7302    2.3579   15.2362  C     
7    C        -5.1577    1.9688   13.9984  C     
8    C        -5.0569    2.8575   12.9020  C     
9    C        -5.5511    4.1725   13.0743  C     
10   C        -4.4461    2.4791   11.7039  C     
11   C        -3.1884    1.7441   11.6440  C     
12   O        -4.9598    2.7942   10.6364  O     
13   S        -1.8952    2.4999   10.6185  S     
14   C        -1.4589    3.9058   11.5487  C     
15   N        -2.4194    4.7231   12.0473  N     
16   C        -2.0940    5.8993   12.6573  C     
17   C        -0.7419    6.2938   12.8036  C     
18   C         0.2255    5.4101   12.2616  C     
19   N        -0.1483    4.2671   11.6337  N     
20   Cl       -6.8897    4.2680   16.8181  Cl    
21   N        -6.8809    1.2694   17.7756  N     
22   C        -0.3773    7.5941   13.4373  C     
23   C        -1.1517    7.8933   14.7498  C     
24   H        -6.4254    5.5502   14.3969  H     
25   H        -4.8267    1.0087   13.8911  H     
26   H        -5.4716    4.8678   12.3221  H     
27   H        -2.7443    1.5681   12.6256  H     
28   H        -3.3962    0.7639   11.2033  H     
29   H        -2.8494    6.4974   13.0074  H     
30   H         1.2159    5.6393   12.3080  H     
31   H        -7.7600    0.8769   17.6431  H     
32   H        -6.6518    1.6837   18.6244  H     
33   H         0.6883    7.6117   13.6812  H     
34   H        -0.5727    8.3965   12.7195  H     
35   H        -2.2272    7.9810   14.5485  H     
36   H        -0.7883    8.8423   15.1730  H     
37   H        -0.9868    7.1025   15.4890  H     
@<TRIPOS>BOND
     1    1    2 2
     2    1    3 2
     3    1    6 1
     4    1   21 am
     5    4    5 2
     6    4    9 1
     7    5    6 1
     8    5   20 1
     9    6    7 2
    10    7    8 1
    11    8    9 2
    12    8   10 1
    13   10   11 1
    14   10   12 2
    15   11   13 1
    16   13   14 1
    17   14   15 2
    18   14   19 1
    19   15   16 1
    20   16   17 2
    21   17   18 1
    22   17   22 1
    23   18   19 2
    24   22   23 1
    25    4   24 1
    26    7   25 1
    27    9   26 1
    28   11   27 1
    29   11   28 1
    30   16   29 1
    31   18   30 1
    32   21   31 1
    33   21   32 1
    34   22   33 1
    35   22   34 1
    36   23   35 1
    37   23   36 1
    38   23   37 1
@<TRIPOS>PROPERTY_DATA
  Total_Score	| 7.1419
  Crash		| -0.8559
  Polar		| 4.9075
  FragIndex	| 1
  FragRMSD	| 1.094

