@<TRIPOS>MOLECULE
BindingDB_50380155
 41 42 0 0 0
SMALL
NO_CHARGES


@<TRIPOS>ATOM
1    S        -5.8587    1.0999   16.4162  S     
2    O        -4.6776    1.2497   17.4741  O     
3    O        -5.6819   -0.3633   15.8243  O     
4    C        -6.1394    4.6225   14.3696  C     
5    C        -6.2323    3.6739   15.4089  C     
6    C        -5.7361    2.3634   15.2070  C     
7    C        -5.0955    2.0512   13.9862  C     
8    C        -4.9990    2.9947   12.9407  C     
9    C        -5.5468    4.2802   13.1409  C     
10   C        -4.3850    2.6743   11.7342  C     
11   C        -3.1059    1.9925   11.6449  C     
12   O        -5.0419    2.8010   10.6995  O     
13   S        -1.9951    2.7353   10.4226  S     
14   C        -1.2692    4.0049   11.3524  C     
15   N        -1.9747    5.0108   11.9326  N     
16   C        -1.3481    6.0415   12.5584  C     
17   C         0.0097    6.0737   12.5860  C     
18   C         0.7129    5.0576   12.0108  C     
19   N         0.0884    4.0591   11.3996  N     
20   Cl       -6.9384    4.1776   16.8674  Cl    
21   N        -7.2809    1.0087   17.2945  N     
22   O         1.9343    5.0595   12.0374  O     
23   C        -2.1495    7.1207   13.1414  C     
24   C        -1.8914    7.3872   14.6608  C     
25   C        -0.8462    8.4926   14.9605  C     
26   H        -6.5083    5.5633   14.4938  H     
27   H        -4.7289    1.1029   13.8483  H     
28   H        -5.5076    4.9814   12.3994  H     
29   H        -2.5896    1.9570   12.6087  H     
30   H        -3.2949    0.9599   11.3356  H     
31   H         0.4939    6.8417   13.0059  H     
32   H         0.6121    3.3599   10.9766  H     
33   H        -8.0730    0.5987   16.8967  H     
34   H        -7.2971    1.2858   18.2296  H     
35   H        -1.9774    8.0399   12.5698  H     
36   H        -3.2137    6.8806   13.0220  H     
37   H        -2.8308    7.7020   15.1348  H     
38   H        -1.5758    6.4648   15.1565  H     
39   H         0.1193    8.2547   14.5005  H     
40   H        -0.7033    8.5806   16.0385  H     
41   H        -1.1966    9.4537   14.5758  H     
@<TRIPOS>BOND
     1    1    2 2
     2    1    3 2
     3    1    6 1
     4    1   21 am
     5    4    5 2
     6    4    9 1
     7    5    6 1
     8    5   20 1
     9    6    7 2
    10    7    8 1
    11    8    9 2
    12    8   10 1
    13   10   11 1
    14   10   12 2
    15   11   13 1
    16   13   14 1
    17   14   15 2
    18   14   19 1
    19   15   16 1
    20   16   17 2
    21   16   23 1
    22   17   18 1
    23   18   19 1
    24   18   22 2
    25   23   24 1
    26   24   25 1
    27    4   26 1
    28    7   27 1
    29    9   28 1
    30   11   29 1
    31   11   30 1
    32   17   31 1
    33   19   32 1
    34   21   33 1
    35   21   34 1
    36   23   35 1
    37   23   36 1
    38   24   37 1
    39   24   38 1
    40   25   39 1
    41   25   40 1
    42   25   41 1
@<TRIPOS>PROPERTY_DATA
  Total_Score	| 7.6198
  Crash		| -1.0355
  Polar		| 4.7261
  FragIndex	| 1
  FragRMSD	| 1.089

