@<TRIPOS>MOLECULE
BindingDB_50329835
 36 38 0 0 0
SMALL
NO_CHARGES


@<TRIPOS>ATOM
1    C        -6.1017    4.5275   14.1712  C     
2    C        -6.1737    3.6976   15.3063  C     
3    C        -5.7321    2.3537   15.2209  C     
4    C        -5.2071    1.8812   13.9962  C     
5    C        -5.1141    2.7081   12.8497  C     
6    C        -5.5851    4.0387   12.9602  C     
7    Cl       -6.7736    4.3932   16.7322  Cl    
8    C        -4.5497    2.2458   11.6531  C     
9    C        -3.3710    1.3815   11.5991  C     
10   O        -4.9726    2.6841   10.5884  O     
11   S        -5.7336    1.2512   16.5781  S     
12   N        -6.7797    1.4488   17.8756  N     
13   O        -6.0043   -0.2288   16.0653  O     
14   O        -4.2687    1.1331   17.1772  O     
15   S        -1.9858    2.0631   10.6439  S     
16   C        -1.5774    3.4829   11.5661  C     
17   N        -0.5273    4.2678   11.2673  N     
18   N        -2.2565    4.0113   12.6045  N     
19   C        -1.6291    5.1426   12.9505  C     
20   C        -0.5332    5.3074   12.1076  C     
21   C        -1.0980    7.2236   14.0664  C     
22   C        -1.9335    6.0932   13.9387  C     
23   C         0.0186    7.3872   13.2145  C     
24   C         0.3097    6.4250   12.2237  C     
25   Br       -1.4652    8.5012   15.3671  Br    
26   H        -6.4091    5.5029   14.2217  H     
27   H        -4.8950    0.9082   13.9364  H     
28   H        -5.5228    4.6816   12.1661  H     
29   H        -2.9811    1.1449   12.5905  H     
30   H        -3.6581    0.4389   11.1291  H     
31   H        -7.5225    0.8363   17.9965  H     
32   H        -6.5633    2.0917   18.5724  H     
33   H         0.1096    4.1193   10.5507  H     
34   H        -2.7483    5.9705   14.5425  H     
35   H         0.6218    8.2061   13.3156  H     
36   H         1.1112    6.5405   11.6005  H     
@<TRIPOS>BOND
     1    1    2 2
     2    1    6 1
     3    2    3 1
     4    2    7 1
     5    3    4 2
     6    3   11 1
     7    4    5 1
     8    5    6 2
     9    5    8 1
    10    8    9 1
    11    8   10 2
    12    9   15 1
    13   11   12 am
    14   11   13 2
    15   11   14 2
    16   15   16 1
    17   16   17 1
    18   16   18 2
    19   17   20 1
    20   18   19 1
    21   19   20 2
    22   19   22 1
    23   20   24 1
    24   21   22 2
    25   21   23 1
    26   21   25 1
    27   23   24 2
    28    1   26 1
    29    4   27 1
    30    6   28 1
    31    9   29 1
    32    9   30 1
    33   12   31 1
    34   12   32 1
    35   17   33 1
    36   22   34 1
    37   23   35 1
    38   24   36 1
@<TRIPOS>PROPERTY_DATA
  Total_Score	| 7.4380
  Crash		| -0.8657
  Polar		| 5.0758
  FragIndex	| 1
  FragRMSD	| 0.756

