@<TRIPOS>MOLECULE
BindingDB_50380159
 41 42 0 0 0
SMALL
NO_CHARGES


@<TRIPOS>ATOM
1    S        -5.7812    1.1662   16.5666  S     
2    O        -4.3688    1.1997   17.2963  O     
3    O        -5.8768   -0.3484   16.0842  O     
4    C        -6.1168    4.4733   14.2078  C     
5    C        -6.1736    3.6326   15.3322  C     
6    C        -5.7517    2.2839   15.2235  C     
7    C        -5.2514    1.8164   13.9879  C     
8    C        -5.1594    2.6616   12.8519  C     
9    C        -5.6224    3.9921   12.9836  C     
10   C        -4.5947    2.2188   11.6513  C     
11   C        -3.4358    1.3261   11.5940  C     
12   O        -4.9833    2.7061   10.5941  O     
13   S        -1.9946    2.0055   10.7264  S     
14   C        -1.5868    3.4185   11.6637  C     
15   N        -2.5104    4.1334   12.3448  N     
16   C        -2.1991    5.2714   12.9699  C     
17   C        -0.9435    5.7875   12.9245  C     
18   C         0.0139    5.0145   12.2852  C     
19   N        -0.3093    3.8793   11.6580  N     
20   Cl       -6.7266    4.3193   16.7862  Cl    
21   N        -6.9294    1.3225   17.7768  N     
22   O         1.2099    5.2984   12.2641  O     
23   C        -0.6954    7.0644   13.4374  C     
24   O         0.4798    7.7034   13.2178  O     
25   O        -1.6561    7.7167   14.1341  O     
26   C        -1.6147    9.0213   14.7209  C     
27   C        -0.3260    9.2329   15.5394  C     
28   H        -6.4091    5.4506   14.2757  H     
29   H        -4.9636    0.8389   13.9031  H     
30   H        -5.5616    4.6397   12.1953  H     
31   H        -3.0919    1.0283   12.5867  H     
32   H        -3.7355    0.4210   11.0630  H     
33   H        -2.9477    5.7544   13.4093  H     
34   H         0.3828    3.3779   11.1932  H     
35   H        -7.8293    0.9745   17.6441  H     
36   H        -6.6910    1.7391   18.6223  H     
37   H        -1.6931    9.7850   13.9433  H     
38   H        -2.4828    9.1116   15.3849  H     
39   H        -0.2477    8.4613   16.3055  H     
40   H        -0.3510   10.2080   16.0354  H     
41   H         0.5482    9.1777   14.8892  H     
@<TRIPOS>BOND
     1    1    2 2
     2    1    3 2
     3    1    6 1
     4    1   21 am
     5    4    5 2
     6    4    9 1
     7    5    6 1
     8    5   20 1
     9    6    7 2
    10    7    8 1
    11    8    9 2
    12    8   10 1
    13   10   11 1
    14   10   12 2
    15   11   13 1
    16   13   14 1
    17   14   15 2
    18   14   19 1
    19   15   16 1
    20   16   17 2
    21   17   18 1
    22   17   23 1
    23   18   19 1
    24   18   22 2
    25   23   24 2
    26   23   25 1
    27   25   26 1
    28   26   27 1
    29    4   28 1
    30    7   29 1
    31    9   30 1
    32   11   31 1
    33   11   32 1
    34   16   33 1
    35   19   34 1
    36   21   35 1
    37   21   36 1
    38   26   37 1
    39   26   38 1
    40   27   39 1
    41   27   40 1
    42   27   41 1
@<TRIPOS>PROPERTY_DATA
  Total_Score	| 7.6851
  Crash		| -1.4727
  Polar		| 4.9382
  FragIndex	| 1
  FragRMSD	| 0.913

