@<TRIPOS>MOLECULE
BindingDB_50329834
 42 45 0 0 0
SMALL
NO_CHARGES


@<TRIPOS>ATOM
1    O        -2.3089    8.2571   14.4827  O     
2    C        -1.5897    9.5053   14.4615  C     
3    C        -0.0843    9.2394   14.7094  C     
4    O         0.4404    8.3175   13.7216  O     
5    C        -0.3632    7.2366   13.3997  C     
6    C        -1.7416    7.2347   13.7572  C     
7    C        -2.5719    6.1533   13.3999  C     
8    C        -2.0086    5.0972   12.6752  C     
9    N        -2.5992    3.9932   12.2029  N     
10   C        -1.6548    3.2932   11.5505  C     
11   N        -0.4811    3.9555   11.5978  N     
12   C        -0.6674    5.0907   12.2997  C     
13   C         0.1743    6.1617   12.6495  C     
14   S        -1.9732    1.8213   10.6805  S     
15   C        -3.4450    1.2042   11.5517  C     
16   C        -4.5666    2.1453   11.6115  C     
17   O        -4.9283    2.6494   10.5523  O     
18   C        -5.1355    2.6066   12.8106  C     
19   C        -5.2366    1.7738   13.9522  C     
20   C        -5.7184    2.2567   15.1924  C     
21   C        -6.1361    3.6078   15.2912  C     
22   C        -6.0882    4.4341   14.1535  C     
23   C        -5.5955    3.9414   12.9348  C     
24   S        -5.7790    1.1607   16.5512  S     
25   O        -5.8895   -0.3627   16.1087  O     
26   Cl       -6.6815    4.3229   16.7311  Cl    
27   O        -4.3847    1.2307   17.3103  O     
28   N        -6.9472    1.3915   17.7311  N     
29   H        -1.7238   10.0001   13.4941  H     
30   H        -1.9950   10.1535   15.2411  H     
31   H         0.4722   10.1777   14.6561  H     
32   H         0.0423    8.8166   15.7107  H     
33   H        -3.5588    6.1475   13.6537  H     
34   H         0.3489    3.6770   11.1739  H     
35   H         1.1472    6.1644   12.3525  H     
36   H        -3.7738    0.2982   11.0352  H     
37   H        -3.1109    0.9058   12.5461  H     
38   H        -4.9541    0.7918   13.8782  H     
39   H        -6.3957    5.4080   14.2096  H     
40   H        -5.5401    4.5883   12.1442  H     
41   H        -6.7084    1.8312   18.5639  H     
42   H        -7.8240    0.9898   17.6310  H     
@<TRIPOS>BOND
     1    1    2 1
     2    1    6 1
     3    2    3 1
     4    3    4 1
     5    4    5 1
     6    5    6 2
     7    5   13 1
     8    6    7 1
     9    7    8 2
    10    8    9 1
    11    8   12 1
    12    9   10 2
    13   10   11 1
    14   10   14 1
    15   11   12 1
    16   12   13 2
    17   14   15 1
    18   15   16 1
    19   16   17 2
    20   16   18 1
    21   18   19 2
    22   18   23 1
    23   19   20 1
    24   20   21 2
    25   20   24 1
    26   21   22 1
    27   21   26 1
    28   22   23 2
    29   24   25 2
    30   24   27 2
    31   24   28 am
    32    2   29 1
    33    2   30 1
    34    3   31 1
    35    3   32 1
    36    7   33 1
    37   11   34 1
    38   13   35 1
    39   15   36 1
    40   15   37 1
    41   19   38 1
    42   22   39 1
    43   23   40 1
    44   28   41 1
    45   28   42 1
@<TRIPOS>PROPERTY_DATA
  Total_Score	| 7.1957
  Crash		| -1.5618
  Polar		| 4.8451
  FragIndex	| 1
  FragRMSD	| 0.830

