@<TRIPOS>MOLECULE
BindingDB_50380151
 40 41 0 0 0
SMALL
NO_CHARGES


@<TRIPOS>ATOM
1    S        -5.7783    1.1389   16.5118  S     
2    O        -4.4303    1.2554   17.3429  O     
3    O        -5.7754   -0.3638   15.9987  O     
4    C        -6.1049    4.5017   14.2339  C     
5    C        -6.1787    3.6302   15.3346  C     
6    C        -5.7234    2.2963   15.2019  C     
7    C        -5.1762    1.8718   13.9675  C     
8    C        -5.0830    2.7475   12.8543  C     
9    C        -5.5799    4.0637   13.0072  C     
10   C        -4.4878    2.3534   11.6530  C     
11   C        -3.2606    1.5721   11.5735  C     
12   O        -4.9517    2.7703   10.5966  O     
13   S        -1.8692    2.4616   10.8144  S     
14   C        -1.6922    3.8104   11.9031  C     
15   N        -0.6622    4.6809   11.7330  N     
16   C        -0.5214    5.7865   12.5127  C     
17   C        -1.4539    6.0672   13.5405  C     
18   C        -2.5116    5.1348   13.6875  C     
19   N        -2.6045    4.0449   12.8788  N     
20   Cl       -6.8132    4.2572   16.7772  Cl    
21   N        -7.0444    1.2415   17.6105  N     
22   C        -1.4174    7.2932   14.3885  C     
23   C        -0.3811    8.3827   13.9941  C     
24   C        -0.3934    9.6021   14.9491  C     
25   H        -6.4146    5.4765   14.3195  H     
26   H        -4.8493    0.9104   13.8748  H     
27   H        -5.5259    4.7318   12.2333  H     
28   H        -2.9160    1.2234   12.5478  H     
29   H        -3.4629    0.6829   10.9671  H     
30   H         0.2635    6.4150   12.3275  H     
31   H        -3.2433    5.2752   14.3862  H     
32   H        -7.9333    0.9536   17.3499  H     
33   H        -6.8845    1.5692   18.5087  H     
34   H        -2.4183    7.7357   14.3801  H     
35   H        -1.2022    6.9956   15.4201  H     
36   H         0.6182    7.9509   14.0111  H     
37   H        -0.5876    8.7367   12.9842  H     
38   H        -1.3699   10.0869   14.9369  H     
39   H         0.3584   10.3283   14.6393  H     
40   H        -0.1667    9.2900   15.9704  H     
@<TRIPOS>BOND
     1    1    2 2
     2    1    3 2
     3    1    6 1
     4    1   21 am
     5    4    5 2
     6    4    9 1
     7    5    6 1
     8    5   20 1
     9    6    7 2
    10    7    8 1
    11    8    9 2
    12    8   10 1
    13   10   11 1
    14   10   12 2
    15   11   13 1
    16   13   14 1
    17   14   15 2
    18   14   19 1
    19   15   16 1
    20   16   17 2
    21   17   18 1
    22   17   22 1
    23   18   19 2
    24   22   23 1
    25   23   24 1
    26    4   25 1
    27    7   26 1
    28    9   27 1
    29   11   28 1
    30   11   29 1
    31   16   30 1
    32   18   31 1
    33   21   32 1
    34   21   33 1
    35   22   34 1
    36   22   35 1
    37   23   36 1
    38   23   37 1
    39   24   38 1
    40   24   39 1
    41   24   40 1
@<TRIPOS>PROPERTY_DATA
  Total_Score	| 7.3170
  Crash		| -1.0261
  Polar		| 4.8136
  FragIndex	| 1
  FragRMSD	| 1.018

