@<TRIPOS>MOLECULE
BindingDB_50380158
 35 36 0 0 0
SMALL
NO_CHARGES


@<TRIPOS>ATOM
1    O        -4.3065    1.1759   17.2429  O     
2    S        -5.7265    1.1954   16.5342  S     
3    O        -5.8354   -0.2810   15.9584  O     
4    C        -5.6804    2.3638   15.2327  C     
5    C        -6.1856    3.6830   15.3573  C     
6    C        -6.1344    4.5535   14.2493  C     
7    C        -5.5801    4.1269   13.0315  C     
8    C        -5.0267    2.8306   12.8968  C     
9    C        -5.0861    1.9648   14.0162  C     
10   C        -4.4463    2.4208   11.6893  C     
11   O        -4.9848    2.7551   10.6405  O     
12   C        -3.2436    1.5990   11.5949  C     
13   S        -1.9900    2.2883   10.4756  S     
14   C        -1.3924    3.6364   11.4011  C     
15   N        -2.2193    4.5225   12.0185  N     
16   C        -1.7344    5.5683   12.7223  C     
17   C        -0.3969    5.7476   12.8152  C     
18   C         0.4388    4.8739   12.1806  C     
19   N        -0.0527    3.8488   11.4862  N     
20   O         1.6510    5.0147   12.2395  O     
21   C        -2.6834    6.4365   13.3890  C     
22   Cl       -6.8327    4.3014   16.7960  Cl    
23   N        -6.8760    1.2986   17.7547  N     
24   H        -6.4780    5.5130   14.3289  H     
25   H        -5.5534    4.7860   12.2527  H     
26   H        -4.7095    1.0169   13.9353  H     
27   H        -2.7719    1.4433   12.5683  H     
28   H        -3.5224    0.6172   11.2055  H     
29   H        -0.0156    6.5061   13.3410  H     
30   H         0.5555    3.2435   11.0337  H     
31   H        -3.3438    6.8988   12.6513  H     
32   H        -2.2021    7.2359   13.9623  H     
33   H        -3.2878    5.8441   14.0803  H     
34   H        -7.7535    0.9004   17.6359  H     
35   H        -6.6611    1.7540   18.5859  H     
@<TRIPOS>BOND
     1    1    2 2
     2    2    3 2
     3    2    4 1
     4    2   23 am
     5    4    5 1
     6    4    9 2
     7    5    6 2
     8    5   22 1
     9    6    7 1
    10    7    8 2
    11    8    9 1
    12    8   10 1
    13   10   11 2
    14   10   12 1
    15   12   13 1
    16   13   14 1
    17   14   15 2
    18   14   19 1
    19   15   16 1
    20   16   17 2
    21   16   21 1
    22   17   18 1
    23   18   19 1
    24   18   20 2
    25    6   24 1
    26    7   25 1
    27    9   26 1
    28   12   27 1
    29   12   28 1
    30   17   29 1
    31   19   30 1
    32   21   31 1
    33   21   32 1
    34   21   33 1
    35   23   34 1
    36   23   35 1
@<TRIPOS>PROPERTY_DATA
  Total_Score	| 6.7863
  Crash		| -0.7816
  Polar		| 4.9781
  FragIndex	| 1
  FragRMSD	| 1.428

