@<TRIPOS>MOLECULE
BindingDB_50380146
 44 45 0 0 0
SMALL
NO_CHARGES


@<TRIPOS>ATOM
1    S        -5.6800    1.1835   16.4742  S     
2    O        -4.2883    1.2215   17.2517  O     
3    O        -5.7414   -0.3137   15.9442  O     
4    C        -6.0865    4.5329   14.1935  C     
5    C        -6.1324    3.6559   15.2979  C     
6    C        -5.6572    2.3287   15.1618  C     
7    C        -5.1259    1.9117   13.9122  C     
8    C        -5.0912    2.7766   12.7935  C     
9    C        -5.5825    4.0957   12.9622  C     
10   C        -4.6099    2.3524   11.5576  C     
11   C        -3.3902    1.5856   11.3662  C     
12   O        -5.1648    2.7613   10.5355  O     
13   S        -2.1397    2.5111   10.4324  S     
14   C        -1.8624    3.7757   11.5842  C     
15   N        -2.1331    5.0653   11.3053  N     
16   C        -1.9150    6.0775   12.1962  C     
17   C        -1.4400    5.7482   13.4184  C     
18   C        -1.1758    4.4367   13.7165  C     
19   N        -1.3632    3.4866   12.8204  N     
20   Cl       -6.7492    4.2945   16.7445  Cl    
21   N        -6.8878    1.2794   17.6402  N     
22   O        -0.7529    4.1196   14.8101  O     
23   C        -2.2384    7.4651   11.7553  C     
24   C        -1.6599    8.6145   12.6468  C     
25   C        -1.6767    7.6714   10.3045  C     
26   C        -3.7959    7.6195   11.7372  C     
27   H        -6.4155    5.4929   14.2896  H     
28   H        -4.7906    0.9481   13.8075  H     
29   H        -5.5632    4.7588   12.1829  H     
30   H        -2.9449    1.2652   12.3099  H     
31   H        -3.6347    0.6855   10.8029  H     
32   H        -1.2778    6.4114   14.1290  H     
33   H        -1.1703    2.5658   13.0360  H     
34   H        -7.7520    0.8691   17.4764  H     
35   H        -6.7454    1.8164   18.4307  H     
36   H        -2.0745    8.5828   13.6501  H     
37   H        -1.9070    9.6268   12.2371  H     
38   H        -0.5763    8.5607   12.6995  H     
39   H        -0.5876    7.5268   10.2941  H     
40   H        -1.8885    8.6809    9.9462  H     
41   H        -2.1188    6.9675    9.5907  H     
42   H        -4.2635    6.9004   11.0600  H     
43   H        -4.0831    8.6217   11.4106  H     
44   H        -4.2014    7.4563   12.7432  H     
@<TRIPOS>BOND
     1    1    2 2
     2    1    3 2
     3    1    6 1
     4    1   21 am
     5    4    5 2
     6    4    9 1
     7    5    6 1
     8    5   20 1
     9    6    7 2
    10    7    8 1
    11    8    9 2
    12    8   10 1
    13   10   11 1
    14   10   12 2
    15   11   13 1
    16   13   14 1
    17   14   15 2
    18   14   19 1
    19   15   16 1
    20   16   17 2
    21   16   23 1
    22   17   18 1
    23   18   19 1
    24   18   22 2
    25   23   24 1
    26   23   25 1
    27   23   26 1
    28    4   27 1
    29    7   28 1
    30    9   29 1
    31   11   30 1
    32   11   31 1
    33   17   32 1
    34   19   33 1
    35   21   34 1
    36   21   35 1
    37   24   36 1
    38   24   37 1
    39   24   38 1
    40   25   39 1
    41   25   40 1
    42   25   41 1
    43   26   42 1
    44   26   43 1
    45   26   44 1
@<TRIPOS>PROPERTY_DATA
  Total_Score	| 6.3634
  Crash		| -1.6188
  Polar		| 5.7459
  FragIndex	| 1
  FragRMSD	| 1.224

