@<TRIPOS>MOLECULE
BindingDB_50380140
 31 32 0 0 0
SMALL
NO_CHARGES


@<TRIPOS>ATOM
1    S        -5.7762    1.1648   16.5448  S     
2    O        -4.3668    1.2353   17.2790  O     
3    O        -5.8263   -0.3345   16.0240  O     
4    C        -6.1346    4.5287   14.2654  C     
5    C        -6.1944    3.6580   15.3699  C     
6    C        -5.7664    2.3137   15.2266  C     
7    C        -5.2516    1.8855   13.9791  C     
8    C        -5.1683    2.7559   12.8652  C     
9    C        -5.6367    4.0806   13.0302  C     
10   C        -4.6254    2.3363   11.6475  C     
11   C        -3.4285    1.5136   11.5365  C     
12   O        -5.0967    2.7735   10.6030  O     
13   S        -2.0545    2.3673   10.7144  S     
14   C        -1.7890    3.6615   11.8411  C     
15   N        -2.8233    4.2625   12.4896  N     
16   C        -2.6205    5.3059   13.3411  C     
17   C        -1.3173    5.7936   13.5517  C     
18   C        -0.2688    5.1665   12.8522  C     
19   N        -0.5268    4.1221   12.0240  N     
20   Cl       -6.7743    4.2918   16.8340  Cl    
21   N        -6.9244    1.2656   17.7593  N     
22   H        -6.4329    5.5016   14.3599  H     
23   H        -4.9491    0.9157   13.8770  H     
24   H        -5.5846    4.7463   12.2575  H     
25   H        -3.0658    1.1802   12.5115  H     
26   H        -3.6614    0.6226   10.9550  H     
27   H        -3.4197    5.7370   13.8168  H     
28   H        -1.1445    6.5858   14.1770  H     
29   H         0.6905    5.4937   12.9609  H     
30   H        -7.7977    0.8543   17.6390  H     
31   H        -6.6820    1.6401   18.6272  H     
@<TRIPOS>BOND
     1    1    2 2
     2    1    3 2
     3    1    6 1
     4    1   21 am
     5    4    5 2
     6    4    9 1
     7    5    6 1
     8    5   20 1
     9    6    7 2
    10    7    8 1
    11    8    9 2
    12    8   10 1
    13   10   11 1
    14   10   12 2
    15   11   13 1
    16   13   14 1
    17   14   15 2
    18   14   19 1
    19   15   16 1
    20   16   17 2
    21   17   18 1
    22   18   19 2
    23    4   22 1
    24    7   23 1
    25    9   24 1
    26   11   25 1
    27   11   26 1
    28   16   27 1
    29   17   28 1
    30   18   29 1
    31   21   30 1
    32   21   31 1
@<TRIPOS>PROPERTY_DATA
  Total_Score	| 6.3861
  Crash		| -1.0171
  Polar		| 4.9668
  FragIndex	| 1
  FragRMSD	| 1.071

