@<TRIPOS>MOLECULE
BindingDB_50380141
 43 44 0 0 0
SMALL
NO_CHARGES


@<TRIPOS>ATOM
1    S        -5.7590    1.1458   16.6163  S     
2    O        -4.3683    1.2177   17.3852  O     
3    O        -5.7963   -0.3569   16.0938  O     
4    C        -6.1371    4.4655   14.2822  C     
5    C        -6.2011    3.6118   15.3997  C     
6    C        -5.7140    2.2867   15.2915  C     
7    C        -5.1387    1.8533   14.0752  C     
8    C        -5.0725    2.6996   12.9444  C     
9    C        -5.5993    4.0069   13.0666  C     
10   C        -4.4956    2.2621   11.7518  C     
11   C        -3.2834    1.4599   11.6840  C     
12   O        -4.9759    2.6518   10.6918  O     
13   S        -2.0110    2.1530   10.5850  S     
14   C        -1.6783    3.6432   11.4159  C     
15   N        -0.4054    3.9860   11.7392  N     
16   C        -0.1248    5.1556   12.3761  C     
17   C        -1.1581    6.0534   12.7347  C     
18   C        -2.4665    5.6803   12.3477  C     
19   N        -2.6879    4.5006   11.7112  N     
20   Cl       -6.8390    4.2556   16.8342  Cl    
21   N        -6.9699    1.2672   17.7736  N     
22   C        -0.8840    7.3442   13.4333  C     
23   C        -1.7981    7.6472   14.6604  C     
24   C        -1.1376    8.4939   15.7861  C     
25   C        -0.3234    9.7191   15.3149  C     
26   H        -6.4691    5.4317   14.3473  H     
27   H        -4.7820    0.8992   14.0055  H     
28   H        -5.5630    4.6587   12.2754  H     
29   H        -2.8152    1.3267   12.6630  H     
30   H        -3.5427    0.4665   11.3166  H     
31   H         0.8512    5.3728   12.5888  H     
32   H        -3.2658    6.2865   12.5443  H     
33   H        -7.8488    0.8966   17.5922  H     
34   H        -6.7995    1.7430   18.6005  H     
35   H         0.1566    7.3570   13.7617  H     
36   H        -0.9959    8.1534   12.7141  H     
37   H        -2.6948    8.1681   14.3084  H     
38   H        -2.1339    6.7073   15.1070  H     
39   H        -1.9132    8.8292   16.4746  H     
40   H        -0.4659    7.8476   16.3508  H     
41   H         0.5308    9.4021   14.7124  H     
42   H         0.0460   10.2695   16.1834  H     
43   H        -0.9467   10.3912   14.7240  H     
@<TRIPOS>BOND
     1    1    2 2
     2    1    3 2
     3    1    6 1
     4    1   21 am
     5    4    5 2
     6    4    9 1
     7    5    6 1
     8    5   20 1
     9    6    7 2
    10    7    8 1
    11    8    9 2
    12    8   10 1
    13   10   11 1
    14   10   12 2
    15   11   13 1
    16   13   14 1
    17   14   15 2
    18   14   19 1
    19   15   16 1
    20   16   17 2
    21   17   18 1
    22   17   22 1
    23   18   19 2
    24   22   23 1
    25   23   24 1
    26   24   25 1
    27    4   26 1
    28    7   27 1
    29    9   28 1
    30   11   29 1
    31   11   30 1
    32   16   31 1
    33   18   32 1
    34   21   33 1
    35   21   34 1
    36   22   35 1
    37   22   36 1
    38   23   37 1
    39   23   38 1
    40   24   39 1
    41   24   40 1
    42   25   41 1
    43   25   42 1
    44   25   43 1
@<TRIPOS>PROPERTY_DATA
  Total_Score	| 8.0654
  Crash		| -1.4915
  Polar		| 4.8498
  FragIndex	| 1
  FragRMSD	| 1.138

