@<TRIPOS>MOLECULE
BindingDB_50329833
 36 38 0 0 0
SMALL
NO_CHARGES


@<TRIPOS>ATOM
1    C        -6.0517    4.5825   14.1327  C     
2    C        -6.1410    3.7643   15.2748  C     
3    C        -5.7400    2.4010   15.2033  C     
4    C        -5.2551    1.8939   13.9731  C     
5    C        -5.1152    2.7125   12.8252  C     
6    C        -5.5548    4.0531   12.9319  C     
7    Cl       -6.6549    4.5229   16.7008  Cl    
8    C        -4.5547    2.2246   11.6300  C     
9    C        -3.3909    1.3509   11.5588  C     
10   O        -4.9547    2.6923   10.5623  O     
11   S        -5.7571    1.3053   16.5633  S     
12   N        -6.7525    1.5647   17.8944  N     
13   O        -6.0854   -0.1569   16.0400  O     
14   O        -4.2800    1.1478   17.1270  O     
15   S        -1.9468    2.0580   10.6891  S     
16   C        -1.5704    3.4351   11.6698  C     
17   N        -0.4863    4.2078   11.4412  N     
18   N        -2.3148    3.9736   12.6555  N     
19   C        -1.7051    5.0905   13.0365  C     
20   C        -0.5488    5.2618   12.2623  C     
21   C        -1.2711    7.2037   14.1525  C     
22   C        -2.0848    6.0593   13.9923  C     
23   C        -0.1063    7.3799   13.3687  C     
24   C         0.2681    6.4003   12.4235  C     
25   H        -6.3413    5.5697   14.1767  H     
26   H        -4.9695    0.9146   13.9202  H     
27   H        -5.4912    4.6889   12.1311  H     
28   H        -3.0571    1.0196   12.5545  H     
29   H        -3.6759    0.4487   11.0059  H     
30   H        -7.3009    0.8116   18.2116  H     
31   H        -6.5407    2.2728   18.5120  H     
32   H         0.2033    4.0664   10.7722  H     
33   H        -1.5372    7.8891   14.8535  H     
34   H        -2.9229    5.9229   14.5552  H     
35   H         0.4809    8.2032   13.5125  H     
36   H         1.1182    6.5041   11.8611  H     
@<TRIPOS>BOND
     1    1    2 2
     2    1    6 1
     3    2    3 1
     4    2    7 1
     5    3    4 2
     6    3   11 1
     7    4    5 1
     8    5    6 2
     9    5    8 1
    10    8    9 1
    11    8   10 2
    12    9   15 1
    13   11   12 am
    14   11   13 2
    15   11   14 2
    16   15   16 1
    17   16   17 1
    18   16   18 2
    19   17   20 1
    20   18   19 1
    21   19   20 2
    22   19   22 1
    23   20   24 1
    24   21   22 2
    25   21   23 1
    26   23   24 2
    27    1   25 1
    28    4   26 1
    29    6   27 1
    30    9   28 1
    31    9   29 1
    32   12   30 1
    33   12   31 1
    34   17   32 1
    35   21   33 1
    36   22   34 1
    37   23   35 1
    38   24   36 1
@<TRIPOS>PROPERTY_DATA
  Total_Score	| 6.9702
  Crash		| -0.8393
  Polar		| 5.1207
  FragIndex	| 1
  FragRMSD	| 0.787

