@<TRIPOS>MOLECULE
BindingDB_50380138
 48 50 0 0 0
SMALL
NO_CHARGES


@<TRIPOS>ATOM
1    S        -5.8903    1.0741   16.4140  S     
2    O        -4.8159    1.2464   17.5718  O     
3    O        -5.6435   -0.3845   15.8318  O     
4    C        -6.1213    4.5611   14.3199  C     
5    C        -6.1937    3.6382   15.3829  C     
6    C        -5.7136    2.3164   15.2025  C     
7    C        -5.0880    1.9777   13.9847  C     
8    C        -4.9865    2.9111   12.9174  C     
9    C        -5.5519    4.1941   13.0946  C     
10   C        -4.3525    2.5733   11.7268  C     
11   C        -3.0484    1.9219   11.6779  C     
12   O        -4.9144    2.8207   10.6666  O     
13   S        -1.8554    2.7825   10.6255  S     
14   C        -1.3956    4.1743   11.5673  C     
15   N        -0.1440    4.6573   11.3935  N     
16   C         0.2749    5.7567   12.0220  C     
17   C        -0.5580    6.4646   12.8766  C     
18   C        -1.8146    5.9653   13.0731  C     
19   N        -2.2089    4.8539   12.4114  N     
20   Cl       -6.8620    4.1856   16.8444  Cl    
21   N        -7.3922    0.9864   17.1611  N     
22   C        -0.0748    7.6977   13.5398  C     
23   C        -0.8111    8.9545   13.2091  C     
24   C        -1.3233    9.1964   11.9084  C     
25   C        -2.0430   10.3686   11.6217  C     
26   C        -2.2412   11.3368   12.6251  C     
27   C        -1.6916   11.1444   13.9034  C     
28   C        -0.9811    9.9643   14.1908  C     
29   C        -2.8103    6.5674   13.9492  C     
30   O         1.4334    6.0796   11.7854  O     
31   H        -6.4701    5.5137   14.4373  H     
32   H        -4.7183    1.0351   13.8573  H     
33   H        -5.5248    4.8860   12.3394  H     
34   H        -2.6064    1.8072   12.6706  H     
35   H        -3.1819    0.9247   11.2616  H     
36   H         0.4569    4.2023   10.7797  H     
37   H        -8.1092    0.5028   16.7237  H     
38   H        -7.4686    1.2122   18.1010  H     
39   H        -0.0992    7.5252   14.6160  H     
40   H         0.9750    7.9033   13.3027  H     
41   H        -1.1817    8.5066   11.1662  H     
42   H        -2.4363   10.5156   10.6902  H     
43   H        -2.7756   12.1867   12.4215  H     
44   H        -1.8211   11.8538   14.6283  H     
45   H        -0.5911    9.8449   15.1280  H     
46   H        -2.4141    6.6710   14.9627  H     
47   H        -3.7163    5.9592   14.0149  H     
48   H        -3.1026    7.5497   13.5681  H     
@<TRIPOS>BOND
     1    1    2 2
     2    1    3 2
     3    1    6 1
     4    1   21 am
     5    4    5 2
     6    4    9 1
     7    5    6 1
     8    5   20 1
     9    6    7 2
    10    7    8 1
    11    8    9 2
    12    8   10 1
    13   10   11 1
    14   10   12 2
    15   11   13 1
    16   13   14 1
    17   14   15 1
    18   14   19 2
    19   15   16 1
    20   16   17 1
    21   16   30 2
    22   17   18 2
    23   17   22 1
    24   18   19 1
    25   18   29 1
    26   22   23 1
    27   23   24 2
    28   23   28 1
    29   24   25 1
    30   25   26 2
    31   26   27 1
    32   27   28 2
    33    4   31 1
    34    7   32 1
    35    9   33 1
    36   11   34 1
    37   11   35 1
    38   15   36 1
    39   21   37 1
    40   21   38 1
    41   22   39 1
    42   22   40 1
    43   24   41 1
    44   25   42 1
    45   26   43 1
    46   27   44 1
    47   28   45 1
    48   29   46 1
    49   29   47 1
    50   29   48 1
@<TRIPOS>PROPERTY_DATA
  Total_Score	| 7.5550
  Crash		| -0.9897
  Polar		| 4.5028
  FragIndex	| 1
  FragRMSD	| 1.132

