@<TRIPOS>MOLECULE
BindingDB_14796
 36 37 0 0 0
SMALL
NO_CHARGES


@<TRIPOS>ATOM
1    C        42.4033    1.1410   64.7714  C     
2    C        43.5939    1.5827   64.1868  C     
3    N        41.3804    1.5784   64.0196  N     
4    N        41.8389    2.2569   63.0168  N     
5    C        42.2127    0.3331   65.9904  C     
6    C        44.9137    1.3500   64.6545  C     
7    O        45.1359    0.7273   65.8385  O     
8    O        45.9832    1.7398   63.9098  O     
9    C        47.3711    1.6441   64.2567  C     
10   C        48.1875    2.5641   63.3314  C     
11   C        41.0085    2.7900   62.0778  C     
12   C        40.9969    2.2771   60.7609  C     
13   C        40.1238    2.8151   59.7967  C     
14   C        39.2575    3.8706   60.1375  C     
15   C        39.2605    4.3774   61.4539  C     
16   C        40.1242    3.8299   62.4204  C     
17   C        43.1911    2.3157   63.0635  C     
18   C        44.0614    3.0633   62.1294  C     
19   N        38.4338    4.3857   59.2080  N     
20   H        42.7200   -0.6294   65.8812  H     
21   H        41.1522    0.1484   66.1865  H     
22   H        42.6341    0.8654   66.8455  H     
23   H        47.5026    1.9321   65.3020  H     
24   H        47.7278    0.6218   64.1202  H     
25   H        48.0145    2.2550   62.3007  H     
26   H        49.2543    2.4755   63.5488  H     
27   H        47.8874    3.6068   63.4469  H     
28   H        41.6049    1.4914   60.5116  H     
29   H        40.1119    2.4144   58.8553  H     
30   H        38.6106    5.1212   61.7235  H     
31   H        40.0902    4.1800   63.3830  H     
32   H        44.6497    3.7964   62.6836  H     
33   H        43.4801    3.6005   61.3819  H     
34   H        44.7228    2.3668   61.6141  H     
35   H        37.8402    5.1222   59.4310  H     
36   H        38.4330    4.0294   58.3031  H     
@<TRIPOS>BOND
     1    1    2 1
     2    1    3 2
     3    1    5 1
     4    2    6 1
     5    2   17 2
     6    3    4 1
     7    4   11 1
     8    4   17 1
     9    6    7 2
    10    6    8 1
    11    8    9 1
    12    9   10 1
    13   11   12 2
    14   11   16 1
    15   12   13 1
    16   13   14 2
    17   14   15 1
    18   14   19 1
    19   15   16 2
    20   17   18 1
    21    5   20 1
    22    5   21 1
    23    5   22 1
    24    9   23 1
    25    9   24 1
    26   10   25 1
    27   10   26 1
    28   10   27 1
    29   12   28 1
    30   13   29 1
    31   15   30 1
    32   16   31 1
    33   18   32 1
    34   18   33 1
    35   18   34 1
    36   19   35 1
    37   19   36 1
@<TRIPOS>PROPERTY_DATA
  Total_Score	| 5.6496
  Crash		| -0.4703
  Polar		| 1.0866
  FragIndex	| 1
  FragRMSD	| 0.411

