@<TRIPOS>MOLECULE
BindingDB_7175
 53 57 0 0 0
SMALL
NO_CHARGES


@<TRIPOS>ATOM
1    C        25.8356    5.2984   61.8771  C     
2    C        27.2363    7.7127   61.4226  C     
3    C        26.1705    7.3167   60.6025  C     
4    C        27.6300    8.9239   60.8515  C     
5    C        26.8928    5.7007   62.7268  C     
6    C        27.6269    6.8895   62.5205  C     
7    C        27.4429    5.0748   63.8418  C     
8    N        26.8423    9.2011   59.7943  N     
9    N        25.9838    8.2432   59.6537  N     
10   N        28.4379    5.8782   64.2483  N     
11   N        28.5805    6.9387   63.5077  N     
12   C        29.6280    7.7980   63.8093  C     
13   C        31.2750    8.7324   65.4209  C     
14   C        31.9167    9.4537   64.3891  C     
15   C        31.4101    9.3486   63.0797  C     
16   C        30.3113    8.5156   62.8025  C     
17   C        30.1514    7.9280   65.1318  C     
18   O        34.1769    9.9827   65.9399  O     
19   S        33.3311   10.4403   64.6744  S     
20   O        34.3582   10.1782   63.4877  O     
21   C        27.1946    3.8644   64.4578  C     
22   O        27.9545    3.4897   65.3368  O     
23   N        26.2151    3.0380   64.1391  N     
24   C        25.4637    6.1225   60.8030  C     
25   C        31.6242   13.1579   66.4360  C     
26   C        30.9055   13.0893   64.0622  C     
27   C        32.3670   12.7598   63.6428  C     
28   C        33.0739   12.8055   66.0023  C     
29   N        33.0381   12.1106   64.7403  N     
30   N        30.8369   13.8398   65.3570  N     
31   C        31.1443   15.2969   65.2322  C     
32   H        25.3300    4.4273   62.0069  H     
33   H        28.3923    9.5306   61.1361  H     
34   H        25.3011    8.2081   58.9657  H     
35   H        31.6343    8.7711   66.3794  H     
36   H        31.8547    9.8535   62.3087  H     
37   H        30.0274    8.4120   61.8330  H     
38   H        29.7221    7.4148   65.9086  H     
39   H        26.1502    2.1797   64.5897  H     
40   H        25.5590    3.2685   63.4687  H     
41   H        24.6981    5.8572   60.1752  H     
42   H        31.1059   12.2362   66.7055  H     
43   H        31.6554   13.7672   67.3410  H     
44   H        30.4096   13.6494   63.2604  H     
45   H        30.3513   12.1504   64.1811  H     
46   H        32.3466   12.1469   62.7384  H     
47   H        32.8967   13.6856   63.3921  H     
48   H        33.6651   13.7228   65.8931  H     
49   H        33.5445   12.2160   66.7943  H     
50   H        29.8572   13.7952   65.6521  H     
51   H        32.1804   15.4687   64.9352  H     
52   H        30.9668   15.7974   66.1848  H     
53   H        30.4934   15.7631   64.4917  H     
@<TRIPOS>BOND
     1    1    5 1
     2    1   24 2
     3    2    3 2
     4    2    4 1
     5    2    6 1
     6    3    9 1
     7    3   24 1
     8    4    8 2
     9    5    6 2
    10    5    7 1
    11    6   11 1
    12    7   10 2
    13    7   21 1
    14    8    9 1
    15   10   11 1
    16   11   12 1
    17   12   16 1
    18   12   17 2
    19   13   14 2
    20   13   17 1
    21   14   15 1
    22   14   19 1
    23   15   16 2
    24   18   19 2
    25   19   20 2
    26   19   29 1
    27   21   22 2
    28   21   23 am
    29   25   28 1
    30   25   30 1
    31   26   27 1
    32   26   30 1
    33   27   29 1
    34   28   29 1
    35   30   31 1
    36    1   32 1
    37    4   33 1
    38    9   34 1
    39   13   35 1
    40   15   36 1
    41   16   37 1
    42   17   38 1
    43   23   39 1
    44   23   40 1
    45   24   41 1
    46   25   42 1
    47   25   43 1
    48   26   44 1
    49   26   45 1
    50   27   46 1
    51   27   47 1
    52   28   48 1
    53   28   49 1
    54   30   50 1
    55   31   51 1
    56   31   52 1
    57   31   53 1
@<TRIPOS>PROPERTY_DATA
  Total_Score	| 6.3100
  Crash		| -1.6635
  Polar		| 4.2479
  FragIndex	| 1
  FragRMSD	| 0.837

