@<TRIPOS>MOLECULE
BindingDB_24635
 34 36 0 0 0
SMALL
NO_CHARGES


@<TRIPOS>ATOM
1    C        28.0542    6.5991   63.2705  C     
2    O        27.7578    7.5164   62.5019  O     
3    N        29.1636    6.6465   63.9914  N     
4    C        30.1574    7.5924   64.0825  C     
5    C        31.4552    9.5213   63.3020  C     
6    C        30.4042    8.6037   63.1229  C     
7    C        31.0167    7.5168   65.2015  C     
8    C        32.0761    8.4314   65.3816  C     
9    C        32.2991    9.4457   64.4317  C     
10   C        27.2397    5.4788   63.3664  C     
11   C        26.1526    5.1011   62.5777  C     
12   C        24.4226    4.9879   60.8749  C     
13   C        23.9801    3.7567   61.4082  C     
14   C        24.6393    3.1830   62.5131  C     
15   C        25.7264    3.8713   63.0799  C     
16   C        25.5123    5.6664   61.4597  C     
17   N        27.4230    4.4872   64.2680  N     
18   N        26.5371    3.5557   64.0952  N     
19   N        33.0111   12.1589   64.5354  N     
20   S        33.6053   10.5862   64.6037  S     
21   O        34.5114   10.4032   65.8957  O     
22   O        34.5052   10.3552   63.3125  O     
23   H        29.2888    5.8946   64.5921  H     
24   H        31.6086   10.2481   62.5942  H     
25   H        29.8403    8.6655   62.2697  H     
26   H        30.8653    6.7890   65.9052  H     
27   H        32.6680    8.3481   66.2097  H     
28   H        23.9578    5.3891   60.0607  H     
29   H        23.1858    3.2730   60.9853  H     
30   H        24.3470    2.2848   62.8907  H     
31   H        25.8284    6.5534   61.0583  H     
32   H        26.4877    2.7346   64.6127  H     
33   H        33.6118   12.9033   64.3683  H     
34   H        32.0569   12.3182   64.6867  H     
@<TRIPOS>BOND
     1    1    2 2
     2    1    3 am
     3    1   10 1
     4    3    4 1
     5    4    6 2
     6    4    7 1
     7    5    6 1
     8    5    9 2
     9    7    8 2
    10    8    9 1
    11    9   20 1
    12   10   11 1
    13   10   17 2
    14   11   15 2
    15   11   16 1
    16   12   13 1
    17   12   16 2
    18   13   14 2
    19   14   15 1
    20   15   18 1
    21   17   18 1
    22   19   20 am
    23   20   21 2
    24   20   22 2
    25    3   23 1
    26    5   24 1
    27    6   25 1
    28    7   26 1
    29    8   27 1
    30   12   28 1
    31   13   29 1
    32   14   30 1
    33   16   31 1
    34   18   32 1
    35   19   33 1
    36   19   34 1
@<TRIPOS>PROPERTY_DATA
  Total_Score	| 5.5604
  Crash		| -0.7713
  Polar		| 1.9058
  FragIndex	| 1
  FragRMSD	| 0.360

