@<TRIPOS>MOLECULE
BindingDB_24636
 23 24 0 0 0
SMALL
NO_CHARGES


@<TRIPOS>ATOM
1    C        28.0299    6.3965   63.5491  C     
2    O        27.6211    7.3422   62.8789  O     
3    N        29.1621    6.4646   64.2350  N     
4    C        30.0950    7.4660   64.3022  C     
5    C        31.6960    8.6758   65.7141  C     
6    C        30.6848    7.7065   65.5629  C     
7    C        30.5522    8.2170   63.1874  C     
8    C        31.5700    9.1769   63.3357  C     
9    C        32.1450    9.4050   64.5981  C     
10   C        27.2596    5.2500   63.6161  C     
11   C        26.0571    5.0088   62.9623  C     
12   C        25.6557    3.7382   63.3341  C     
13   N        27.5357    4.1427   64.3383  N     
14   N        26.5908    3.2663   64.1661  N     
15   H        29.3419    5.6961   64.8014  H     
16   H        32.1140    8.8438   66.6325  H     
17   H        30.3750    7.1842   66.3856  H     
18   H        30.1787    8.0437   62.2556  H     
19   H        31.8973    9.7044   62.5231  H     
20   H        32.8957   10.0902   64.7048  H     
21   H        25.5580    5.6433   62.3333  H     
22   H        24.8035    3.2591   63.0371  H     
23   H        26.5624    2.3912   64.5915  H     
@<TRIPOS>BOND
     1    1    2 2
     2    1    3 am
     3    1   10 1
     4    3    4 1
     5    4    6 2
     6    4    7 1
     7    5    6 1
     8    5    9 2
     9    7    8 2
    10    8    9 1
    11   10   11 1
    12   10   13 2
    13   11   12 2
    14   12   14 1
    15   13   14 1
    16    3   15 1
    17    5   16 1
    18    6   17 1
    19    7   18 1
    20    8   19 1
    21    9   20 1
    22   11   21 1
    23   12   22 1
    24   14   23 1
@<TRIPOS>PROPERTY_DATA
  Total_Score	| 3.8766
  Crash		| -0.3185
  Polar		| 1.5593
  FragIndex	| 1
  FragRMSD	| 0.509

