@<TRIPOS>MOLECULE
BindingDB_7179
 22 24 0 0 0
SMALL
NO_CHARGES


@<TRIPOS>ATOM
1    C        25.4840    6.1448   61.7287  C     
2    C        24.8594    3.4135   61.9744  C     
3    C        24.1564    4.2136   61.0817  C     
4    C        24.3118    2.1492   61.8467  C     
5    C        26.1951    5.3240   62.6353  C     
6    C        25.8829    3.9703   62.7543  C     
7    C        27.2384    5.5444   63.5360  C     
8    N        23.3391    2.2148   60.9199  N     
9    N        23.2519    3.4318   60.4794  N     
10   N        27.4925    4.3603   64.1382  N     
11   N        26.7000    3.4422   63.6751  N     
12   C        27.9233    6.7133   63.8081  C     
13   O        27.6532    7.7616   63.2403  O     
14   N        28.8950    6.7460   64.6929  N     
15   C        24.4518    5.5816   60.9422  C     
16   H        25.7079    7.1363   61.6337  H     
17   H        24.5870    1.3133   62.3593  H     
18   H        22.6237    3.7331   59.8102  H     
19   H        26.6992    2.5113   63.9612  H     
20   H        29.3609    7.5783   64.8712  H     
21   H        29.1531    5.9424   65.1736  H     
22   H        23.9293    6.1586   60.2796  H     
@<TRIPOS>BOND
     1    1    5 1
     2    1   15 2
     3    2    3 2
     4    2    4 1
     5    2    6 1
     6    3    9 1
     7    3   15 1
     8    4    8 2
     9    5    6 2
    10    5    7 1
    11    6   11 1
    12    7   10 2
    13    7   12 1
    14    8    9 1
    15   10   11 1
    16   12   13 2
    17   12   14 am
    18    1   16 1
    19    4   17 1
    20    9   18 1
    21   11   19 1
    22   14   20 1
    23   14   21 1
    24   15   22 1
@<TRIPOS>PROPERTY_DATA
  Total_Score	| 2.2976
  Crash		| -1.4555
  Polar		| 1.3706
  FragIndex	| 1
  FragRMSD	| 0.657

