@<TRIPOS>MOLECULE
BindingDB_7167
 37 40 0 0 0
SMALL
NO_CHARGES


@<TRIPOS>ATOM
1    C        26.0315    4.1077   62.7365  C     
2    C        25.9151    5.0828   61.7174  C     
3    C        27.6394    5.5423   63.8816  C     
4    C        26.9052    4.3624   63.8110  C     
5    C        28.2696    5.5195   65.1112  C     
6    C        26.7399    6.2350   61.7646  C     
7    C        27.6372    6.4599   62.8175  C     
8    C        26.8955    7.3185   60.9052  C     
9    N        28.0176    4.3239   65.6819  N     
10   N        27.2268    3.6440   64.8992  N     
11   N        27.8802    8.0716   61.4363  N     
12   N        28.3500    7.5796   62.5499  N     
13   C        29.4399    8.1673   63.1731  C     
14   C        30.7754   10.2183   63.4683  C     
15   C        31.7889    9.4944   64.1221  C     
16   C        31.6173    8.1103   64.3243  C     
17   C        30.4628    7.4496   63.8543  C     
18   C        29.6212    9.5635   63.0123  C     
19   O        33.7815    9.7804   66.0000  O     
20   S        33.2572   10.3019   64.5949  S     
21   O        34.3093    9.9540   63.4559  O     
22   N        33.0933   11.9755   64.6560  N     
23   C        26.2215    7.6241   59.7356  C     
24   O        25.3973    6.8671   59.2469  O     
25   N        26.4210    8.7656   59.1127  N     
26   H        25.4999    3.2314   62.6954  H     
27   H        25.2832    4.9222   60.9334  H     
28   H        28.8323    6.2892   65.4806  H     
29   H        26.9043    2.7452   65.0837  H     
30   H        30.8729   11.2235   63.2924  H     
31   H        32.3441    7.5588   64.7877  H     
32   H        30.3922    6.4349   64.0252  H     
33   H        28.9054   10.1233   62.5362  H     
34   H        33.8579   12.5251   64.9226  H     
35   H        32.1904   12.3741   64.6072  H     
36   H        25.9274    8.9692   58.3027  H     
37   H        27.0554    9.4102   59.4657  H     
@<TRIPOS>BOND
     1    1    2 2
     2    1    4 1
     3    2    6 1
     4    3    4 2
     5    3    5 1
     6    3    7 1
     7    4   10 1
     8    5    9 2
     9    6    7 2
    10    6    8 1
    11    7   12 1
    12    8   11 2
    13    8   23 1
    14    9   10 1
    15   11   12 1
    16   12   13 1
    17   13   17 1
    18   13   18 2
    19   14   15 2
    20   14   18 1
    21   15   16 1
    22   15   20 1
    23   16   17 2
    24   19   20 2
    25   20   21 2
    26   20   22 am
    27   23   24 2
    28   23   25 am
    29    1   26 1
    30    2   27 1
    31    5   28 1
    32   10   29 1
    33   14   30 1
    34   16   31 1
    35   17   32 1
    36   18   33 1
    37   22   34 1
    38   22   35 1
    39   25   36 1
    40   25   37 1
@<TRIPOS>PROPERTY_DATA
  Total_Score	| 4.0310
  Crash		| -1.0387
  Polar		| 1.6451
  FragIndex	| 1
  FragRMSD	| 1.250

