@<TRIPOS>MOLECULE
BindingDB_24634
 29 31 0 0 0
SMALL
NO_CHARGES


@<TRIPOS>ATOM
1    C        28.0663    6.4040   63.4893  C     
2    O        27.7904    7.3353   62.7428  O     
3    N        29.1173    6.4769   64.2934  N     
4    C        30.0662    7.4563   64.3711  C     
5    C        31.5336    8.7763   65.8188  C     
6    C        30.5608    7.7756   65.6532  C     
7    C        30.6249    8.1060   63.2407  C     
8    C        31.6387    9.0801   63.4009  C     
9    C        32.0763    9.4257   64.6944  C     
10   C        27.2460    5.2861   63.5250  C     
11   C        26.0925    5.0297   62.7779  C     
12   C        24.2047    5.2058   61.2569  C     
13   C        23.8458    3.8707   61.5455  C     
14   C        24.6145    3.1166   62.4545  C     
15   C        25.7264    3.7215   63.0728  C     
16   C        25.3357    5.7890   61.8632  C     
17   N        27.4887    4.1630   64.2381  N     
18   N        26.6011    3.2544   63.9741  N     
19   H        29.2233    5.7447   64.9411  H     
20   H        31.8660    9.0173   66.7576  H     
21   H        30.1808    7.3130   66.4797  H     
22   H        30.3245    7.8576   62.2935  H     
23   H        32.0432    9.5371   62.5835  H     
24   H        32.8038   10.1365   64.8111  H     
25   H        23.6426    5.7544   60.6059  H     
26   H        23.0245    3.4574   61.1007  H     
27   H        24.3717    2.1440   62.6554  H     
28   H        25.5859    6.7521   61.6471  H     
29   H        26.5825    2.3632   64.3628  H     
@<TRIPOS>BOND
     1    1    2 2
     2    1    3 am
     3    1   10 1
     4    3    4 1
     5    4    6 2
     6    4    7 1
     7    5    6 1
     8    5    9 2
     9    7    8 2
    10    8    9 1
    11   10   11 1
    12   10   17 2
    13   11   15 2
    14   11   16 1
    15   12   13 1
    16   12   16 2
    17   13   14 2
    18   14   15 1
    19   15   18 1
    20   17   18 1
    21    3   19 1
    22    5   20 1
    23    6   21 1
    24    7   22 1
    25    8   23 1
    26    9   24 1
    27   12   25 1
    28   13   26 1
    29   14   27 1
    30   16   28 1
    31   18   29 1
@<TRIPOS>PROPERTY_DATA
  Total_Score	| 5.2652
  Crash		| -0.4715
  Polar		| 1.3921
  FragIndex	| 1
  FragRMSD	| 0.536

