@<TRIPOS>MOLECULE
BindingDB_7173
 49 52 0 0 0
SMALL
NO_CHARGES


@<TRIPOS>ATOM
1    C        25.8523    5.4616   61.9141  C     
2    C        27.4060    7.7972   61.6327  C     
3    C        26.3523    7.5324   60.7551  C     
4    C        27.8939    9.0345   61.2333  C     
5    C        26.9253    5.7329   62.8000  C     
6    C        27.7227    6.8826   62.6609  C     
7    C        27.4509    5.0465   63.8934  C     
8    N        27.1644    9.4539   60.1789  N     
9    N        26.2639    8.5602   59.8988  N     
10   N        28.4936    5.7741   64.3327  N     
11   N        28.6797    6.8456   63.6241  N     
12   C        29.7402    7.6714   63.8948  C     
13   C        31.6250    9.0597   63.1410  C     
14   C        31.9999    9.3125   64.4777  C     
15   C        31.2665    8.7071   65.5189  C     
16   C        30.1632    7.8869   65.2262  C     
17   C        30.5051    8.2502   62.8523  C     
18   O        34.4488   10.2651   63.6954  O     
19   S        33.3370   10.3789   64.8249  S     
20   O        32.8105   11.8761   64.7006  O     
21   N        34.0566   10.1791   66.3390  N     
22   C        27.1323    3.8340   64.4714  C     
23   O        27.8240    3.4114   65.3831  O     
24   N        26.1504    3.0627   64.0570  N     
25   C        25.5672    6.3690   60.8685  C     
26   C        33.7660   11.0261   67.4451  C     
27   C        34.5866   10.6715   68.7121  C     
28   C        34.5265    9.1702   69.1269  C     
29   C        35.8612    8.4108   68.9434  C     
30   H        25.2799    4.6188   62.0245  H     
31   H        28.6578    9.5535   61.6693  H     
32   H        25.6050    8.6333   59.1890  H     
33   H        32.1664    9.4590   62.3698  H     
34   H        31.5317    8.8566   66.4956  H     
35   H        29.6583    7.4464   65.9986  H     
36   H        30.2619    8.0744   61.8749  H     
37   H        34.4141    9.2977   66.5368  H     
38   H        26.0141    2.1934   64.4770  H     
39   H        25.5699    3.3472   63.3264  H     
40   H        24.7962    6.1947   60.2166  H     
41   H        33.9778   12.0656   67.1696  H     
42   H        32.6987   10.9615   67.6850  H     
43   H        35.6244   10.9802   68.5563  H     
44   H        34.1968   11.2768   69.5326  H     
45   H        34.2514    9.1011   70.1841  H     
46   H        33.7516    8.6500   68.5558  H     
47   H        36.2131    8.4927   67.9139  H     
48   H        35.7210    7.3545   69.1824  H     
49   H        36.6265    8.8149   69.6106  H     
@<TRIPOS>BOND
     1    1    5 1
     2    1   25 2
     3    2    3 2
     4    2    4 1
     5    2    6 1
     6    3    9 1
     7    3   25 1
     8    4    8 2
     9    5    6 2
    10    5    7 1
    11    6   11 1
    12    7   10 2
    13    7   22 1
    14    8    9 1
    15   10   11 1
    16   11   12 1
    17   12   16 1
    18   12   17 2
    19   13   14 2
    20   13   17 1
    21   14   15 1
    22   14   19 1
    23   15   16 2
    24   18   19 2
    25   19   20 2
    26   19   21 1
    27   21   26 1
    28   22   23 2
    29   22   24 am
    30   26   27 1
    31   27   28 1
    32   28   29 1
    33    1   30 1
    34    4   31 1
    35    9   32 1
    36   13   33 1
    37   15   34 1
    38   16   35 1
    39   17   36 1
    40   21   37 1
    41   24   38 1
    42   24   39 1
    43   25   40 1
    44   26   41 1
    45   26   42 1
    46   27   43 1
    47   27   44 1
    48   28   45 1
    49   28   46 1
    50   29   47 1
    51   29   48 1
    52   29   49 1
@<TRIPOS>PROPERTY_DATA
  Total_Score	| 5.5630
  Crash		| -1.8815
  Polar		| 3.0282
  FragIndex	| 1
  FragRMSD	| 1.302

