@<TRIPOS>MOLECULE
BindingDB_7232
 52 55 0 0 0
SMALL
NO_CHARGES


@<TRIPOS>ATOM
1    C        25.8135    5.3371   61.4356  C     
2    C        27.6260    5.5706   63.5583  C     
3    C        26.7892    4.4688   63.4744  C     
4    C        28.3373    5.4127   64.7351  C     
5    C        26.7044    6.4384   61.5167  C     
6    C        27.6474    6.5604   62.5606  C     
7    C        26.8508    7.5775   60.7352  C     
8    N        27.9812    4.2379   65.2728  N     
9    N        27.0543    3.6817   64.5316  N     
10   N        27.8593    8.2859   61.2900  N     
11   N        28.3571    7.6970   62.3507  N     
12   C        25.8663    4.3365   62.4202  C     
13   C        29.4263    8.2810   63.0288  C     
14   C        30.6147   10.3745   63.6089  C     
15   C        31.7034    9.6436   64.1222  C     
16   C        31.6254    8.2305   64.1588  C     
17   C        30.4892    7.5607   63.6523  C     
18   C        29.5197    9.6961   63.0523  C     
19   C        26.1049    7.9910   59.6470  C     
20   O        25.2063    7.2769   59.2172  O     
21   O        33.6984    9.8352   66.0249  O     
22   S        33.1542   10.4706   64.6663  S     
23   O        34.2152   10.0428   63.5470  O     
24   N        33.3408   12.1497   64.7367  N     
25   C        32.3390   13.1137   64.4169  C     
26   C        32.2025   13.4394   62.8990  C     
27   C        33.3832   13.0177   61.9803  C     
28   C        33.1870   13.4681   60.5130  C     
29   N        26.3044    9.1934   59.1087  N     
30   C        25.4932    9.7791   58.0911  C     
31   H        25.1465    5.2510   60.6690  H     
32   H        29.0016    6.0892   65.0894  H     
33   H        26.6315    2.8313   64.7112  H     
34   H        25.2512    3.5267   62.3692  H     
35   H        30.6231   11.4026   63.6338  H     
36   H        32.4008    7.6802   64.5473  H     
37   H        30.4623    6.5269   63.7544  H     
38   H        28.7630   10.2616   62.6593  H     
39   H        34.2201   12.4855   64.9559  H     
40   H        31.3722   12.7832   64.7964  H     
41   H        32.5978   14.0354   64.9564  H     
42   H        31.2888   12.9725   62.5205  H     
43   H        32.0548   14.5252   62.7803  H     
44   H        34.3051   13.4645   62.3692  H     
45   H        33.4920   11.9320   61.9836  H     
46   H        32.3348   12.9534   60.0668  H     
47   H        34.0806   13.2296   59.9352  H     
48   H        33.0146   14.5449   60.4733  H     
49   H        27.0280    9.7396   59.4595  H     
50   H        25.4992    9.1614   57.1857  H     
51   H        25.8835   10.7666   57.8420  H     
52   H        24.4598    9.8921   58.4441  H     
@<TRIPOS>BOND
     1    1    5 1
     2    1   12 2
     3    2    3 2
     4    2    4 1
     5    2    6 1
     6    3    9 1
     7    3   12 1
     8    4    8 2
     9    5    6 2
    10    5    7 1
    11    6   11 1
    12    7   10 2
    13    7   19 1
    14    8    9 1
    15   10   11 1
    16   11   13 1
    17   13   17 1
    18   13   18 2
    19   14   15 2
    20   14   18 1
    21   15   16 1
    22   15   22 1
    23   16   17 2
    24   19   20 2
    25   19   29 am
    26   21   22 2
    27   22   23 2
    28   22   24 1
    29   24   25 1
    30   25   26 1
    31   26   27 1
    32   27   28 1
    33   29   30 1
    34    1   31 1
    35    4   32 1
    36    9   33 1
    37   12   34 1
    38   14   35 1
    39   16   36 1
    40   17   37 1
    41   18   38 1
    42   24   39 1
    43   25   40 1
    44   25   41 1
    45   26   42 1
    46   26   43 1
    47   27   44 1
    48   27   45 1
    49   28   46 1
    50   28   47 1
    51   28   48 1
    52   29   49 1
    53   30   50 1
    54   30   51 1
    55   30   52 1
@<TRIPOS>PROPERTY_DATA
  Total_Score	| 4.7034
  Crash		| -1.7382
  Polar		| 1.9630
  FragIndex	| 1
  FragRMSD	| 1.322

