@<TRIPOS>MOLECULE
BindingDB_7212
 25 27 0 0 0
SMALL
NO_CHARGES


@<TRIPOS>ATOM
1    C        25.1935    6.4926   61.4756  C     
2    C        24.8187    3.7382   61.9269  C     
3    C        24.0016    4.4214   61.0339  C     
4    C        24.3760    2.4246   61.8866  C     
5    C        26.0126    5.7960   62.3954  C     
6    C        25.8268    4.4293   62.6257  C     
7    C        27.0965    6.1637   63.1949  C     
8    N        23.3549    2.3538   61.0151  N     
9    N        23.1364    3.5339   60.5249  N     
10   N        27.4787    5.0584   63.8633  N     
11   N        26.7369    4.0435   63.5410  N     
12   C        27.7496    7.3708   63.3337  C     
13   O        28.8704    7.4060   63.8171  O     
14   N        27.2200    8.5211   62.9958  N     
15   C        24.1661    5.7978   60.7984  C     
16   C        26.9318    2.7426   64.0803  C     
17   H        25.3352    7.4853   61.2896  H     
18   H        24.7418    1.6392   62.4207  H     
19   H        22.4465    3.7456   59.8811  H     
20   H        27.7216    9.3416   63.1269  H     
21   H        26.3145    8.5650   62.6549  H     
22   H        23.5595    6.2847   60.1364  H     
23   H        25.9966    2.3734   64.5030  H     
24   H        27.6861    2.7518   64.8676  H     
25   H        27.2698    2.0679   63.2944  H     
@<TRIPOS>BOND
     1    1    5 1
     2    1   15 2
     3    2    3 2
     4    2    4 1
     5    2    6 1
     6    3    9 1
     7    3   15 1
     8    4    8 2
     9    5    6 2
    10    5    7 1
    11    6   11 1
    12    7   10 2
    13    7   12 1
    14    8    9 1
    15   10   11 1
    16   11   16 1
    17   12   13 2
    18   12   14 am
    19    1   17 1
    20    4   18 1
    21    9   19 1
    22   14   20 1
    23   14   21 1
    24   15   22 1
    25   16   23 1
    26   16   24 1
    27   16   25 1
@<TRIPOS>PROPERTY_DATA
  Total_Score	| 2.2637
  Crash		| -1.8603
  Polar		| 0.5555
  FragIndex	| 1
  FragRMSD	| 1.185

