@<TRIPOS>MOLECULE
BindingDB_7177
 38 41 0 0 0
SMALL
NO_CHARGES


@<TRIPOS>ATOM
1    C        25.7743    5.1266   61.8008  C     
2    C        27.6800    5.3867   63.8528  C     
3    C        26.8411    4.2718   63.8005  C     
4    C        28.4230    5.2140   65.0084  C     
5    C        26.6698    6.2292   61.8315  C     
6    C        27.6483    6.3627   62.8374  C     
7    C        26.8031    7.3437   61.0040  C     
8    N        28.0937    4.0282   65.5445  N     
9    N        27.1523    3.4665   64.8315  N     
10   N        27.8290    8.0434   61.5150  N     
11   N        28.3640    7.4942   62.5782  N     
12   C        29.4732    8.0875   63.1628  C     
13   C        30.8201   10.1384   63.4364  C     
14   C        31.8138    9.4406   64.1470  C     
15   C        31.6468    8.0461   64.3487  C     
16   C        30.4933    7.3853   63.8636  C     
17   C        29.6770    9.4794   62.9674  C     
18   O        33.6972    9.6843   66.1217  O     
19   S        33.2439   10.2812   64.7147  S     
20   O        34.4344   10.0503   63.6734  O     
21   C        26.1082    7.7652   59.8845  C     
22   O        26.4045    8.8227   59.3413  O     
23   N        25.1059    7.1076   59.3335  N     
24   C        25.8768    4.1224   62.7844  C     
25   C        32.9946   12.0464   64.9826  C     
26   H        25.0646    5.0225   61.0686  H     
27   H        29.1287    5.8638   65.3454  H     
28   H        26.7556    2.5947   65.0043  H     
29   H        30.9078   11.1445   63.2514  H     
30   H        32.3692    7.5110   64.8386  H     
31   H        30.4338    6.3793   64.0322  H     
32   H        28.9872   10.0400   62.4682  H     
33   H        24.6650    7.4747   58.5490  H     
34   H        24.8076    6.2585   59.6952  H     
35   H        25.2598    3.3028   62.7747  H     
36   H        32.9092   12.5590   64.0200  H     
37   H        33.8516   12.4519   65.5292  H     
38   H        32.0791   12.1999   65.5673  H     
@<TRIPOS>BOND
     1    1    5 1
     2    1   24 2
     3    2    3 2
     4    2    4 1
     5    2    6 1
     6    3    9 1
     7    3   24 1
     8    4    8 2
     9    5    6 2
    10    5    7 1
    11    6   11 1
    12    7   10 2
    13    7   21 1
    14    8    9 1
    15   10   11 1
    16   11   12 1
    17   12   16 1
    18   12   17 2
    19   13   14 2
    20   13   17 1
    21   14   15 1
    22   14   19 1
    23   15   16 2
    24   18   19 2
    25   19   20 2
    26   19   25 1
    27   21   22 2
    28   21   23 am
    29    1   26 1
    30    4   27 1
    31    9   28 1
    32   13   29 1
    33   15   30 1
    34   16   31 1
    35   17   32 1
    36   23   33 1
    37   23   34 1
    38   24   35 1
    39   25   36 1
    40   25   37 1
    41   25   38 1
@<TRIPOS>PROPERTY_DATA
  Total_Score	| 4.2276
  Crash		| -1.2043
  Polar		| 1.7961
  FragIndex	| 1
  FragRMSD	| 1.269

