@<TRIPOS>MOLECULE
BindingDB_7171
 43 46 0 0 0
SMALL
NO_CHARGES


@<TRIPOS>ATOM
1    C        25.6174    5.4158   62.0213  C     
2    C        27.2756    7.5323   61.2348  C     
3    C        26.1685    7.1846   60.4636  C     
4    C        27.9143    8.5265   60.5102  C     
5    C        26.7525    5.7889   62.7917  C     
6    C        27.5757    6.8797   62.4521  C     
7    C        27.3633    5.2008   63.8881  C     
8    N        27.1767    8.7871   59.4015  N     
9    N        26.1497    7.9853   59.3820  N     
10   N        28.4141    5.9821   64.1887  N     
11   N        28.5635    6.9900   63.3783  N     
12   C        29.6295    7.8683   63.5678  C     
13   C        30.7394   10.0799   63.4308  C     
14   C        31.8796    9.5978   64.1141  C     
15   C        31.8763    8.2557   64.5524  C     
16   C        30.7885    7.4120   64.2590  C     
17   C        29.6261    9.2434   63.1705  C     
18   O        34.1556   10.2477   65.5781  O     
19   S        33.3010   10.5893   64.2803  S     
20   O        34.3163   10.1289   63.1452  O     
21   N        33.0046   12.2519   64.2055  N     
22   C        27.1926    3.9735   64.4950  C     
23   O        27.9821    3.6322   65.3630  O     
24   N        26.3238    3.0609   64.1095  N     
25   C        33.2061   12.9730   62.9828  C     
26   C        25.3155    6.1289   60.8376  C     
27   C        32.8434   12.9522   65.4448  C     
28   H        25.0138    4.6298   62.2989  H     
29   H        28.7950    8.9479   60.8206  H     
30   H        25.4979    7.9384   58.6727  H     
31   H        30.7085   11.0496   63.1035  H     
32   H        32.6903    7.8699   65.0380  H     
33   H        30.8596    6.4337   64.5504  H     
34   H        28.8519    9.6609   62.6296  H     
35   H        26.3631    2.1785   64.5081  H     
36   H        25.6604    3.2354   63.4250  H     
37   H        34.2422   13.3091   62.9217  H     
38   H        32.5500   13.8459   62.9371  H     
39   H        32.9839   12.3575   62.1062  H     
40   H        24.5081    5.8682   60.2598  H     
41   H        32.3086   12.3422   66.1813  H     
42   H        32.2703   13.8710   65.3085  H     
43   H        33.8254   13.2057   65.8495  H     
@<TRIPOS>BOND
     1    1    5 1
     2    1   26 2
     3    2    3 2
     4    2    4 1
     5    2    6 1
     6    3    9 1
     7    3   26 1
     8    4    8 2
     9    5    6 2
    10    5    7 1
    11    6   11 1
    12    7   10 2
    13    7   22 1
    14    8    9 1
    15   10   11 1
    16   11   12 1
    17   12   16 1
    18   12   17 2
    19   13   14 2
    20   13   17 1
    21   14   15 1
    22   14   19 1
    23   15   16 2
    24   18   19 2
    25   19   20 2
    26   19   21 1
    27   21   25 1
    28   21   27 1
    29   22   23 2
    30   22   24 am
    31    1   28 1
    32    4   29 1
    33    9   30 1
    34   13   31 1
    35   15   32 1
    36   16   33 1
    37   17   34 1
    38   24   35 1
    39   24   36 1
    40   25   37 1
    41   25   38 1
    42   25   39 1
    43   26   40 1
    44   27   41 1
    45   27   42 1
    46   27   43 1
@<TRIPOS>PROPERTY_DATA
  Total_Score	| 5.0510
  Crash		| -1.7203
  Polar		| 2.9400
  FragIndex	| 1
  FragRMSD	| 1.030

