@<TRIPOS>MOLECULE
BindingDB_50042424
 65 65 0 0 0
SMALL
NO_CHARGES


@<TRIPOS>ATOM
1    C        15.9826   13.9044   -3.0403  C     
2    C        15.2526   16.3743   -4.7295  C     
3    N        16.4284   15.8053   -4.4744  N     
4    C        14.3193   18.2150   -7.2507  C     
5    C        14.6429   13.5768   -3.0471  C     
6    C        15.1298   17.8217   -4.9566  C     
7    C        16.7234   14.4124   -4.2048  C     
8    N        15.3154   18.1110   -6.3439  N     
9    O        16.5140   14.0163   -1.9355  O     
10   O        14.2362   15.6886   -4.8118  O     
11   O        14.6379   18.7627   -8.4439  O     
12   O        14.2071   12.4696   -3.6984  O     
13   O        13.0355   17.8579   -6.9723  O     
14   C        16.1037   18.7016   -4.1095  C     
15   O        13.7579   14.4254   -2.4521  O     
16   C        11.8802   17.8687   -7.8299  C     
17   C        10.7827   18.6570   -7.2137  C     
18   C        16.6432   13.5736   -5.5220  C     
19   C        16.2258   20.2204   -4.5126  C     
20   C        12.3311   14.3308   -2.4119  C     
21   C        10.4660   18.4881   -5.8460  C     
22   C         9.9827   19.5410   -7.9871  C     
23   C        17.6392   14.0036   -6.6391  C     
24   C        19.0243   13.2978   -6.5612  C     
25   C        15.0104   21.0951   -4.0867  C     
26   C        17.5337   20.8354   -3.9367  C     
27   C        11.8568   14.0395   -0.9773  C     
28   C        19.8822   13.5250   -7.8236  C     
29   C         8.9060   20.2332   -7.4059  C     
30   C         9.3900   19.1857   -5.2593  C     
31   C         8.6131   20.0597   -6.0416  C     
32   H        17.2007   16.3961   -4.4586  H     
33   H        14.1276   18.1391   -4.6559  H     
34   H        17.7691   14.3857   -3.9027  H     
35   H        16.1976   18.4007   -6.6359  H     
36   H        15.7879   18.6515   -3.0591  H     
37   H        17.1105   18.2655   -4.1767  H     
38   H        12.1368   18.2544   -8.8186  H     
39   H        11.5379   16.8403   -7.9546  H     
40   H        16.8303   12.5194   -5.3007  H     
41   H        15.6259   13.6555   -5.9193  H     
42   H        16.3032   20.2863   -5.6049  H     
43   H        11.9241   15.2920   -2.7281  H     
44   H        11.9530   13.5565   -3.0822  H     
45   H        11.0184   17.8573   -5.2606  H     
46   H        10.1917   19.6867   -8.9773  H     
47   H        17.1897   13.7435   -7.5996  H     
48   H        17.7839   15.0912   -6.6275  H     
49   H        19.5869   13.6601   -5.6937  H     
50   H        18.8772   12.2243   -6.4416  H     
51   H        14.0921   20.7571   -4.5717  H     
52   H        15.1742   22.1354   -4.3816  H     
53   H        14.8673   21.0634   -3.0039  H     
54   H        17.5029   20.8414   -2.8425  H     
55   H        17.6656   21.8643   -4.2896  H     
56   H        18.4029   20.2578   -4.2630  H     
57   H        12.2181   13.0623   -0.6478  H     
58   H        10.7649   14.0428   -0.9363  H     
59   H        12.2317   14.8066   -0.2958  H     
60   H        19.3550   13.1808   -8.7105  H     
61   H        20.8191   12.9740   -7.7479  H     
62   H        20.1134   14.5850   -7.9365  H     
63   H         8.3399   20.8671   -7.9747  H     
64   H         9.1818   19.0689   -4.2658  H     
65   H         7.8255   20.5638   -5.6193  H     
@<TRIPOS>BOND
     1    1    5 1
     2    1    7 1
     3    1    9 2
     4    2    3 am
     5    2    6 1
     6    2   10 2
     7    3    7 1
     8    4    8 am
     9    4   11 2
    10    4   13 1
    11    5   12 2
    12    5   15 1
    13    6    8 1
    14    6   14 1
    15    7   18 1
    16   13   16 1
    17   14   19 1
    18   15   20 1
    19   16   17 1
    20   17   21 2
    21   17   22 1
    22   18   23 1
    23   19   25 1
    24   19   26 1
    25   20   27 1
    26   21   30 1
    27   22   29 2
    28   23   24 1
    29   24   28 1
    30   29   31 1
    31   30   31 2
    32    3   32 1
    33    6   33 1
    34    7   34 1
    35    8   35 1
    36   14   36 1
    37   14   37 1
    38   16   38 1
    39   16   39 1
    40   18   40 1
    41   18   41 1
    42   19   42 1
    43   20   43 1
    44   20   44 1
    45   21   45 1
    46   22   46 1
    47   23   47 1
    48   23   48 1
    49   24   49 1
    50   24   50 1
    51   25   51 1
    52   25   52 1
    53   25   53 1
    54   26   54 1
    55   26   55 1
    56   26   56 1
    57   27   57 1
    58   27   58 1
    59   27   59 1
    60   28   60 1
    61   28   61 1
    62   28   62 1
    63   29   63 1
    64   30   64 1
    65   31   65 1
@<TRIPOS>PROPERTY_DATA
  Total_Score	| 6.6098
  Crash		| -2.0553
  Polar		| 1.6232
  FragIndex	| 1
  FragRMSD	| 1.077

