@<TRIPOS>MOLECULE
BindingDB_50042402
 66 67 0 0 0
SMALL
NO_CHARGES


@<TRIPOS>ATOM
1    C        15.3412   13.7937   -3.1679  C     
2    C        15.4597   16.3958   -4.9282  C     
3    N        16.3188   15.4351   -4.5922  N     
4    C        14.1718   13.1226   -3.0992  C     
5    C        14.4970   18.1589   -7.1519  C     
6    C        15.9401   17.7489   -5.1562  C     
7    C        16.0315   14.0389   -4.4406  C     
8    N        15.6811   18.1353   -6.5108  N     
9    O        13.0363   13.8033   -2.7809  O     
10   O        15.8672   14.1594   -2.1108  O     
11   O        14.2812   16.1447   -5.1216  O     
12   O        14.4838   18.7004   -8.3896  O     
13   O        14.1939   11.7468   -3.1047  O     
14   O        13.3472   17.7631   -6.5441  O     
15   C        15.4051   18.8356   -4.1594  C     
16   C        11.7293   13.2686   -2.5346  C     
17   C        12.0226   17.7791   -7.1135  C     
18   C        11.2924   13.5522   -1.1474  C     
19   C        11.0328   17.8325   -6.0068  C     
20   C        17.2992   13.1378   -4.5459  C     
21   C        15.8710   20.2949   -4.4783  C     
22   C        10.8589   16.6996   -5.1746  C     
23   C        10.3073   19.0143   -5.7176  C     
24   C        12.2292   13.5330   -0.0883  C     
25   C         9.9234   13.7479   -0.8394  C     
26   C        14.8468   21.3389   -3.9593  C     
27   C        17.2827   20.6385   -3.9144  C     
28   C        18.5052   13.7841   -5.2878  C     
29   C         9.4704   19.0797   -4.5901  C     
30   C        11.8132   13.7116    1.2403  C     
31   C         9.5078   13.9119    0.4937  C     
32   C        10.0143   16.7624   -4.0511  C     
33   C         9.3401   17.9617   -3.7450  C     
34   C        10.4542   13.8844    1.5340  C     
35   H        17.2464   15.6939   -4.4913  H     
36   H        17.0277   17.7414   -5.0480  H     
37   H        15.3813   13.7502   -5.2757  H     
38   H        16.4551   18.4789   -7.0104  H     
39   H        14.3111   18.8083   -4.1652  H     
40   H        15.7214   18.5770   -3.1466  H     
41   H        11.0520   13.7110   -3.2690  H     
42   H        11.7131   12.1817   -2.6787  H     
43   H        11.9159   18.6570   -7.7651  H     
44   H        11.8660   16.8755   -7.7220  H     
45   H        17.6571   12.8234   -3.5527  H     
46   H        17.0342   12.2170   -5.0902  H     
47   H        15.9179   20.4362   -5.5624  H     
48   H        11.3506   15.8250   -5.3815  H     
49   H        10.3963   19.8354   -6.3123  H     
50   H        13.2245   13.3811   -0.2842  H     
51   H         9.2261   13.7453   -1.5812  H     
52   H        13.8798   21.1612   -4.4331  H     
53   H        15.1645   22.3572   -4.2036  H     
54   H        14.7267   21.2586   -2.8737  H     
55   H        17.2901   20.5391   -2.8241  H     
56   H        17.5688   21.6637   -4.1654  H     
57   H        18.0395   19.9700   -4.3299  H     
58   H        18.1733   14.2809   -6.1994  H     
59   H        19.2295   13.0080   -5.5574  H     
60   H        18.9986   14.5100   -4.6393  H     
61   H         8.9697   19.9370   -4.3708  H     
62   H        12.5056   13.7016    1.9995  H     
63   H         8.5197   14.0418    0.7093  H     
64   H         9.9055   15.9399   -3.4514  H     
65   H         8.7537   18.0118   -2.9024  H     
66   H        10.1483   13.9928    2.5024  H     
@<TRIPOS>BOND
     1    1    4 1
     2    1    7 1
     3    1   10 2
     4    2    3 am
     5    2    6 1
     6    2   11 2
     7    3    7 1
     8    4    9 1
     9    4   13 2
    10    5    8 am
    11    5   12 2
    12    5   14 1
    13    6    8 1
    14    6   15 1
    15    7   20 1
    16    9   16 1
    17   14   17 1
    18   15   21 1
    19   16   18 1
    20   17   19 1
    21   18   24 2
    22   18   25 1
    23   19   22 2
    24   19   23 1
    25   20   28 1
    26   21   26 1
    27   21   27 1
    28   22   32 1
    29   23   29 2
    30   24   30 1
    31   25   31 2
    32   29   33 1
    33   30   34 2
    34   31   34 1
    35   32   33 2
    36    3   35 1
    37    6   36 1
    38    7   37 1
    39    8   38 1
    40   15   39 1
    41   15   40 1
    42   16   41 1
    43   16   42 1
    44   17   43 1
    45   17   44 1
    46   20   45 1
    47   20   46 1
    48   21   47 1
    49   22   48 1
    50   23   49 1
    51   24   50 1
    52   25   51 1
    53   26   52 1
    54   26   53 1
    55   26   54 1
    56   27   55 1
    57   27   56 1
    58   27   57 1
    59   28   58 1
    60   28   59 1
    61   28   60 1
    62   29   61 1
    63   30   62 1
    64   31   63 1
    65   32   64 1
    66   33   65 1
    67   34   66 1
@<TRIPOS>PROPERTY_DATA
  Total_Score	| 4.5181
  Crash		| -2.7235
  Polar		| 1.6467
  FragIndex	| 1
  FragRMSD	| 0.968

