@<TRIPOS>MOLECULE
BindingDB_16508
 51 52 0 0 0
SMALL
NO_CHARGES


@<TRIPOS>ATOM
1    C         7.6976   18.8783   -8.3277  C     
2    C         7.3313   20.3007   -7.8537  C     
3    O         8.9607   18.4457   -7.8134  O     
4    C        10.1935   18.8469   -8.2184  C     
5    O        10.3671   19.7403   -9.2223  O     
6    C        11.3686   18.3346   -7.5107  C     
7    C        12.7066   18.2414   -8.2288  C     
8    C        13.9456   18.2169   -7.4748  C     
9    O        14.9540   18.6073   -8.0395  O     
10   N        13.9911   17.7419   -6.2389  N     
11   C        15.1554   17.5618   -5.4074  C     
12   C        15.1564   16.1530   -4.9812  C     
13   O        14.0877   15.7323   -4.5470  O     
14   C        15.1579   18.5954   -4.2201  C     
15   C        16.3919   18.3960   -3.2831  C     
16   C        15.0794   20.0667   -4.7681  C     
17   C        15.5073   21.2070   -3.8067  C     
18   O        11.8430   17.1047   -8.0945  O     
19   C        18.4504   14.4886   -5.1466  C     
20   C        17.5401   15.6952   -5.4227  C     
21   C        16.1485   13.9341   -4.6059  C     
22   C        17.4756   13.3085   -5.1023  C     
23   N        16.2181   15.3237   -4.9944  N     
24   C        15.9420   13.7764   -3.1463  C     
25   O        14.9400   12.9981   -2.6766  O     
26   O        16.6898   14.4708   -2.2626  O     
27   H         6.9389   18.1862   -7.9595  H     
28   H         7.6962   18.8358   -9.4178  H     
29   H         7.3496   20.3377   -6.7633  H     
30   H         6.3276   20.5602   -8.1963  H     
31   H         8.0427   21.0334   -8.2402  H     
32   H        11.3448   18.2772   -6.4174  H     
33   H        12.7151   18.6702   -9.2301  H     
34   H        13.1444   17.4882   -5.8429  H     
35   H        16.0522   17.7649   -5.9925  H     
36   H        14.2638   18.4211   -3.6081  H     
37   H        16.4472   17.3706   -2.9098  H     
38   H        16.3238   19.0448   -2.4065  H     
39   H        17.3161   18.6195   -3.8215  H     
40   H        15.6948   20.1555   -5.6708  H     
41   H        14.0445   20.2732   -5.0604  H     
42   H        14.9738   21.1343   -2.8555  H     
43   H        15.2868   22.1794   -4.2588  H     
44   H        16.5829   21.1576   -3.6143  H     
45   H        19.2095   14.3631   -5.9231  H     
46   H        18.9495   14.6012   -4.1800  H     
47   H        17.9116   16.5592   -4.8669  H     
48   H        17.5311   15.9279   -6.4912  H     
49   H        15.3282   13.4398   -5.1340  H     
50   H        17.3477   12.9153   -6.1166  H     
51   H        17.8504   12.5021   -4.4639  H     
@<TRIPOS>BOND
     1    1    2 1
     2    1    3 1
     3    3    4 1
     4    4    5 2
     5    6    4 1
     6    6    7 1
     7    6   18 1
     8    7    8 1
     9    7   18 1
    10    8    9 2
    11    8   10 am
    12   10   11 1
    13   11   12 1
    14   11   14 1
    15   12   13 2
    16   12   23 am
    17   14   15 1
    18   14   16 1
    19   16   17 1
    20   19   20 1
    21   19   22 1
    22   20   23 1
    23   21   22 1
    24   21   23 1
    25   21   24 1
    26   24   25 2
    27   24   26 1
    28    1   27 1
    29    1   28 1
    30    2   29 1
    31    2   30 1
    32    2   31 1
    33    6   32 1
    34    7   33 1
    35   10   34 1
    36   11   35 1
    37   14   36 1
    38   15   37 1
    39   15   38 1
    40   15   39 1
    41   16   40 1
    42   16   41 1
    43   17   42 1
    44   17   43 1
    45   17   44 1
    46   19   45 1
    47   19   46 1
    48   20   47 1
    49   20   48 1
    50   21   49 1
    51   22   50 1
    52   22   51 1
@<TRIPOS>PROPERTY_DATA
  Total_Score	| 5.1646
  Crash		| -1.3700
  Polar		| 2.7953
  FragIndex	| 1
  FragRMSD	| 0.631

