@<TRIPOS>MOLECULE
BindingDB_50307342
 49 52 0 0 0
SMALL
NO_CHARGES


@<TRIPOS>ATOM
1    O        18.2709  -17.8738   15.9181  O     
2    C        16.9577  -18.2758   16.3657  C     
3    C        16.2267  -17.2946   17.2145  C     
4    C        14.8636  -17.0171   16.9519  C     
5    C        14.7474  -15.5503   18.8918  C     
6    C        16.0995  -15.8220   19.1853  C     
7    C        14.1273  -16.1509   17.7789  C     
8    C        16.8293  -16.6937   18.3480  C     
9    C        21.9563  -15.7703   18.2656  C     
10   C        21.3398  -14.5593   18.6846  C     
11   C        22.1106  -13.4127   18.9608  C     
12   C        23.3656  -15.8041   18.1211  C     
13   C        24.1289  -14.6557   18.4093  C     
14   C        23.5076  -13.4807   18.8233  C     
15   S        24.6319  -12.2049   19.1167  S     
16   C        25.9051  -13.2947   18.7188  C     
17   C        25.4766  -14.5139   18.3614  C     
18   C        27.2426  -12.9133   18.7989  C     
19   N        27.6155  -11.6292   18.9557  N     
20   N        28.2613  -13.7899   18.7343  N     
21   C        21.1778  -16.9262   17.9945  C     
22   C        21.4523  -18.1523   18.6432  C     
23   C        19.6433  -19.2331   17.4219  C     
24   C        19.3099  -18.0074   16.8077  C     
25   C        20.6968  -19.2994   18.3528  C     
26   C        20.0961  -16.8701   17.0804  C     
27   O        16.7188  -15.1513   20.2102  O     
28   C        16.9123  -15.9138   21.4144  C     
29   H        16.3999  -18.4658   15.4445  H     
30   H        16.9937  -19.2280   16.9014  H     
31   H        14.3848  -17.4522   16.1570  H     
32   H        14.2057  -14.9225   19.4943  H     
33   H        13.1428  -15.9534   17.5702  H     
34   H        17.8057  -16.8805   18.5736  H     
35   H        20.3273  -14.5137   18.8104  H     
36   H        21.6673  -12.5454   19.2701  H     
37   H        23.8374  -16.6559   17.8009  H     
38   H        26.0747  -15.2589   18.0899  H     
39   H        28.5540  -11.3997   19.0267  H     
40   H        26.9513  -10.9253   19.0023  H     
41   H        29.1703  -13.4626   18.8247  H     
42   H        22.2162  -18.2232   19.3227  H     
43   H        19.1098  -20.0811   17.2145  H     
44   H        20.9152  -20.1846   18.8166  H     
45   H        19.8743  -15.9939   16.5985  H     
46   H        15.9546  -16.1793   21.8655  H     
47   H        17.4617  -15.2904   22.1192  H     
48   H        17.4986  -16.8191   21.2400  H     
49   H        28.0995  -14.7419   18.6333  H     
@<TRIPOS>BOND
     1    1    2 1
     2    1   24 1
     3    2    3 1
     4    3    4 2
     5    3    8 1
     6    4    7 1
     7    5    6 1
     8    5    7 2
     9    6    8 2
    10    6   27 1
    11    9   10 2
    12    9   12 1
    13    9   21 1
    14   10   11 1
    15   11   14 2
    16   12   13 2
    17   13   14 1
    18   13   17 1
    19   14   15 1
    20   15   16 1
    21   16   17 2
    22   16   18 1
    23   18   19 1
    24   18   20 2
    25   21   22 2
    26   21   26 1
    27   22   25 1
    28   23   24 1
    29   23   25 2
    30   24   26 2
    31   27   28 1
    32    2   29 1
    33    2   30 1
    34    4   31 1
    35    5   32 1
    36    7   33 1
    37    8   34 1
    38   10   35 1
    39   11   36 1
    40   12   37 1
    41   17   38 1
    42   19   39 1
    43   19   40 1
    44   20   41 1
    45   22   42 1
    46   23   43 1
    47   25   44 1
    48   26   45 1
    49   28   46 1
    50   28   47 1
    51   28   48 1
    52   20   49 1
@<TRIPOS>PROPERTY_DATA
  Total_Score	| 8.4498
  Crash		| -1.2408
  Polar		| 3.8399
  FragIndex	| 1
  FragRMSD	| 0.750

