@<TRIPOS>MOLECULE
BindingDB_50307337
 44 46 0 0 0
SMALL
NO_CHARGES


@<TRIPOS>ATOM
1    O        18.3376  -17.9192   15.8557  O     
2    C        16.9890  -17.8502   16.3623  C     
3    C        16.0715  -18.1401   15.2655  C     
4    O        15.3246  -17.1377   14.6946  O     
5    C        21.9587  -15.7894   18.3515  C     
6    C        21.3569  -14.5768   18.7601  C     
7    C        22.1451  -13.4374   19.0372  C     
8    C        23.3683  -15.8389   18.2250  C     
9    C        24.1611  -14.6982   18.4735  C     
10   C        23.5445  -13.5134   18.8717  C     
11   S        24.6836  -12.2377   19.1264  S     
12   C        25.9669  -13.3251   18.7415  C     
13   C        25.5290  -14.5519   18.4121  C     
14   C        27.3129  -12.9324   18.8280  C     
15   N        27.7035  -11.6516   18.9467  N     
16   N        28.3701  -13.7608   18.8149  N     
17   C        21.1487  -16.9304   18.0718  C     
18   C        21.4074  -18.1640   18.7123  C     
19   C        19.6164  -19.2262   17.4416  C     
20   C        19.2923  -17.9885   16.8331  C     
21   C        20.6534  -19.3117   18.3947  C     
22   C        20.0820  -16.8600   17.1371  C     
23   O        15.9157  -19.4205   14.7640  O     
24   C        14.3213  -17.2787   13.6785  C     
25   C        14.8534  -17.4435   12.2423  C     
26   H        16.7775  -18.5630   17.1688  H     
27   H        16.7848  -16.8503   16.7375  H     
28   H        20.3445  -14.5235   18.8868  H     
29   H        21.6933  -12.5810   19.3500  H     
30   H        23.8217  -16.7085   17.9386  H     
31   H        26.1284  -15.3025   18.1514  H     
32   H        28.6521  -11.4624   19.0679  H     
33   H        27.0791  -10.9162   18.9289  H     
34   H        29.2540  -13.3604   18.9221  H     
35   H        22.1545  -18.2447   19.3998  H     
36   H        19.1056  -20.0717   17.1856  H     
37   H        20.8780  -20.2069   18.8335  H     
38   H        19.8834  -15.9838   16.6413  H     
39   H        13.7008  -18.1407   13.9384  H     
40   H        13.7014  -16.3824   13.7169  H     
41   H        15.4700  -16.5736   11.9260  H     
42   H        13.9989  -17.5860   11.5642  H     
43   H        15.4802  -18.3505   12.1653  H     
44   H        28.2821  -14.7195   18.7482  H     
@<TRIPOS>BOND
     1    1    2 1
     2    1   20 1
     3    2    3 1
     4    3    4 1
     5    3   23 2
     6    4   24 1
     7    5    6 2
     8    5    8 1
     9    5   17 1
    10    6    7 1
    11    7   10 2
    12    8    9 2
    13    9   10 1
    14    9   13 1
    15   10   11 1
    16   11   12 1
    17   12   13 2
    18   12   14 1
    19   14   15 1
    20   14   16 2
    21   17   18 2
    22   17   22 1
    23   18   21 1
    24   19   20 1
    25   19   21 2
    26   20   22 2
    27   24   25 1
    28    2   26 1
    29    2   27 1
    30    6   28 1
    31    7   29 1
    32    8   30 1
    33   13   31 1
    34   15   32 1
    35   15   33 1
    36   16   34 1
    37   18   35 1
    38   19   36 1
    39   21   37 1
    40   22   38 1
    41   24   39 1
    42   24   40 1
    43   25   41 1
    44   25   42 1
    45   25   43 1
    46   16   44 1
@<TRIPOS>PROPERTY_DATA
  Total_Score	| 8.0225
  Crash		| -0.9261
  Polar		| 4.0997
  FragIndex	| 1
  FragRMSD	| 0.724

