@<TRIPOS>MOLECULE
BindingDB_50307350
 45 48 0 0 0
SMALL
NO_CHARGES


@<TRIPOS>ATOM
1    O        18.3050  -17.7353   15.9280  O     
2    C        16.9228  -18.0649   16.1942  C     
3    C        16.1329  -17.1803   17.1165  C     
4    C        16.7755  -16.3888   18.1096  C     
5    C        14.6450  -15.4546   18.8245  C     
6    C        13.9897  -16.2333   17.8604  C     
7    C        16.0392  -15.5433   18.9617  C     
8    C        14.7155  -17.1019   17.0178  C     
9    C        22.0279  -15.8393   18.3206  C     
10   C        21.4071  -14.6340   18.7291  C     
11   C        22.1545  -13.4738   18.9774  C     
12   C        23.4434  -15.8664   18.1870  C     
13   C        24.1932  -14.6933   18.4395  C     
14   C        23.5476  -13.5186   18.8229  C     
15   S        24.6481  -12.2136   19.0954  S     
16   C        25.9440  -13.2790   18.7170  C     
17   C        25.5410  -14.5124   18.3810  C     
18   C        27.2764  -12.8559   18.8045  C     
19   N        28.3226  -13.6978   18.7590  N     
20   N        27.6113  -11.5558   18.9643  N     
21   C        21.2276  -16.9802   18.0307  C     
22   C        21.4383  -18.2218   18.6743  C     
23   C        19.4532  -19.1529   17.5703  C     
24   C        19.2541  -17.9310   16.8943  C     
25   C        20.5640  -19.3050   18.4401  C     
26   C        20.1468  -16.8694   17.1174  C     
27   Cl       13.8187  -18.0124   15.8895  Cl    
28   H        16.4410  -18.0227   15.2035  H     
29   H        16.8902  -19.1160   16.5481  H     
30   H        17.7927  -16.4186   18.2232  H     
31   H        14.1175  -14.8376   19.4341  H     
32   H        12.9747  -16.1637   17.7847  H     
33   H        16.5346  -14.9926   19.6634  H     
34   H        20.3896  -14.5927   18.8535  H     
35   H        21.6899  -12.6142   19.2789  H     
36   H        23.9290  -16.7201   17.8994  H     
37   H        26.1653  -15.2469   18.1279  H     
38   H        29.2221  -13.3412   18.8722  H     
39   H        28.1919  -14.6574   18.6622  H     
40   H        28.5443  -11.3016   19.0566  H     
41   H        22.2154  -18.3492   19.3335  H     
42   H        18.7952  -19.9225   17.4395  H     
43   H        20.7292  -20.2092   18.9004  H     
44   H        20.0082  -15.9960   16.6082  H     
45   H        26.9262  -10.8699   19.0090  H     
@<TRIPOS>BOND
     1    1    2 1
     2    1   24 1
     3    2    3 1
     4    3    4 2
     5    3    8 1
     6    4    7 1
     7    5    6 1
     8    5    7 2
     9    6    8 2
    10    8   27 1
    11    9   10 2
    12    9   12 1
    13    9   21 1
    14   10   11 1
    15   11   14 2
    16   12   13 2
    17   13   14 1
    18   13   17 1
    19   14   15 1
    20   15   16 1
    21   16   17 2
    22   16   18 1
    23   18   19 1
    24   18   20 2
    25   21   22 2
    26   21   26 1
    27   22   25 1
    28   23   24 1
    29   23   25 2
    30   24   26 2
    31    2   28 1
    32    2   29 1
    33    4   30 1
    34    5   31 1
    35    6   32 1
    36    7   33 1
    37   10   34 1
    38   11   35 1
    39   12   36 1
    40   17   37 1
    41   19   38 1
    42   19   39 1
    43   20   40 1
    44   22   41 1
    45   23   42 1
    46   25   43 1
    47   26   44 1
    48   20   45 1
@<TRIPOS>PROPERTY_DATA
  Total_Score	| 7.6599
  Crash		| -1.3456
  Polar		| 4.0784
  FragIndex	| 1
  FragRMSD	| 0.161

