@<TRIPOS>MOLECULE
BindingDB_50307341
 45 48 0 0 0
SMALL
NO_CHARGES


@<TRIPOS>ATOM
1    O        18.4200  -17.8794   15.7100  O     
2    C        17.0615  -18.0738   16.1517  C     
3    C        16.2184  -18.3603   14.9646  C     
4    C        16.1989  -19.6735   14.4317  C     
5    C        14.6924  -18.9676   12.6493  C     
6    C        14.6842  -17.6605   13.1821  C     
7    C        15.4518  -19.9727   13.2771  C     
8    C        15.4434  -17.3598   14.3312  C     
9    C        21.9423  -15.7880   18.3504  C     
10   C        21.3416  -14.5655   18.7481  C     
11   C        22.1247  -13.4281   19.0275  C     
12   C        23.3566  -15.8495   18.2439  C     
13   C        24.1327  -14.7045   18.5171  C     
14   C        23.5199  -13.5151   18.9002  C     
15   S        24.6519  -12.2407   19.1705  S     
16   C        25.9215  -13.3332   18.7753  C     
17   C        25.4865  -14.5628   18.4584  C     
18   C        27.2597  -12.9390   18.8147  C     
19   N        28.2860  -13.8097   18.7770  N     
20   N        27.6216  -11.6443   18.9046  N     
21   C        21.1361  -16.9198   18.0406  C     
22   C        21.3194  -18.1537   18.7094  C     
23   C        19.5632  -19.1822   17.3705  C     
24   C        19.3519  -17.9587   16.7080  C     
25   C        20.5365  -19.2758   18.3796  C     
26   C        20.1397  -16.8387   17.0378  C     
27   Cl       13.7971  -19.3261   11.2591  Cl    
28   H        16.9758  -18.9241   16.8378  H     
29   H        16.7291  -17.1739   16.6763  H     
30   H        16.7433  -20.4217   14.8715  H     
31   H        14.1354  -16.9228   12.7326  H     
32   H        15.4661  -20.9253   12.8989  H     
33   H        15.4301  -16.4047   14.6951  H     
34   H        20.3262  -14.5000   18.8491  H     
35   H        21.6860  -12.5513   19.3154  H     
36   H        23.8206  -16.7124   17.9480  H     
37   H        26.0826  -15.3128   18.1980  H     
38   H        29.1937  -13.4696   18.8454  H     
39   H        28.1330  -14.7669   18.7198  H     
40   H        28.5597  -11.4023   18.9595  H     
41   H        22.0235  -18.2448   19.4457  H     
42   H        18.9987  -20.0000   17.1207  H     
43   H        20.6784  -20.1603   18.8706  H     
44   H        19.9932  -15.9668   16.5236  H     
45   H        26.9531  -10.9435   18.9297  H     
@<TRIPOS>BOND
     1    1    2 1
     2    1   24 1
     3    2    3 1
     4    3    4 2
     5    3    8 1
     6    4    7 1
     7    5    6 1
     8    5    7 2
     9    5   27 1
    10    6    8 2
    11    9   10 2
    12    9   12 1
    13    9   21 1
    14   10   11 1
    15   11   14 2
    16   12   13 2
    17   13   14 1
    18   13   17 1
    19   14   15 1
    20   15   16 1
    21   16   17 2
    22   16   18 1
    23   18   19 1
    24   18   20 2
    25   21   22 2
    26   21   26 1
    27   22   25 1
    28   23   24 1
    29   23   25 2
    30   24   26 2
    31    2   28 1
    32    2   29 1
    33    4   30 1
    34    6   31 1
    35    7   32 1
    36    8   33 1
    37   10   34 1
    38   11   35 1
    39   12   36 1
    40   17   37 1
    41   19   38 1
    42   19   39 1
    43   20   40 1
    44   22   41 1
    45   23   42 1
    46   25   43 1
    47   26   44 1
    48   20   45 1
@<TRIPOS>PROPERTY_DATA
  Total_Score	| 7.4161
  Crash		| -1.1725
  Polar		| 4.4673
  FragIndex	| 1
  FragRMSD	| 0.123

