@<TRIPOS>MOLECULE
BindingDB_50307335
 45 48 0 0 0
SMALL
NO_CHARGES


@<TRIPOS>ATOM
1    C        22.0826  -15.8698   18.2244  C     
2    C        21.4188  -14.6862   18.6276  C     
3    C        22.1539  -13.5247   18.9482  C     
4    C        23.4953  -15.8756   18.1259  C     
5    C        24.2172  -14.7105   18.4413  C     
6    C        23.5536  -13.5552   18.8453  C     
7    S        24.6387  -12.2495   19.1684  S     
8    C        25.9508  -13.2856   18.7634  C     
9    C        25.5636  -14.5186   18.4099  C     
10   C        27.2777  -12.8548   18.8207  C     
11   N        28.3221  -13.7051   18.7682  N     
12   N        27.6072  -11.5578   18.9448  N     
13   C        21.3395  -17.0307   17.9064  C     
14   C        20.4772  -17.0286   16.7917  C     
15   C        19.8379  -19.3377   17.2620  C     
16   C        20.7096  -19.3516   18.3700  C     
17   C        19.7584  -18.1909   16.4551  C     
18   C        21.4652  -18.2052   18.6897  C     
19   O        19.0979  -20.4505   16.9523  O     
20   C        17.7499  -20.4512   17.4681  C     
21   C        16.8576  -19.4517   16.8149  C     
22   C        16.7273  -19.4296   15.4011  C     
23   C        15.2803  -17.4728   15.5355  C     
24   C        15.3789  -17.4975   16.9365  C     
25   C        15.9590  -18.4381   14.7676  C     
26   C        16.1683  -18.4800   17.5721  C     
27   H        20.3969  -14.6648   18.7063  H     
28   H        21.6746  -12.6794   19.2599  H     
29   H        23.9930  -16.7179   17.8143  H     
30   H        26.1894  -15.2379   18.1216  H     
31   H        29.2242  -13.3484   18.8558  H     
32   H        28.1893  -14.6630   18.6968  H     
33   H        28.5407  -11.2909   19.0129  H     
34   H        20.3759  -16.1969   16.2071  H     
35   H        20.7910  -20.1882   18.9518  H     
36   H        19.1686  -18.1857   15.6197  H     
37   H        22.0853  -18.2296   19.4973  H     
38   H        17.3338  -21.4413   17.2768  H     
39   H        17.7702  -20.3277   18.5577  H     
40   H        17.2295  -20.1089   14.8283  H     
41   H        14.7305  -16.7431   15.0731  H     
42   H        14.8974  -16.7918   17.4938  H     
43   H        15.9110  -18.3987   13.7453  H     
44   H        16.2438  -18.4660   18.5916  H     
45   H        26.9230  -10.8708   18.9787  H     
@<TRIPOS>BOND
     1    1    2 2
     2    1    4 1
     3    1   13 1
     4    2    3 1
     5    3    6 2
     6    4    5 2
     7    5    6 1
     8    5    9 1
     9    6    7 1
    10    7    8 1
    11    8    9 2
    12    8   10 1
    13   10   11 1
    14   10   12 2
    15   13   14 2
    16   13   18 1
    17   14   17 1
    18   15   16 1
    19   15   17 2
    20   15   19 1
    21   16   18 2
    22   19   20 1
    23   20   21 1
    24   21   22 2
    25   21   26 1
    26   22   25 1
    27   23   24 1
    28   23   25 2
    29   24   26 2
    30    2   27 1
    31    3   28 1
    32    4   29 1
    33    9   30 1
    34   11   31 1
    35   11   32 1
    36   12   33 1
    37   14   34 1
    38   16   35 1
    39   17   36 1
    40   18   37 1
    41   20   38 1
    42   20   39 1
    43   22   40 1
    44   23   41 1
    45   24   42 1
    46   25   43 1
    47   26   44 1
    48   12   45 1
@<TRIPOS>PROPERTY_DATA
  Total_Score	| 6.0098
  Crash		| -1.0012
  Polar		| 2.8843
  FragIndex	| 1
  FragRMSD	| 0.569

