@<TRIPOS>MOLECULE
BindingDB_50307344
 48 51 0 0 0
SMALL
NO_CHARGES


@<TRIPOS>ATOM
1    O        19.5321  -18.2703   14.7821  O     
2    C        20.3232  -19.0624   13.8517  C     
3    C        20.8219  -18.3012   12.6676  C     
4    C        20.9035  -18.9021   11.3869  C     
5    C        21.8989  -16.8741   10.4202  C     
6    C        21.8411  -16.2806   11.7008  C     
7    C        21.4351  -18.2013   10.2794  C     
8    C        21.3330  -16.9891   12.8097  C     
9    C        21.9603  -15.8451   18.2052  C     
10   C        21.3191  -14.6580   18.6341  C     
11   C        22.0763  -13.5067   18.9395  C     
12   C        23.3715  -15.8755   18.0951  C     
13   C        24.1190  -14.7197   18.4031  C     
14   C        23.4732  -13.5540   18.8061  C     
15   S        24.5687  -12.2540   19.0995  S     
16   C        25.8688  -13.3101   18.7098  C     
17   C        25.4685  -14.5435   18.3558  C     
18   C        27.1937  -12.8902   18.8075  C     
19   N        27.5246  -11.5926   18.9452  N     
20   N        28.2410  -13.7342   18.7955  N     
21   C        21.2036  -16.9768   17.8237  C     
22   C        21.0495  -18.0755   18.6924  C     
23   C        19.7991  -19.2844   16.9847  C     
24   C        19.9841  -18.2140   16.0855  C     
25   C        20.3177  -19.2088   18.2893  C     
26   C        20.6342  -17.0450   16.5334  C     
27   C        22.4499  -16.0995    9.2810  C     
28   H        21.1868  -19.5427   14.3234  H     
29   H        19.6593  -19.8686   13.5152  H     
30   H        20.5970  -19.8663   11.2475  H     
31   H        22.1806  -15.3263   11.8343  H     
32   H        21.4834  -18.6685    9.3702  H     
33   H        21.3520  -16.5379   13.7116  H     
34   H        20.3005  -14.6242   18.7260  H     
35   H        21.6191  -12.6430   19.2379  H     
36   H        23.8511  -16.7238   17.7806  H     
37   H        26.0871  -15.2706   18.0839  H     
38   H        28.4526  -11.3274   19.0540  H     
39   H        26.8388  -10.9082   18.9487  H     
40   H        29.1347  -13.3744   18.9243  H     
41   H        21.4686  -18.0562   19.6228  H     
42   H        19.3108  -20.1326   16.6875  H     
43   H        20.1817  -19.9861   18.9437  H     
44   H        20.7152  -16.2475   15.9088  H     
45   H        21.8442  -15.2060    9.1094  H     
46   H        22.4640  -16.6845    8.3592  H     
47   H        23.4733  -15.7864    9.5055  H     
48   H        28.1150  -14.6936   18.7130  H     
@<TRIPOS>BOND
     1    1    2 1
     2    1   24 1
     3    2    3 1
     4    3    4 2
     5    3    8 1
     6    4    7 1
     7    5    6 1
     8    5    7 2
     9    5   27 1
    10    6    8 2
    11    9   10 2
    12    9   12 1
    13    9   21 1
    14   10   11 1
    15   11   14 2
    16   12   13 2
    17   13   14 1
    18   13   17 1
    19   14   15 1
    20   15   16 1
    21   16   17 2
    22   16   18 1
    23   18   19 1
    24   18   20 2
    25   21   22 2
    26   21   26 1
    27   22   25 1
    28   23   24 1
    29   23   25 2
    30   24   26 2
    31    2   28 1
    32    2   29 1
    33    4   30 1
    34    6   31 1
    35    7   32 1
    36    8   33 1
    37   10   34 1
    38   11   35 1
    39   12   36 1
    40   17   37 1
    41   19   38 1
    42   19   39 1
    43   20   40 1
    44   22   41 1
    45   23   42 1
    46   25   43 1
    47   26   44 1
    48   27   45 1
    49   27   46 1
    50   27   47 1
    51   20   48 1
@<TRIPOS>PROPERTY_DATA
  Total_Score	| 8.5299
  Crash		| -1.3355
  Polar		| 3.2654
  FragIndex	| 1
  FragRMSD	| 0.850

