@<TRIPOS>MOLECULE
BindingDB_50307340
 45 48 0 0 0
SMALL
NO_CHARGES


@<TRIPOS>ATOM
1    O        18.1938  -17.7367   16.0500  O     
2    C        16.8752  -17.8722   16.6273  C     
3    C        16.5953  -17.0951   17.8704  C     
4    C        17.3159  -15.9177   18.1785  C     
5    C        16.0171  -15.6160   20.2259  C     
6    C        15.2816  -16.7782   19.9248  C     
7    C        17.0233  -15.1786   19.3443  C     
8    C        15.5634  -17.4992   18.7484  C     
9    C        21.9715  -15.7256   18.3157  C     
10   C        21.3793  -14.5160   18.7582  C     
11   C        22.1715  -13.3857   19.0445  C     
12   C        23.3801  -15.7821   18.1553  C     
13   C        24.1647  -14.6463   18.4441  C     
14   C        23.5614  -13.4679   18.8774  C     
15   S        24.7076  -12.2082   19.1792  S     
16   C        25.9692  -13.3022   18.7492  C     
17   C        25.5196  -14.5140   18.3850  C     
18   C        27.3133  -12.9338   18.8069  C     
19   N        28.3195  -13.8272   18.7652  N     
20   N        27.7022  -11.6505   18.9313  N     
21   C        21.1677  -16.8688   18.0558  C     
22   C        21.4336  -18.1059   18.6903  C     
23   C        19.5603  -19.1381   17.5121  C     
24   C        19.2543  -17.9036   16.8996  C     
25   C        20.6421  -19.2384   18.4101  C     
26   C        20.0785  -16.7911   17.1553  C     
27   Cl       14.0525  -17.2977   20.9677  Cl    
28   H        16.1656  -17.5279   15.8697  H     
29   H        16.6726  -18.9354   16.7801  H     
30   H        18.0582  -15.5914   17.5556  H     
31   H        15.8152  -15.0792   21.0781  H     
32   H        17.5358  -14.3160   19.5543  H     
33   H        15.0040  -18.3234   18.5274  H     
34   H        20.3685  -14.4544   18.8882  H     
35   H        21.7400  -12.5283   19.3917  H     
36   H        23.8381  -16.6381   17.8285  H     
37   H        26.1053  -15.2663   18.1011  H     
38   H        29.2324  -13.5113   18.8551  H     
39   H        28.1438  -14.7785   18.6825  H     
40   H        28.6441  -11.4370   19.0013  H     
41   H        22.1953  -18.1947   19.3673  H     
42   H        18.9898  -19.9656   17.3181  H     
43   H        20.8569  -20.1307   18.8652  H     
44   H        19.8673  -15.9136   16.6788  H     
45   H        27.0513  -10.9351   18.9596  H     
@<TRIPOS>BOND
     1    1    2 1
     2    1   24 1
     3    2    3 1
     4    3    4 2
     5    3    8 1
     6    4    7 1
     7    5    6 1
     8    5    7 2
     9    6    8 2
    10    6   27 1
    11    9   10 2
    12    9   12 1
    13    9   21 1
    14   10   11 1
    15   11   14 2
    16   12   13 2
    17   13   14 1
    18   13   17 1
    19   14   15 1
    20   15   16 1
    21   16   17 2
    22   16   18 1
    23   18   19 1
    24   18   20 2
    25   21   22 2
    26   21   26 1
    27   22   25 1
    28   23   24 1
    29   23   25 2
    30   24   26 2
    31    2   28 1
    32    2   29 1
    33    4   30 1
    34    5   31 1
    35    7   32 1
    36    8   33 1
    37   10   34 1
    38   11   35 1
    39   12   36 1
    40   17   37 1
    41   19   38 1
    42   19   39 1
    43   20   40 1
    44   22   41 1
    45   23   42 1
    46   25   43 1
    47   26   44 1
    48   20   45 1
@<TRIPOS>PROPERTY_DATA
  Total_Score	| 7.9542
  Crash		| -1.3481
  Polar		| 4.5068
  FragIndex	| 1
  FragRMSD	| 0.159

