@<TRIPOS>MOLECULE
BindingDB_50307321
 48 51 0 0 0
SMALL
NO_CHARGES


@<TRIPOS>ATOM
1    O        18.3537  -17.8125   15.6986  O     
2    C        17.0548  -17.5368   16.2769  C     
3    C        21.9191  -15.7803   18.2952  C     
4    C        21.3250  -14.5599   18.7091  C     
5    C        22.1171  -13.4292   18.9960  C     
6    C        23.3290  -15.8562   18.1911  C     
7    C        24.1110  -14.7211   18.4787  C     
8    C        23.5111  -13.5265   18.8653  C     
9    S        24.6618  -12.2685   19.1461  S     
10   C        25.9161  -13.3857   18.7665  C     
11   C        25.4652  -14.6043   18.4353  C     
12   C        27.2603  -13.0280   18.8341  C     
13   N        28.2624  -13.9274   18.8175  N     
14   N        27.6567  -11.7441   18.9310  N     
15   C        21.1153  -16.9048   17.9801  C     
16   C        21.2446  -18.1134   18.7039  C     
17   C        19.5162  -19.1523   17.3358  C     
18   C        19.3373  -17.9394   16.6399  C     
19   C        20.4594  -19.2326   18.3764  C     
20   C        20.1552  -16.8348   16.9425  C     
21   C        16.0070  -17.3123   15.1622  C     
22   C        14.5843  -17.2194   15.6007  C     
23   C        14.2062  -16.9680   16.9414  C     
24   C        11.8477  -17.1441   16.3579  C     
25   C        12.1993  -17.3580   15.0153  C     
26   C        12.8487  -16.9293   17.3186  C     
27   C        13.5560  -17.3836   14.6418  C     
28   H        16.7405  -18.3970   16.8805  H     
29   H        17.1063  -16.6478   16.9097  H     
30   H        20.3103  -14.4933   18.8213  H     
31   H        21.6879  -12.5548   19.3019  H     
32   H        23.7857  -16.7221   17.8919  H     
33   H        26.0498  -15.3675   18.1834  H     
34   H        29.1801  -13.6163   18.8843  H     
35   H        28.0802  -14.8797   18.7682  H     
36   H        28.6002  -11.5340   19.0125  H     
37   H        21.9061  -18.1855   19.4800  H     
38   H        18.9450  -19.9679   17.1029  H     
39   H        20.5545  -20.0996   18.9136  H     
40   H        20.0452  -15.9725   16.3977  H     
41   H        16.2648  -16.4002   14.6160  H     
42   H        16.1077  -18.1533   14.4705  H     
43   H        14.9114  -16.8083   17.6610  H     
44   H        10.8645  -17.1333   16.6355  H     
45   H        11.4737  -17.4975   14.3118  H     
46   H        12.5915  -16.7491   18.2927  H     
47   H        13.7904  -17.5400   13.6600  H     
48   H        27.0059  -11.0251   18.9296  H     
@<TRIPOS>BOND
     1    1    2 1
     2    1   18 1
     3    2   21 1
     4    3    4 2
     5    3    6 1
     6    3   15 1
     7    4    5 1
     8    5    8 2
     9    6    7 2
    10    7    8 1
    11    7   11 1
    12    8    9 1
    13    9   10 1
    14   10   11 2
    15   10   12 1
    16   12   13 1
    17   12   14 2
    18   15   16 2
    19   15   20 1
    20   16   19 1
    21   17   18 1
    22   17   19 2
    23   18   20 2
    24   21   22 1
    25   22   23 2
    26   22   27 1
    27   23   26 1
    28   24   25 1
    29   24   26 2
    30   25   27 2
    31    2   28 1
    32    2   29 1
    33    4   30 1
    34    5   31 1
    35    6   32 1
    36   11   33 1
    37   13   34 1
    38   13   35 1
    39   14   36 1
    40   16   37 1
    41   17   38 1
    42   19   39 1
    43   20   40 1
    44   21   41 1
    45   21   42 1
    46   23   43 1
    47   24   44 1
    48   25   45 1
    49   26   46 1
    50   27   47 1
    51   14   48 1
@<TRIPOS>PROPERTY_DATA
  Total_Score	| 8.3873
  Crash		| -1.1664
  Polar		| 3.6202
  FragIndex	| 1
  FragRMSD	| 0.158

