@<TRIPOS>MOLECULE
BindingDB_50307334
 39 41 0 0 0
SMALL
NO_CHARGES


@<TRIPOS>ATOM
1    C        21.9679  -15.7509   18.4343  C     
2    C        21.3724  -14.5391   18.8686  C     
3    C        22.1470  -13.3875   19.1042  C     
4    C        23.3809  -15.7914   18.2700  C     
5    C        24.1537  -14.6351   18.5172  C     
6    C        23.5361  -13.4517   18.9122  C     
7    S        24.6544  -12.1570   19.1329  S     
8    C        25.9320  -13.2409   18.7404  C     
9    C        25.5061  -14.4769   18.4317  C     
10   C        27.2683  -12.8400   18.7939  C     
11   N        27.6176  -11.5493   18.9454  N     
12   N        28.3023  -13.6952   18.7290  N     
13   C        21.1563  -16.8814   18.1266  C     
14   C        21.4182  -18.1427   18.7064  C     
15   C        19.6702  -19.1753   17.3485  C     
16   C        19.3464  -17.9060   16.8125  C     
17   C        20.6769  -19.2741   18.3291  C     
18   C        20.1065  -16.7800   17.1815  C     
19   O        18.3857  -17.7370   15.8496  O     
20   C        17.0463  -17.5844   16.3800  C     
21   O        18.9786  -20.2973   16.9545  O     
22   C        19.5499  -20.9480   15.8087  C     
23   H        20.3640  -14.4893   19.0253  H     
24   H        21.7023  -12.5195   19.4056  H     
25   H        23.8548  -16.6391   17.9449  H     
26   H        26.1083  -15.2250   18.1731  H     
27   H        28.5498  -11.3012   19.0204  H     
28   H        26.9434  -10.8571   19.0095  H     
29   H        29.2050  -13.3483   18.8358  H     
30   H        22.1476  -18.2526   19.4166  H     
31   H        20.8837  -20.1823   18.7449  H     
32   H        19.9066  -15.8827   16.7227  H     
33   H        16.7313  -18.4945   16.9140  H     
34   H        16.3672  -17.4165   15.5435  H     
35   H        16.9684  -16.7268   17.0681  H     
36   H        19.5394  -20.2957   14.9348  H     
37   H        18.9463  -21.8249   15.5844  H     
38   H        20.5721  -21.2784   15.9994  H     
39   H        28.1609  -14.6519   18.6387  H     
@<TRIPOS>BOND
     1    1    2 2
     2    1    4 1
     3    1   13 1
     4    2    3 1
     5    3    6 2
     6    4    5 2
     7    5    6 1
     8    5    9 1
     9    6    7 1
    10    7    8 1
    11    8    9 2
    12    8   10 1
    13   10   11 1
    14   10   12 2
    15   13   14 2
    16   13   18 1
    17   14   17 1
    18   15   16 1
    19   15   17 2
    20   15   21 1
    21   16   18 2
    22   16   19 1
    23   19   20 1
    24   21   22 1
    25    2   23 1
    26    3   24 1
    27    4   25 1
    28    9   26 1
    29   11   27 1
    30   11   28 1
    31   12   29 1
    32   14   30 1
    33   17   31 1
    34   18   32 1
    35   20   33 1
    36   20   34 1
    37   20   35 1
    38   22   36 1
    39   22   37 1
    40   22   38 1
    41   12   39 1
@<TRIPOS>PROPERTY_DATA
  Total_Score	| 6.9325
  Crash		| -1.0864
  Polar		| 4.0195
  FragIndex	| 1
  FragRMSD	| 0.709

