@<TRIPOS>MOLECULE
BindingDB_50307339
 45 48 0 0 0
SMALL
NO_CHARGES


@<TRIPOS>ATOM
1    O        18.4092  -17.8144   15.8801  O     
2    C        17.0984  -17.6667   16.4854  C     
3    C        17.0634  -17.1214   17.8759  C     
4    C        16.4366  -17.8334   18.9250  C     
5    C        17.1542  -16.1474   20.5335  C     
6    C        17.7856  -15.4306   19.5018  C     
7    C        16.4706  -17.3441   20.2419  C     
8    C        17.7344  -15.9117   18.1840  C     
9    C        22.1065  -15.9028   18.2933  C     
10   C        21.4564  -14.6858   18.6370  C     
11   C        22.1903  -13.5105   18.8844  C     
12   C        23.5188  -15.9273   18.2220  C     
13   C        24.2504  -14.7440   18.4700  C     
14   C        23.5876  -13.5598   18.7880  C     
15   S        24.6615  -12.2345   19.0396  S     
16   C        25.9767  -13.2984   18.7349  C     
17   C        25.5980  -14.5549   18.4435  C     
18   C        27.2934  -12.8515   18.8228  C     
19   N        28.3537  -13.6826   18.8178  N     
20   N        27.5894  -11.5450   18.9466  N     
21   C        21.3296  -17.0498   17.9835  C     
22   C        21.4777  -18.2649   18.6946  C     
23   C        19.6274  -19.2515   17.4434  C     
24   C        19.4597  -18.0451   16.7325  C     
25   C        20.6342  -19.3592   18.4189  C     
26   C        20.3272  -16.9663   16.9875  C     
27   F        17.2016  -15.7001   21.7597  F     
28   H        16.5215  -16.9910   15.8442  H     
29   H        16.6008  -18.6414   16.4344  H     
30   H        15.9647  -18.7222   18.7341  H     
31   H        18.2882  -14.5619   19.7052  H     
32   H        16.0031  -17.8634   20.9859  H     
33   H        18.2266  -15.4013   17.4501  H     
34   H        20.4332  -14.6460   18.7156  H     
35   H        21.7145  -12.6387   19.1234  H     
36   H        24.0200  -16.7838   17.9673  H     
37   H        26.2292  -15.2918   18.2301  H     
38   H        29.2380  -13.3053   18.9372  H     
39   H        28.2384  -14.6434   18.7472  H     
40   H        28.5066  -11.2587   19.0465  H     
41   H        22.1763  -18.3541   19.4370  H     
42   H        18.9925  -20.0305   17.2764  H     
43   H        20.7308  -20.2260   18.9503  H     
44   H        20.1931  -16.0927   16.4720  H     
45   H        26.8838  -10.8806   18.9633  H     
@<TRIPOS>BOND
     1    1    2 1
     2    1   24 1
     3    2    3 1
     4    3    4 2
     5    3    8 1
     6    4    7 1
     7    5    6 1
     8    5    7 2
     9    5   27 1
    10    6    8 2
    11    9   10 2
    12    9   12 1
    13    9   21 1
    14   10   11 1
    15   11   14 2
    16   12   13 2
    17   13   14 1
    18   13   17 1
    19   14   15 1
    20   15   16 1
    21   16   17 2
    22   16   18 1
    23   18   19 1
    24   18   20 2
    25   21   22 2
    26   21   26 1
    27   22   25 1
    28   23   24 1
    29   23   25 2
    30   24   26 2
    31    2   28 1
    32    2   29 1
    33    4   30 1
    34    6   31 1
    35    7   32 1
    36    8   33 1
    37   10   34 1
    38   11   35 1
    39   12   36 1
    40   17   37 1
    41   19   38 1
    42   19   39 1
    43   20   40 1
    44   22   41 1
    45   23   42 1
    46   25   43 1
    47   26   44 1
    48   20   45 1
@<TRIPOS>PROPERTY_DATA
  Total_Score	| 7.9397
  Crash		| -1.2888
  Polar		| 4.1720
  FragIndex	| 1
  FragRMSD	| 0.219

