@<TRIPOS>MOLECULE
BindingDB_50307343
 49 52 0 0 0
SMALL
NO_CHARGES


@<TRIPOS>ATOM
1    O        18.4129  -17.7096   15.8589  O     
2    C        17.0485  -17.9880   16.2413  C     
3    C        16.6649  -17.5666   17.6187  C     
4    C        15.8371  -18.3783   18.4302  C     
5    C        15.9769  -16.7589   20.2509  C     
6    C        16.7815  -15.9303   19.4420  C     
7    C        15.4886  -17.9759   19.7285  C     
8    C        17.1289  -16.3339   18.1386  C     
9    C        22.0245  -15.7293   18.3831  C     
10   C        21.4136  -14.5125   18.7898  C     
11   C        22.1879  -13.3598   19.0361  C     
12   C        23.4291  -15.7736   18.2375  C     
13   C        24.1958  -14.6196   18.4904  C     
14   C        23.5807  -13.4338   18.8857  C     
15   S        24.7105  -12.1512   19.1349  S     
16   C        25.9811  -13.2433   18.7385  C     
17   C        25.5452  -14.4695   18.4123  C     
18   C        27.3214  -12.8637   18.7839  C     
19   N        28.3430  -13.7431   18.7291  N     
20   N        27.6900  -11.5787   18.9201  N     
21   C        21.2195  -16.8659   18.0933  C     
22   C        21.4401  -18.1074   18.7338  C     
23   C        19.6304  -19.1233   17.4556  C     
24   C        19.3790  -17.8910   16.8165  C     
25   C        20.6484  -19.2265   18.4261  C     
26   C        20.1809  -16.7781   17.1373  C     
27   O        15.6365  -16.3786   21.5116  O     
28   C        16.7797  -16.2680   22.3798  C     
29   H        16.4004  -17.4779   15.5279  H     
30   H        16.8826  -19.0616   16.1060  H     
31   H        15.4818  -19.2694   18.0786  H     
32   H        17.1260  -15.0446   19.8117  H     
33   H        14.8915  -18.5687   20.3060  H     
34   H        17.7283  -15.7383   17.5710  H     
35   H        20.3994  -14.4564   18.9177  H     
36   H        21.7431  -12.4879   19.3319  H     
37   H        23.8984  -16.6285   17.9274  H     
38   H        26.1401  -15.2148   18.1339  H     
39   H        29.2503  -13.4120   18.8315  H     
40   H        28.1824  -14.6978   18.6499  H     
41   H        28.6270  -11.3443   18.9923  H     
42   H        22.1926  -18.2073   19.4256  H     
43   H        19.0713  -19.9441   17.2098  H     
44   H        20.8238  -20.1166   18.8959  H     
45   H        20.0112  -15.8957   16.6436  H     
46   H        17.3567  -17.1997   22.4273  H     
47   H        16.4269  -16.0378   23.3857  H     
48   H        17.4444  -15.4595   22.0669  H     
49   H        27.0241  -10.8783   18.9718  H     
@<TRIPOS>BOND
     1    1    2 1
     2    1   24 1
     3    2    3 1
     4    3    4 2
     5    3    8 1
     6    4    7 1
     7    5    6 1
     8    5    7 2
     9    5   27 1
    10    6    8 2
    11    9   10 2
    12    9   12 1
    13    9   21 1
    14   10   11 1
    15   11   14 2
    16   12   13 2
    17   13   14 1
    18   13   17 1
    19   14   15 1
    20   15   16 1
    21   16   17 2
    22   16   18 1
    23   18   19 1
    24   18   20 2
    25   21   22 2
    26   21   26 1
    27   22   25 1
    28   23   24 1
    29   23   25 2
    30   24   26 2
    31   27   28 1
    32    2   29 1
    33    2   30 1
    34    4   31 1
    35    6   32 1
    36    7   33 1
    37    8   34 1
    38   10   35 1
    39   11   36 1
    40   12   37 1
    41   17   38 1
    42   19   39 1
    43   19   40 1
    44   20   41 1
    45   22   42 1
    46   23   43 1
    47   25   44 1
    48   26   45 1
    49   28   46 1
    50   28   47 1
    51   28   48 1
    52   20   49 1
@<TRIPOS>PROPERTY_DATA
  Total_Score	| 8.1992
  Crash		| -1.2375
  Polar		| 3.9803
  FragIndex	| 1
  FragRMSD	| 0.217

