@<TRIPOS>MOLECULE
BindingDB_50307348
 49 52 0 0 0
SMALL
NO_CHARGES


@<TRIPOS>ATOM
1    C        22.2563  -15.9214   18.1038  C     
2    C        21.5718  -14.7823   18.5925  C     
3    C        22.2770  -13.6227   18.9606  C     
4    C        23.6734  -15.9032   18.0283  C     
5    C        24.3692  -14.7393   18.4068  C     
6    C        23.6729  -13.6154   18.8449  C     
7    S        24.7034  -12.2744   19.1761  S     
8    C        26.0465  -13.2683   18.7743  C     
9    C        25.7052  -14.5139   18.4074  C     
10   C        27.3505  -12.7863   18.8395  C     
11   N        27.6234  -11.4730   18.9434  N     
12   N        28.4250  -13.5941   18.8205  N     
13   C        21.5232  -17.0304   17.6188  C     
14   C        20.7579  -17.8261   18.5014  C     
15   C        19.9216  -19.1305   16.6161  C     
16   C        20.6838  -18.3592   15.6883  C     
17   C        19.9710  -18.8709   18.0005  C     
18   C        21.4895  -17.3193   16.2324  C     
19   C        20.6274  -18.6148   14.2677  C     
20   C        21.0921  -17.6518   13.3218  C     
21   C        20.5095  -19.0829   11.4334  C     
22   C        20.0166  -20.0442   12.3425  C     
23   C        21.0700  -17.8781   11.9237  C     
24   C        20.0859  -19.8195   13.7325  C     
25   O        21.4804  -16.9678   10.9644  O     
26   C        22.1964  -15.7799   11.3448  C     
27   O        20.3575  -19.2778   10.0811  O     
28   C        21.5260  -19.8324    9.4508  C     
29   H        20.5499  -14.7815   18.6542  H     
30   H        21.7791  -12.7987   19.3037  H     
31   H        24.1910  -16.7205   17.6937  H     
32   H        26.3607  -15.2087   18.1241  H     
33   H        28.5392  -11.1637   19.0195  H     
34   H        26.9084  -10.8199   18.9608  H     
35   H        29.3071  -13.2056   18.9227  H     
36   H        20.7745  -17.6319   19.5081  H     
37   H        19.2987  -19.8775   16.2947  H     
38   H        19.4039  -19.4343   18.6466  H     
39   H        22.0696  -16.7404   15.6124  H     
40   H        21.4282  -16.7436   13.6435  H     
41   H        19.6021  -20.9150   11.9835  H     
42   H        19.7345  -20.5644   14.3482  H     
43   H        21.5315  -15.0658   11.8391  H     
44   H        22.5987  -15.3071   10.4376  H     
45   H        23.0439  -16.0080   11.9928  H     
46   H        22.3875  -19.1692    9.5534  H     
47   H        21.3146  -19.9480    8.3894  H     
48   H        21.7735  -20.8163    9.8574  H     
49   H        28.3271  -14.5565   18.7637  H     
@<TRIPOS>BOND
     1    1    2 2
     2    1    4 1
     3    1   13 1
     4    2    3 1
     5    3    6 2
     6    4    5 2
     7    5    6 1
     8    5    9 1
     9    6    7 1
    10    7    8 1
    11    8    9 2
    12    8   10 1
    13   10   11 1
    14   10   12 2
    15   13   14 2
    16   13   18 1
    17   14   17 1
    18   15   16 1
    19   15   17 2
    20   16   18 2
    21   16   19 1
    22   19   20 2
    23   19   24 1
    24   20   23 1
    25   21   22 1
    26   21   23 2
    27   21   27 1
    28   22   24 2
    29   23   25 1
    30   25   26 1
    31   27   28 1
    32    2   29 1
    33    3   30 1
    34    4   31 1
    35    9   32 1
    36   11   33 1
    37   11   34 1
    38   12   35 1
    39   14   36 1
    40   15   37 1
    41   17   38 1
    42   18   39 1
    43   20   40 1
    44   22   41 1
    45   24   42 1
    46   26   43 1
    47   26   44 1
    48   26   45 1
    49   28   46 1
    50   28   47 1
    51   28   48 1
    52   12   49 1
@<TRIPOS>PROPERTY_DATA
  Total_Score	| 7.1468
  Crash		| -1.9965
  Polar		| 3.0551
  FragIndex	| 1
  FragRMSD	| 1.069

