@<TRIPOS>MOLECULE
BindingDB_50307336
 45 48 0 0 0
SMALL
NO_CHARGES


@<TRIPOS>ATOM
1    O        18.3125  -17.8513   15.9978  O     
2    C        17.0155  -17.7935   16.6388  C     
3    C        16.9756  -17.2004   18.0079  C     
4    C        17.6138  -15.9673   18.2765  C     
5    C        17.1574  -16.2089   20.6568  C     
6    C        16.4647  -17.4063   20.3994  C     
7    C        17.7062  -15.4721   19.5912  C     
8    C        16.3771  -17.9006   19.0839  C     
9    C        22.0401  -15.8230   18.2938  C     
10   C        21.4079  -14.6249   18.7152  C     
11   C        22.1646  -13.4743   19.0058  C     
12   C        23.4500  -15.8540   18.1671  C     
13   C        24.1953  -14.6953   18.4512  C     
14   C        23.5622  -13.5248   18.8603  C     
15   S        24.6798  -12.2365   19.1355  S     
16   C        25.9617  -13.3137   18.7343  C     
17   C        25.5430  -14.5413   18.3933  C     
18   C        27.2965  -12.9280   18.8049  C     
19   N        27.6674  -11.6348   18.8816  N     
20   N        28.3166  -13.8035   18.8238  N     
21   C        21.2648  -16.9730   18.0075  C     
22   C        21.4932  -18.1913   18.6907  C     
23   C        19.6539  -19.2396   17.4837  C     
24   C        19.3934  -18.0218   16.8206  C     
25   C        20.7039  -19.3214   18.4175  C     
26   C        20.2171  -16.9081   17.0605  C     
27   H        16.3764  -17.1890   15.9956  H     
28   H        16.6008  -18.8079   16.6342  H     
29   H        18.0557  -15.4438   17.5204  H     
30   H        17.2572  -15.8729   21.6194  H     
31   H        16.0469  -17.9314   21.1718  H     
32   H        18.2020  -14.5966   19.7787  H     
33   H        15.8959  -18.7882   18.9194  H     
34   H        20.3925  -14.5875   18.8301  H     
35   H        21.7048  -12.6191   19.3255  H     
36   H        23.9309  -16.7033   17.8572  H     
37   H        26.1474  -15.2842   18.1248  H     
38   H        28.6056  -11.4057   18.9636  H     
39   H        27.0045  -10.9277   18.8648  H     
40   H        29.2249  -13.4698   18.9093  H     
41   H        22.2320  -18.2626   19.3974  H     
42   H        19.0738  -20.0586   17.3002  H     
43   H        20.8858  -20.2005   18.9107  H     
44   H        20.0413  -16.0410   16.5445  H     
45   H        28.1576  -14.7609   18.7840  H     
@<TRIPOS>BOND
     1    1    2 1
     2    1   24 1
     3    2    3 1
     4    3    4 2
     5    3    8 1
     6    4    7 1
     7    5    6 1
     8    5    7 2
     9    6    8 2
    10    9   10 2
    11    9   12 1
    12    9   21 1
    13   10   11 1
    14   11   14 2
    15   12   13 2
    16   13   14 1
    17   13   17 1
    18   14   15 1
    19   15   16 1
    20   16   17 2
    21   16   18 1
    22   18   19 1
    23   18   20 2
    24   21   22 2
    25   21   26 1
    26   22   25 1
    27   23   24 1
    28   23   25 2
    29   24   26 2
    30    2   27 1
    31    2   28 1
    32    4   29 1
    33    5   30 1
    34    6   31 1
    35    7   32 1
    36    8   33 1
    37   10   34 1
    38   11   35 1
    39   12   36 1
    40   17   37 1
    41   19   38 1
    42   19   39 1
    43   20   40 1
    44   22   41 1
    45   23   42 1
    46   25   43 1
    47   26   44 1
    48   20   45 1
@<TRIPOS>PROPERTY_DATA
  Total_Score	| 7.6334
  Crash		| -1.2212
  Polar		| 3.8211
  FragIndex	| 1
  FragRMSD	| 0.775

