@<TRIPOS>MOLECULE
BindingDB_50307351
 49 52 0 0 0
SMALL
NO_CHARGES


@<TRIPOS>ATOM
1    O        18.3147  -17.8758   15.9222  O     
2    C        17.0426  -18.4021   16.3654  C     
3    C        16.2062  -17.3897   17.0691  C     
4    C        16.7475  -16.6675   18.1590  C     
5    C        14.6005  -15.6133   18.5785  C     
6    C        14.0458  -16.3137   17.4961  C     
7    C        15.9534  -15.7819   18.9063  C     
8    C        14.8384  -17.1956   16.7290  C     
9    C        21.9682  -15.7456   18.3493  C     
10   C        21.3565  -14.5315   18.7554  C     
11   C        22.1275  -13.3817   19.0195  C     
12   C        23.3802  -15.7817   18.2248  C     
13   C        24.1403  -14.6318   18.4954  C     
14   C        23.5224  -13.4501   18.8834  C     
15   S        24.6449  -12.1634   19.1382  S     
16   C        25.9172  -13.2538   18.7451  C     
17   C        25.4912  -14.4847   18.4265  C     
18   C        27.2515  -12.8607   18.7834  C     
19   N        28.2757  -13.7348   18.7054  N     
20   N        27.6201  -11.5715   18.9108  N     
21   C        21.1839  -16.8988   18.0536  C     
22   C        21.4597  -18.1409   18.6804  C     
23   C        19.6913  -19.2171   17.3926  C     
24   C        19.3622  -17.9824   16.8005  C     
25   C        20.7217  -19.2917   18.3535  C     
26   C        20.1242  -16.8390   17.1143  C     
27   O        14.2318  -17.9105   15.7292  O     
28   C        14.3780  -17.3193   14.4275  C     
29   H        16.5487  -18.7751   15.4710  H     
30   H        17.1853  -19.2726   17.0344  H     
31   H        17.7186  -16.8048   18.4485  H     
32   H        14.0151  -14.9966   19.1496  H     
33   H        13.0527  -16.1997   17.2804  H     
34   H        16.3569  -15.2979   19.7145  H     
35   H        20.3414  -14.4796   18.8781  H     
36   H        21.6798  -12.5072   19.3055  H     
37   H        23.8532  -16.6363   17.9183  H     
38   H        26.0851  -15.2314   18.1597  H     
39   H        29.1842  -13.4010   18.7678  H     
40   H        28.1156  -14.6875   18.6215  H     
41   H        28.5592  -11.3372   18.9571  H     
42   H        22.2048  -18.2197   19.3792  H     
43   H        19.1496  -20.0472   17.1535  H     
44   H        20.9277  -20.1820   18.8133  H     
45   H        19.9003  -15.9565   16.6469  H     
46   H        13.9205  -16.3288   14.3985  H     
47   H        13.8631  -17.9567   13.7070  H     
48   H        15.4288  -17.2429   14.1328  H     
49   H        26.9558  -10.8693   18.9702  H     
@<TRIPOS>BOND
     1    1    2 1
     2    1   24 1
     3    2    3 1
     4    3    4 2
     5    3    8 1
     6    4    7 1
     7    5    6 1
     8    5    7 2
     9    6    8 2
    10    8   27 1
    11    9   10 2
    12    9   12 1
    13    9   21 1
    14   10   11 1
    15   11   14 2
    16   12   13 2
    17   13   14 1
    18   13   17 1
    19   14   15 1
    20   15   16 1
    21   16   17 2
    22   16   18 1
    23   18   19 1
    24   18   20 2
    25   21   22 2
    26   21   26 1
    27   22   25 1
    28   23   24 1
    29   23   25 2
    30   24   26 2
    31   27   28 1
    32    2   29 1
    33    2   30 1
    34    4   31 1
    35    5   32 1
    36    6   33 1
    37    7   34 1
    38   10   35 1
    39   11   36 1
    40   12   37 1
    41   17   38 1
    42   19   39 1
    43   19   40 1
    44   20   41 1
    45   22   42 1
    46   23   43 1
    47   25   44 1
    48   26   45 1
    49   28   46 1
    50   28   47 1
    51   28   48 1
    52   20   49 1
@<TRIPOS>PROPERTY_DATA
  Total_Score	| 7.7223
  Crash		| -1.4779
  Polar		| 3.8049
  FragIndex	| 1
  FragRMSD	| 0.248

