@<TRIPOS>MOLECULE
BindingDB_50307317
 51 54 0 0 0
SMALL
NO_CHARGES


@<TRIPOS>ATOM
1    O        18.4465  -17.8256   15.8751  O     
2    C        17.1137  -17.6251   16.4292  C     
3    C        16.9603  -17.2559   17.8801  C     
4    C        17.5710  -16.0847   18.3816  C     
5    C        16.9420  -16.7045   20.6614  C     
6    C        16.3154  -17.8602   20.1561  C     
7    C        17.5480  -15.8066   19.7593  C     
8    C        16.3431  -18.1496   18.7833  C     
9    C        22.0741  -15.8670   18.3771  C     
10   C        21.4306  -14.6399   18.6818  C     
11   C        22.1721  -13.4696   18.9204  C     
12   C        23.4916  -15.9015   18.3368  C     
13   C        24.2286  -14.7198   18.5695  C     
14   C        23.5713  -13.5258   18.8528  C     
15   S        24.6547  -12.2015   19.0739  S     
16   C        25.9655  -13.2776   18.7805  C     
17   C        25.5778  -14.5388   18.5385  C     
18   C        27.2867  -12.8404   18.8198  C     
19   N        27.6088  -11.5338   18.9157  N     
20   N        28.3473  -13.6668   18.7758  N     
21   C        21.3030  -17.0153   18.0550  C     
22   C        21.4786  -18.2502   18.7216  C     
23   C        19.6710  -19.2479   17.4211  C     
24   C        19.4910  -18.0280   16.7496  C     
25   C        20.6634  -19.3579   18.4081  C     
26   C        20.3034  -16.9199   17.0589  C     
27   O        17.0666  -16.3997   21.9854  O     
28   C        16.8255  -17.0430   23.1621  C     
29   C        17.1867  -16.3405   24.4039  C     
30   O        16.3294  -18.2962   23.2376  O     
31   H        16.6564  -16.8244   15.8263  H     
32   H        16.5469  -18.5367   16.2034  H     
33   H        18.0669  -15.4460   17.7516  H     
34   H        15.8860  -18.5363   20.7756  H     
35   H        18.0167  -14.9709   20.1045  H     
36   H        15.9428  -19.0236   18.4420  H     
37   H        20.4098  -14.5889   18.7280  H     
38   H        21.6982  -12.5840   19.1245  H     
39   H        23.9890  -16.7674   18.0987  H     
40   H        26.2048  -15.2849   18.3430  H     
41   H        28.5376  -11.2655   18.9722  H     
42   H        26.9171  -10.8578   18.9576  H     
43   H        29.2400  -13.2902   18.8469  H     
44   H        22.1901  -18.3535   19.4448  H     
45   H        19.0728  -20.0469   17.1978  H     
46   H        20.7818  -20.2381   18.9123  H     
47   H        20.1511  -16.0423   16.5556  H     
48   H        18.2603  -16.1441   24.3994  H     
49   H        16.9374  -16.9403   25.2820  H     
50   H        16.6518  -15.3942   24.4616  H     
51   H        28.2330  -14.6293   18.7166  H     
@<TRIPOS>BOND
     1    1    2 1
     2    1   24 1
     3    2    3 1
     4    3    4 2
     5    3    8 1
     6    4    7 1
     7    5    6 1
     8    5    7 2
     9    5   27 1
    10    6    8 2
    11    9   10 2
    12    9   12 1
    13    9   21 1
    14   10   11 1
    15   11   14 2
    16   12   13 2
    17   13   14 1
    18   13   17 1
    19   14   15 1
    20   15   16 1
    21   16   17 2
    22   16   18 1
    23   18   19 1
    24   18   20 2
    25   21   22 2
    26   21   26 1
    27   22   25 1
    28   23   24 1
    29   23   25 2
    30   24   26 2
    31   27   28 1
    32   28   29 1
    33   28   30 2
    34    2   31 1
    35    2   32 1
    36    4   33 1
    37    6   34 1
    38    7   35 1
    39    8   36 1
    40   10   37 1
    41   11   38 1
    42   12   39 1
    43   17   40 1
    44   19   41 1
    45   19   42 1
    46   20   43 1
    47   22   44 1
    48   23   45 1
    49   25   46 1
    50   26   47 1
    51   29   48 1
    52   29   49 1
    53   29   50 1
    54   20   51 1
@<TRIPOS>PROPERTY_DATA
  Total_Score	| 8.2134
  Crash		| -1.2748
  Polar		| 3.9960
  FragIndex	| 1
  FragRMSD	| 0.744

