@<TRIPOS>MOLECULE
BindingDB_50277639
 61 64 0 0 0
SMALL
NO_CHARGES


@<TRIPOS>ATOM
1    C        23.0729   29.0577   18.6113  C     
2    C        22.9337   29.2745   20.0074  C     
3    N        23.9968   28.8781   20.7591  N     
4    C        25.1363   28.3151   20.2863  C     
5    N        25.2696   28.1503   18.9435  N     
6    C        24.2680   28.5016   18.0924  C     
7    S        26.3546   27.9073   21.4585  S     
8    C        27.2536   26.7360   20.5311  C     
9    C        28.4143   27.1236   19.8368  C     
10   C        29.1202   26.1971   19.0497  C     
11   C        28.6541   24.8649   18.9123  C     
12   C        27.5264   24.4624   19.6712  C     
13   C        26.8348   25.3856   20.4683  C     
14   N        29.2395   23.9089   18.1171  N     
15   C        30.1595   24.0613   17.1713  C     
16   C        30.7417   22.9151   16.4913  C     
17   O        30.5295   25.1640   16.8123  O     
18   C        32.1481   22.5782   17.0600  C     
19   N        21.8515   29.8579   20.6368  N     
20   C        21.9014   30.2733   22.0359  C     
21   C        20.7723   29.5873   22.8440  C     
22   N        19.4457   29.8837   22.2249  N     
23   C        19.4068   29.4896   20.7875  C     
24   C        20.5758   30.1382   20.0003  C     
25   N        24.3462   28.3510   16.7523  N     
26   C        25.3912   28.0157   15.9711  C     
27   C        26.7350   27.7624   16.2704  C     
28   C        27.3620   27.5322   15.0530  C     
29   N        26.4137   27.6731   14.0996  N     
30   N        25.2609   27.9481   14.6317  N     
31   C        28.7963   27.3301   14.7484  C     
32   C        18.3207   29.2978   23.0048  C     
33   H        22.3411   29.3503   17.9544  H     
34   H        28.7458   28.0893   19.9025  H     
35   H        29.9744   26.5093   18.5878  H     
36   H        27.1983   23.4919   19.6268  H     
37   H        26.0228   25.0708   21.0048  H     
38   H        28.8858   23.0025   18.2129  H     
39   H        30.1044   22.0260   16.5914  H     
40   H        30.8311   23.1191   15.4205  H     
41   H        32.8225   23.4239   16.9196  H     
42   H        32.5644   21.7082   16.5363  H     
43   H        32.0770   22.3423   18.1269  H     
44   H        22.8513   30.0688   22.5326  H     
45   H        21.7630   31.3588   22.0858  H     
46   H        20.9572   28.5101   22.8763  H     
47   H        20.8076   29.9673   23.8701  H     
48   H        19.3292   30.9016   22.2599  H     
49   H        19.4669   28.4031   20.6952  H     
50   H        18.4638   29.8174   20.3412  H     
51   H        20.4196   31.2206   19.9689  H     
52   H        20.4959   29.7782   18.9784  H     
53   H        23.5265   28.5384   16.2592  H     
54   H        27.1869   27.8074   17.1866  H     
55   H        26.5689   27.6188   13.1418  H     
56   H        29.3654   28.1907   15.0968  H     
57   H        28.9421   27.2396   13.6734  H     
58   H        29.1878   26.4362   15.2222  H     
59   H        18.3694   28.2040   23.0103  H     
60   H        17.3641   29.6036   22.5764  H     
61   H        18.3488   29.6545   24.0384  H     
@<TRIPOS>BOND
     1    1    2 2
     2    1    6 1
     3    2    3 1
     4    2   19 1
     5    3    4 2
     6    4    5 1
     7    4    7 1
     8    5    6 2
     9    6   25 1
    10    7    8 1
    11    8    9 2
    12    8   13 1
    13    9   10 1
    14   10   11 2
    15   11   12 1
    16   11   14 1
    17   12   13 2
    18   14   15 am
    19   15   16 1
    20   15   17 2
    21   16   18 1
    22   19   20 1
    23   19   24 1
    24   20   21 1
    25   21   22 1
    26   22   23 1
    27   22   32 1
    28   23   24 1
    29   25   26 1
    30   26   27 1
    31   26   30 2
    32   27   28 2
    33   28   29 1
    34   28   31 1
    35   29   30 1
    36    1   33 1
    37    9   34 1
    38   10   35 1
    39   12   36 1
    40   13   37 1
    41   14   38 1
    42   16   39 1
    43   16   40 1
    44   18   41 1
    45   18   42 1
    46   18   43 1
    47   20   44 1
    48   20   45 1
    49   21   46 1
    50   21   47 1
    51   22   48 1
    52   23   49 1
    53   23   50 1
    54   24   51 1
    55   24   52 1
    56   25   53 1
    57   27   54 1
    58   29   55 1
    59   31   56 1
    60   31   57 1
    61   31   58 1
    62   32   59 1
    63   32   60 1
    64   32   61 1
@<TRIPOS>PROPERTY_DATA
  Total_Score	| 9.9785
  Crash		| -1.3777
  Polar		| 3.1704
  FragIndex	| 1
  FragRMSD	| 0.487

