@<TRIPOS>MOLECULE
BindingDB_50293694
 46 48 0 0 0
SMALL
NO_CHARGES


@<TRIPOS>ATOM
1    C        22.9736   28.9915   18.7073  C     
2    C        22.8548   29.0905   20.1044  C     
3    N        23.9119   28.7356   20.8840  N     
4    C        25.0740   28.2803   20.3580  C     
5    N        25.1925   28.1894   19.0063  N     
6    C        24.1815   28.5151   18.1534  C     
7    S        26.3696   27.8938   21.4527  S     
8    N        24.2767   28.4292   16.8106  N     
9    C        25.3165   28.0508   16.0394  C     
10   C        26.6039   27.6059   16.3372  C     
11   C        27.2279   27.3871   15.1142  C     
12   N        26.3364   27.7111   14.1639  N     
13   N        25.2212   28.0910   14.6979  N     
14   C        27.2646   26.7694   20.4730  C     
15   C        28.3382   27.2276   19.6910  C     
16   C        29.0658   26.3271   18.8907  C     
17   C        28.7227   24.9551   18.8329  C     
18   C        27.6382   24.5150   19.6321  C     
19   C        26.9184   25.4062   20.4439  C     
20   N        29.3497   23.9945   18.0869  N     
21   C        30.2681   24.0714   17.1297  C     
22   C        30.7207   22.8389   16.5000  C     
23   O        30.7311   25.1300   16.7326  O     
24   C        28.6060   26.9260   14.8883  C     
25   C        21.6196   29.6019   20.7352  C     
26   C        29.6564   22.2167   15.5622  C     
27   H        22.1916   29.2672   18.0990  H     
28   H        23.4771   28.6848   16.3234  H     
29   H        27.0164   27.4627   17.2605  H     
30   H        26.5053   27.6739   13.2090  H     
31   H        28.6077   28.2126   19.7068  H     
32   H        29.8415   26.7026   18.3447  H     
33   H        27.3630   23.5262   19.6252  H     
34   H        26.1376   25.0569   21.0025  H     
35   H        29.0659   23.0869   18.2832  H     
36   H        31.6341   23.0140   15.9231  H     
37   H        30.9665   22.1244   17.2836  H     
38   H        29.3105   27.6362   15.3300  H     
39   H        28.8213   26.8435   13.8177  H     
40   H        28.7584   25.9434   15.3428  H     
41   H        21.4421   30.6302   20.4161  H     
42   H        21.6962   29.5883   21.8254  H     
43   H        20.7630   28.9911   20.4428  H     
44   H        28.7591   21.9506   16.1315  H     
45   H        30.0639   21.3081   15.1176  H     
46   H        29.3880   22.9130   14.7674  H     
@<TRIPOS>BOND
     1    1    2 2
     2    1    6 1
     3    2    3 1
     4    2   25 1
     5    3    4 2
     6    4    5 1
     7    4    7 1
     8    5    6 2
     9    6    8 1
    10    7   14 1
    11    8    9 1
    12    9   10 1
    13    9   13 2
    14   10   11 2
    15   11   12 1
    16   11   24 1
    17   12   13 1
    18   14   15 2
    19   14   19 1
    20   15   16 1
    21   16   17 2
    22   17   18 1
    23   17   20 1
    24   18   19 2
    25   20   21 am
    26   21   22 1
    27   21   23 2
    28   22   26 1
    29    1   27 1
    30    8   28 1
    31   10   29 1
    32   12   30 1
    33   15   31 1
    34   16   32 1
    35   18   33 1
    36   19   34 1
    37   20   35 1
    38   22   36 1
    39   22   37 1
    40   24   38 1
    41   24   39 1
    42   24   40 1
    43   25   41 1
    44   25   42 1
    45   25   43 1
    46   26   44 1
    47   26   45 1
    48   26   46 1
@<TRIPOS>PROPERTY_DATA
  Total_Score	| 8.4127
  Crash		| -0.9287
  Polar		| 3.0417
  FragIndex	| 1
  FragRMSD	| 0.489

