@<TRIPOS>MOLECULE
BindingDB_50293695
 50 53 0 0 0
SMALL
NO_CHARGES


@<TRIPOS>ATOM
1    C        23.0741   28.9106   18.7497  C     
2    C        22.9786   28.9604   20.1582  C     
3    N        24.0749   28.6341   20.8962  N     
4    C        25.2509   28.2620   20.3334  C     
5    N        25.3438   28.2155   18.9820  N     
6    C        24.2982   28.5166   18.1610  C     
7    S        26.5877   27.8850   21.3799  S     
8    N        24.3597   28.4354   16.8121  N     
9    C        25.3974   28.1101   16.0117  C     
10   C        26.7283   27.7860   16.2702  C     
11   C        27.3206   27.5533   15.0368  C     
12   N        26.3664   27.7439   14.1168  N     
13   N        25.2458   28.0684   14.6778  N     
14   C        27.3675   26.6677   20.4108  C     
15   C        26.9252   25.3304   20.4442  C     
16   C        27.5629   24.3571   19.6529  C     
17   C        28.6440   24.6919   18.8099  C     
18   C        29.0981   26.0355   18.7975  C     
19   C        28.4675   27.0121   19.5966  C     
20   N        29.2106   23.6720   18.0885  N     
21   C        30.0960   23.6884   17.1001  C     
22   C        30.4960   22.4191   16.4971  C     
23   O        30.4902   24.7438   16.6176  O     
24   C        28.7085   27.1615   14.7581  C     
25   C        21.7387   29.2919   20.8999  C     
26   C        21.2271   30.7406   20.7978  C     
27   C        20.3980   29.5939   20.2046  C     
28   C        31.9251   22.4043   15.9044  C     
29   H        22.2544   29.1449   18.1731  H     
30   H        23.5305   28.6307   16.3454  H     
31   H        27.1956   27.7372   17.1800  H     
32   H        26.5024   27.6681   13.1614  H     
33   H        26.1401   25.0542   21.0386  H     
34   H        27.2236   23.3866   19.6969  H     
35   H        29.8942   26.3099   18.2154  H     
36   H        28.8096   27.9771   19.5696  H     
37   H        28.8958   22.7817   18.3388  H     
38   H        30.4454   21.6281   17.2554  H     
39   H        29.7744   22.1718   15.7098  H     
40   H        29.3907   27.9214   15.1321  H     
41   H        28.8591   27.0474   13.6849  H     
42   H        28.9135   26.2121   15.2458  H     
43   H        21.6223   28.8514   21.8936  H     
44   H        20.8281   31.1746   21.7172  H     
45   H        21.6969   31.3958   20.0604  H     
46   H        20.3894   29.5385   19.1100  H     
47   H        19.4960   29.3348   20.7703  H     
48   H        32.0075   23.1111   15.0806  H     
49   H        32.1470   21.4022   15.5256  H     
50   H        32.6506   22.6585   16.6729  H     
@<TRIPOS>BOND
     1    1    2 2
     2    1    6 1
     3    2    3 1
     4    2   25 1
     5    3    4 2
     6    4    5 1
     7    4    7 1
     8    5    6 2
     9    6    8 1
    10    7   14 1
    11    8    9 1
    12    9   10 1
    13    9   13 2
    14   10   11 2
    15   11   12 1
    16   11   24 1
    17   12   13 1
    18   14   15 2
    19   14   19 1
    20   15   16 1
    21   16   17 2
    22   17   18 1
    23   17   20 1
    24   18   19 2
    25   20   21 am
    26   21   22 1
    27   21   23 2
    28   22   28 1
    29   25   26 1
    30   25   27 1
    31   26   27 1
    32    1   29 1
    33    8   30 1
    34   10   31 1
    35   12   32 1
    36   15   33 1
    37   16   34 1
    38   18   35 1
    39   19   36 1
    40   20   37 1
    41   22   38 1
    42   22   39 1
    43   24   40 1
    44   24   41 1
    45   24   42 1
    46   25   43 1
    47   26   44 1
    48   26   45 1
    49   27   46 1
    50   27   47 1
    51   28   48 1
    52   28   49 1
    53   28   50 1
@<TRIPOS>PROPERTY_DATA
  Total_Score	| 8.9156
  Crash		| -1.0448
  Polar		| 3.1151
  FragIndex	| 1
  FragRMSD	| 0.365

