@<TRIPOS>MOLECULE
BindingDB_50293690
 49 52 0 0 0
SMALL
NO_CHARGES


@<TRIPOS>ATOM
1    C        20.8593   29.7373   19.6075  C     
2    C        20.9833   29.6817   21.0063  C     
3    C        22.2066   29.3085   21.5857  C     
4    C        21.9560   29.4211   18.7824  C     
5    C        23.1890   29.0124   19.3439  C     
6    C        23.2980   28.9709   20.7628  C     
7    N        24.4688   28.5988   21.3435  N     
8    C        25.5500   28.2487   20.6123  C     
9    N        25.4719   28.2786   19.2570  N     
10   C        24.3466   28.6335   18.5809  C     
11   S        26.9903   27.8273   21.4827  S     
12   N        24.3102   28.6090   17.2216  N     
13   C        25.2948   28.3255   16.3316  C     
14   C        26.6435   27.9986   16.4674  C     
15   C        27.1387   27.8435   15.1792  C     
16   N        26.1147   28.0726   14.3478  N     
17   N        25.0401   28.3541   15.0122  N     
18   C        28.5053   27.4883   14.7732  C     
19   C        27.6122   26.6047   20.4121  C     
20   C        27.0798   25.2996   20.3951  C     
21   C        27.6338   24.3232   19.5430  C     
22   C        28.7259   24.6339   18.6934  C     
23   C        29.2595   25.9451   18.7398  C     
24   C        28.7098   26.9166   19.5882  C     
25   N        29.2245   23.6009   17.9433  N     
26   C        29.9662   23.6148   16.8383  C     
27   C        30.3692   22.3637   16.2169  C     
28   O        30.2642   24.6512   16.2534  O     
29   C        31.8925   22.2939   15.9571  C     
30   H        19.9668   30.0006   19.1915  H     
31   H        20.1826   29.9099   21.6003  H     
32   H        22.2926   29.2751   22.6053  H     
33   H        21.8339   29.4849   17.7721  H     
34   H        23.4529   28.8202   16.8203  H     
35   H        27.1821   27.9033   17.3272  H     
36   H        26.1737   28.0417   13.3788  H     
37   H        29.2100   28.2316   15.1430  H     
38   H        28.5846   27.4422   13.6850  H     
39   H        28.7595   26.5127   15.1845  H     
40   H        26.2969   25.0447   21.0023  H     
41   H        27.2305   23.3800   19.5492  H     
42   H        30.0742   26.2052   18.1885  H     
43   H        29.1337   27.8521   19.6091  H     
44   H        28.9627   22.7193   18.2479  H     
45   H        30.0960   21.5103   16.8472  H     
46   H        29.8349   22.2575   15.2673  H     
47   H        32.2038   23.1057   15.2978  H     
48   H        32.1361   21.3464   15.4738  H     
49   H        32.4451   22.3615   16.8949  H     
@<TRIPOS>BOND
     1    1    2 2
     2    1    4 1
     3    2    3 1
     4    3    6 2
     5    4    5 2
     6    5    6 1
     7    5   10 1
     8    6    7 1
     9    7    8 2
    10    8    9 1
    11    8   11 1
    12    9   10 2
    13   10   12 1
    14   11   19 1
    15   12   13 1
    16   13   14 1
    17   13   17 2
    18   14   15 2
    19   15   16 1
    20   15   18 1
    21   16   17 1
    22   19   20 2
    23   19   24 1
    24   20   21 1
    25   21   22 2
    26   22   23 1
    27   22   25 1
    28   23   24 2
    29   25   26 am
    30   26   27 1
    31   26   28 2
    32   27   29 1
    33    1   30 1
    34    2   31 1
    35    3   32 1
    36    4   33 1
    37   12   34 1
    38   14   35 1
    39   16   36 1
    40   18   37 1
    41   18   38 1
    42   18   39 1
    43   20   40 1
    44   21   41 1
    45   23   42 1
    46   24   43 1
    47   25   44 1
    48   27   45 1
    49   27   46 1
    50   29   47 1
    51   29   48 1
    52   29   49 1
@<TRIPOS>PROPERTY_DATA
  Total_Score	| 8.0169
  Crash		| -1.8199
  Polar		| 2.9672
  FragIndex	| 1
  FragRMSD	| 0.606

