@<TRIPOS>MOLECULE
BindingDB_50277637
 56 59 0 0 0
SMALL
NO_CHARGES


@<TRIPOS>ATOM
1    C        23.0096   28.8646   18.7398  C     
2    C        22.8614   28.9117   20.1539  C     
3    N        23.9668   28.5512   20.8674  N     
4    C        25.1463   28.1601   20.3263  C     
5    N        25.2595   28.1226   18.9780  N     
6    C        24.2254   28.4517   18.1579  C     
7    S        26.4568   27.8010   21.4099  S     
8    C        27.2848   26.6311   20.4176  C     
9    C        28.4129   27.0046   19.6570  C     
10   C        29.0944   26.0548   18.8741  C     
11   C        28.6586   24.7080   18.8143  C     
12   C        27.5356   24.3411   19.5970  C     
13   C        26.8537   25.2886   20.3873  C     
14   N        29.2570   23.6860   18.1188  N     
15   C        30.1682   23.6919   17.1478  C     
16   C        30.5609   22.4193   16.5575  C     
17   O        30.5319   24.7218   16.6021  O     
18   C        31.9964   22.3793   15.9752  C     
19   N        21.7134   29.2738   20.8379  N     
20   C        20.4491   29.6387   20.2108  C     
21   C        19.9951   31.0343   20.7058  C     
22   O        19.9485   31.0793   22.1465  O     
23   C        21.1964   30.7153   22.7696  C     
24   C        21.6617   29.3129   22.2966  C     
25   N        24.3016   28.4031   16.8056  N     
26   C        25.3369   28.0688   16.0008  C     
27   C        26.6445   27.6759   16.2598  C     
28   C        27.2465   27.4845   15.0210  C     
29   N        26.3128   27.7612   14.1006  N     
30   N        25.1993   28.1002   14.6620  N     
31   C        28.6199   27.0549   14.7396  C     
32   H        22.2474   29.1197   18.1130  H     
33   H        28.7485   27.9764   19.6786  H     
34   H        29.9262   26.3705   18.3780  H     
35   H        27.2049   23.3699   19.6112  H     
36   H        26.0480   24.9926   20.9441  H     
37   H        28.9369   22.8077   18.3671  H     
38   H        30.4906   21.6286   17.3100  H     
39   H        29.8576   22.1854   15.7556  H     
40   H        32.0842   23.0526   15.1196  H     
41   H        32.2222   21.3653   15.6334  H     
42   H        32.7341   22.6606   16.7291  H     
43   H        20.4589   29.6625   19.1284  H     
44   H        19.6939   28.9022   20.4938  H     
45   H        20.6731   31.8063   20.3271  H     
46   H        18.9943   31.2467   20.3255  H     
47   H        21.9615   31.4649   22.5409  H     
48   H        21.0491   30.7073   23.8518  H     
49   H        20.9406   28.5687   22.6497  H     
50   H        22.6096   29.0975   22.7968  H     
51   H        23.4842   28.6410   16.3411  H     
52   H        27.0890   27.5594   17.1683  H     
53   H        26.4574   27.7272   13.1407  H     
54   H        29.3282   27.7426   15.2015  H     
55   H        28.8004   27.0351   13.6623  H     
56   H        28.7710   26.0527   15.1389  H     
@<TRIPOS>BOND
     1    1    2 2
     2    1    6 1
     3    2    3 1
     4    2   19 1
     5    3    4 2
     6    4    5 1
     7    4    7 1
     8    5    6 2
     9    6   25 1
    10    7    8 1
    11    8    9 2
    12    8   13 1
    13    9   10 1
    14   10   11 2
    15   11   12 1
    16   11   14 1
    17   12   13 2
    18   14   15 am
    19   15   16 1
    20   15   17 2
    21   16   18 1
    22   19   20 1
    23   19   24 1
    24   20   21 1
    25   21   22 1
    26   22   23 1
    27   23   24 1
    28   25   26 1
    29   26   27 1
    30   26   30 2
    31   27   28 2
    32   28   29 1
    33   28   31 1
    34   29   30 1
    35    1   32 1
    36    9   33 1
    37   10   34 1
    38   12   35 1
    39   13   36 1
    40   14   37 1
    41   16   38 1
    42   16   39 1
    43   18   40 1
    44   18   41 1
    45   18   42 1
    46   20   43 1
    47   20   44 1
    48   21   45 1
    49   21   46 1
    50   23   47 1
    51   23   48 1
    52   24   49 1
    53   24   50 1
    54   25   51 1
    55   27   52 1
    56   29   53 1
    57   31   54 1
    58   31   55 1
    59   31   56 1
@<TRIPOS>PROPERTY_DATA
  Total_Score	| 9.3084
  Crash		| -0.8286
  Polar		| 3.0570
  FragIndex	| 1
  FragRMSD	| 0.536

