@<TRIPOS>MOLECULE
BindingDB_50293696
 55 57 0 0 0
SMALL
NO_CHARGES


@<TRIPOS>ATOM
1    C        23.1010   29.1040   18.7734  C     
2    C        23.0207   29.3055   20.1709  C     
3    N        24.0840   28.8912   20.9149  N     
4    C        25.1869   28.3096   20.4012  C     
5    N        25.2735   28.1562   19.0537  N     
6    C        24.2679   28.5256   18.2157  C     
7    S        26.4496   27.8649   21.5086  S     
8    N        24.3222   28.4224   16.8651  N     
9    C        25.3441   28.0220   16.0730  C     
10   C        26.6219   27.5496   16.3543  C     
11   C        27.2296   27.3452   15.1233  C     
12   N        26.3311   27.6837   14.1870  N     
13   N        25.2265   28.0783   14.7345  N     
14   C        27.3262   26.7479   20.5071  C     
15   C        28.4524   27.1948   19.7949  C     
16   C        29.1722   26.3035   18.9814  C     
17   C        28.7696   24.9494   18.8527  C     
18   C        27.6486   24.5134   19.5973  C     
19   C        26.9303   25.3997   20.4142  C     
20   N        29.4029   24.0070   18.0856  N     
21   C        30.2652   24.1392   17.0837  C     
22   C        30.7891   22.9453   16.4480  C     
23   O        30.6142   25.2350   16.6360  O     
24   C        28.5884   26.8326   14.8762  C     
25   C        21.8941   29.9981   20.9017  C     
26   C        22.4249   31.3839   21.3984  C     
27   C        20.6295   30.2550   20.0276  C     
28   C        21.4682   29.1316   22.1337  C     
29   C        29.8058   22.3803   15.3973  C     
30   H        22.3481   29.3962   18.1532  H     
31   H        23.5274   28.7088   16.3883  H     
32   H        27.0528   27.4075   17.2711  H     
33   H        26.4973   27.6521   13.2292  H     
34   H        28.7513   28.1679   19.8628  H     
35   H        29.9940   26.6607   18.5013  H     
36   H        27.3391   23.5362   19.5373  H     
37   H        26.1136   25.0596   20.9315  H     
38   H        29.1653   23.0866   18.2999  H     
39   H        31.7409   23.1649   15.9507  H     
40   H        30.9944   22.1857   17.2125  H     
41   H        29.3160   27.4928   15.3537  H     
42   H        28.7901   26.7911   13.8035  H     
43   H        28.6830   25.8162   15.2928  H     
44   H        23.3066   31.2727   22.0365  H     
45   H        21.6610   31.9130   21.9763  H     
46   H        22.7030   32.0148   20.5464  H     
47   H        20.8529   30.9108   19.1914  H     
48   H        19.8320   30.7374   20.6173  H     
49   H        20.2205   29.3242   19.6441  H     
50   H        21.0837   28.1610   21.8040  H     
51   H        20.6879   29.6288   22.7145  H     
52   H        22.3134   28.9477   22.8051  H     
53   H        28.8354   22.1576   15.8467  H     
54   H        30.2104   21.4605   14.9799  H     
55   H        29.6641   23.0988   14.5894  H     
@<TRIPOS>BOND
     1    1    2 2
     2    1    6 1
     3    2    3 1
     4    2   25 1
     5    3    4 2
     6    4    5 1
     7    4    7 1
     8    5    6 2
     9    6    8 1
    10    7   14 1
    11    8    9 1
    12    9   10 1
    13    9   13 2
    14   10   11 2
    15   11   12 1
    16   11   24 1
    17   12   13 1
    18   14   15 2
    19   14   19 1
    20   15   16 1
    21   16   17 2
    22   17   18 1
    23   17   20 1
    24   18   19 2
    25   20   21 am
    26   21   22 1
    27   21   23 2
    28   22   29 1
    29   25   26 1
    30   25   27 1
    31   25   28 1
    32    1   30 1
    33    8   31 1
    34   10   32 1
    35   12   33 1
    36   15   34 1
    37   16   35 1
    38   18   36 1
    39   19   37 1
    40   20   38 1
    41   22   39 1
    42   22   40 1
    43   24   41 1
    44   24   42 1
    45   24   43 1
    46   26   44 1
    47   26   45 1
    48   26   46 1
    49   27   47 1
    50   27   48 1
    51   27   49 1
    52   28   50 1
    53   28   51 1
    54   28   52 1
    55   29   53 1
    56   29   54 1
    57   29   55 1
@<TRIPOS>PROPERTY_DATA
  Total_Score	| 8.3097
  Crash		| -1.0747
  Polar		| 3.0557
  FragIndex	| 1
  FragRMSD	| 0.466

