@<TRIPOS>MOLECULE
BindingDB_13534
 62 66 0 0 0
SMALL
NO_CHARGES


@<TRIPOS>ATOM
1    C        21.2160   29.2014   22.4560  C     
2    C        20.7091   30.5967   22.9115  C     
3    C        19.6113   30.8858   20.7144  C     
4    C        20.1379   29.4878   20.2929  C     
5    N        19.4669   31.0298   22.1966  N     
6    C        18.2185   30.4333   22.7547  C     
7    N        21.3729   29.1767   21.0034  N     
8    C        22.5844   28.8838   20.4012  C     
9    C        24.1289   28.5429   18.5188  C     
10   C        22.8423   28.8744   19.0012  C     
11   N        23.6472   28.5546   21.1961  N     
12   N        25.0955   28.2453   19.4195  N     
13   C        24.8861   28.2330   20.7543  C     
14   N        24.3813   28.4915   17.1873  N     
15   C        25.5888   28.2567   16.6027  C     
16   C        27.1784   27.9344   15.0865  C     
17   C        25.8110   28.1119   15.2443  C     
18   N        26.8029   28.1561   17.1793  N     
19   N        27.7429   27.9683   16.3057  N     
20   C        27.8713   27.7323   13.8135  C     
21   S        26.1369   27.8244   21.8943  S     
22   C        27.0267   26.6876   20.9156  C     
23   C        28.7927   26.2133   19.2998  C     
24   C        28.1186   27.1193   20.1413  C     
25   C        26.6398   25.3345   20.8670  C     
26   C        27.3192   24.4292   20.0288  C     
27   C        28.3919   24.8535   19.2125  C     
28   N        28.9892   23.8803   18.4453  N     
29   C        30.0335   23.9296   17.6260  C     
30   O        30.6615   24.9515   17.3916  O     
31   C        30.5175   22.6943   17.0443  C     
32   C        30.1216   22.4202   15.5788  C     
33   C        31.5829   22.7130   15.9332  C     
34   H        22.1289   28.9916   23.0179  H     
35   H        20.4965   28.4348   22.7519  H     
36   H        20.5537   30.5939   23.9941  H     
37   H        21.4918   31.3320   22.7047  H     
38   H        20.3213   31.6428   20.3615  H     
39   H        18.6622   31.0882   20.2110  H     
40   H        19.3855   28.7325   20.5408  H     
41   H        20.2137   29.4877   19.2111  H     
42   H        19.3811   32.0353   22.3696  H     
43   H        17.3426   30.8369   22.2434  H     
44   H        18.1261   30.6924   23.8119  H     
45   H        18.2050   29.3450   22.6639  H     
46   H        22.1227   29.0996   18.3214  H     
47   H        23.6261   28.6284   16.5963  H     
48   H        25.1138   28.1313   14.5029  H     
49   H        26.9613   28.2312   18.1313  H     
50   H        27.4822   26.8260   13.3487  H     
51   H        28.9483   27.6225   13.9650  H     
52   H        27.6886   28.5835   13.1551  H     
53   H        29.5862   26.5705   18.7715  H     
54   H        28.4223   28.0991   20.1709  H     
55   H        25.8500   25.0034   21.4261  H     
56   H        27.0121   23.4512   20.0156  H     
57   H        28.5649   23.0075   18.5070  H     
58   H        30.4892   21.7970   17.6692  H     
59   H        29.9318   21.3812   15.2984  H     
60   H        29.6439   23.2182   15.0058  H     
61   H        31.9508   23.6913   15.6162  H     
62   H        32.2545   21.8529   15.8898  H     
@<TRIPOS>BOND
     1    1    2 1
     2    1    7 1
     3    2    5 1
     4    3    4 1
     5    3    5 1
     6    4    7 1
     7    5    6 1
     8    7    8 1
     9    8   10 2
    10    8   11 1
    11    9   10 1
    12    9   12 2
    13    9   14 1
    14   11   13 2
    15   12   13 1
    16   13   21 1
    17   14   15 1
    18   15   17 2
    19   15   18 1
    20   16   17 1
    21   16   19 2
    22   16   20 1
    23   18   19 1
    24   21   22 1
    25   22   24 1
    26   22   25 2
    27   23   24 2
    28   23   27 1
    29   25   26 1
    30   26   27 2
    31   27   28 1
    32   28   29 am
    33   29   30 2
    34   29   31 1
    35   31   32 1
    36   31   33 1
    37   32   33 1
    38    1   34 1
    39    1   35 1
    40    2   36 1
    41    2   37 1
    42    3   38 1
    43    3   39 1
    44    4   40 1
    45    4   41 1
    46    5   42 1
    47    6   43 1
    48    6   44 1
    49    6   45 1
    50   10   46 1
    51   14   47 1
    52   17   48 1
    53   18   49 1
    54   20   50 1
    55   20   51 1
    56   20   52 1
    57   23   53 1
    58   24   54 1
    59   25   55 1
    60   26   56 1
    61   28   57 1
    62   31   58 1
    63   32   59 1
    64   32   60 1
    65   33   61 1
    66   33   62 1
@<TRIPOS>PROPERTY_DATA
  Total_Score	| 6.2340
  Crash		| -2.8756
  Polar		| 0.8955
  FragIndex	| 1
  FragRMSD	| 0.719

