@<TRIPOS>MOLECULE
BindingDB_5593
 49 51 0 0 0
SMALL
NO_CHARGES


@<TRIPOS>ATOM
1    C         7.1723   45.3346   51.7883  C     
2    C         7.9086   43.7403   50.1783  C     
3    C         9.4785   45.2888   51.0690  C     
4    C         8.4708   45.8882   51.8674  C     
5    N         6.9450   44.2754   50.9672  N     
6    N         9.1549   44.2642   50.2343  N     
7    N         7.6600   42.7411   49.3004  N     
8    C         6.4572   42.1252   49.1235  C     
9    C         5.6404   41.7273   50.2022  C     
10   C         4.4554   41.0107   49.9748  C     
11   C         4.0365   40.7197   48.6562  C     
12   C         4.8597   41.1163   47.5768  C     
13   C         6.0624   41.8018   47.8107  C     
14   O         6.1744   45.8500   52.5961  O     
15   C         4.8583   46.0231   52.0182  C     
16   C         4.0114   46.9357   52.9590  C     
17   C         2.5204   47.0475   52.5090  C     
18   C         1.6467   45.8230   52.9027  C     
19   C         1.7686   45.4745   54.4098  C     
20   C         3.2499   45.2963   54.8391  C     
21   C         4.0939   46.5458   54.4752  C     
22   N        10.7520   45.7195   51.0672  N     
23   N         8.6501   46.9475   52.6923  N     
24   O         9.5746   47.7166   52.7216  O     
25   C         1.8001   39.6173   49.8574  C     
26   S         2.6226   39.7588   48.2563  S     
27   H         8.3635   42.5046   48.6847  H     
28   H         5.9213   41.8953   51.1636  H     
29   H         3.9248   40.6327   50.7645  H     
30   H         4.6020   40.9161   46.6075  H     
31   H         6.6653   42.0803   47.0308  H     
32   H         4.9393   46.5068   51.0460  H     
33   H         4.3725   45.0542   51.8962  H     
34   H         4.4454   47.9368   52.8741  H     
35   H         2.0790   47.9473   52.9622  H     
36   H         2.4711   47.1851   51.4197  H     
37   H         0.6008   46.0477   52.6780  H     
38   H         1.9465   44.9629   52.3044  H     
39   H         1.3143   46.2746   55.0066  H     
40   H         1.2271   44.5491   54.6062  H     
41   H         3.2931   45.1326   55.9204  H     
42   H         3.6710   44.4094   54.3470  H     
43   H         5.1379   46.3673   54.7656  H     
44   H         3.7337   47.3893   55.0776  H     
45   H        11.4194   45.2802   50.5044  H     
46   H        11.0169   46.4681   51.6294  H     
47   H         2.4625   39.1149   50.5683  H     
48   H         0.8926   39.0073   49.7359  H     
49   H         1.5237   40.5958   50.2542  H     
@<TRIPOS>BOND
     1    1    4 1
     2    1    5 2
     3    1   14 1
     4    2    5 1
     5    2    6 2
     6    2    7 1
     7    3    4 2
     8    3    6 1
     9    3   22 1
    10    4   23 1
    11    7    8 1
    12    8    9 2
    13    8   13 1
    14    9   10 1
    15   10   11 2
    16   11   12 1
    17   11   26 1
    18   12   13 2
    19   14   15 1
    20   15   16 1
    21   16   17 1
    22   16   21 1
    23   17   18 1
    24   18   19 1
    25   19   20 1
    26   20   21 1
    27   23   24 2
    28   25   26 1
    29    7   27 1
    30    9   28 1
    31   10   29 1
    32   12   30 1
    33   13   31 1
    34   15   32 1
    35   15   33 1
    36   16   34 1
    37   17   35 1
    38   17   36 1
    39   18   37 1
    40   18   38 1
    41   19   39 1
    42   19   40 1
    43   20   41 1
    44   20   42 1
    45   21   43 1
    46   21   44 1
    47   22   45 1
    48   22   46 1
    49   25   47 1
    50   25   48 1
    51   25   49 1
@<TRIPOS>PROPERTY_DATA
  Total_Score	| 8.4257
  Crash		| -0.8867
  Polar		| 2.7836
  FragIndex	| 1
  FragRMSD	| 0.453

