@<TRIPOS>MOLECULE
BindingDB_5592
 49 51 0 0 0
SMALL
NO_CHARGES


@<TRIPOS>ATOM
1    C         7.3712   45.5533   51.6790  C     
2    C         8.1194   43.8736   50.1464  C     
3    C         9.7191   45.3139   51.1412  C     
4    C         8.6995   46.0011   51.8539  C     
5    N         7.1438   44.5131   50.8472  N     
6    N         9.3996   44.2894   50.3022  N     
7    N         7.8112   42.8586   49.3098  N     
8    C         6.5657   42.3125   49.1450  C     
9    C         5.7587   41.9130   50.2384  C     
10   C         4.4753   41.3729   50.0211  C     
11   C         3.9944   41.2054   48.7061  C     
12   C         4.7864   41.6145   47.6192  C     
13   C         6.0680   42.1554   47.8379  C     
14   O         6.3247   46.1181   52.3769  O     
15   C         4.9966   45.9303   51.8396  C     
16   C         3.8848   46.3011   52.8695  C     
17   C         2.4636   46.0988   52.2499  C     
18   C         1.3146   46.3872   53.2542  C     
19   C         1.4691   45.5700   54.5604  C     
20   C         2.8650   45.7769   55.1983  C     
21   C         4.0119   45.4799   54.1926  C     
22   N        11.0213   45.6135   51.2744  N     
23   N         8.8949   47.0502   52.6862  N     
24   O         9.8805   47.7279   52.8111  O     
25   O         2.7310   40.7234   48.4798  O     
26   C         2.6190   39.3038   48.6690  C     
27   H         8.5197   42.5243   48.7341  H     
28   H         6.0886   42.0071   51.1992  H     
29   H         3.8934   41.1079   50.8180  H     
30   H         4.4254   41.5401   46.6671  H     
31   H         6.6175   42.4734   47.0411  H     
32   H         4.8903   46.5578   50.9471  H     
33   H         4.8438   44.8886   51.5467  H     
34   H         4.0107   47.3633   53.1103  H     
35   H         2.3485   46.7608   51.3893  H     
36   H         2.3549   45.0689   51.8925  H     
37   H         1.3056   47.4523   53.4924  H     
38   H         0.3568   46.1379   52.7911  H     
39   H         0.6940   45.8738   55.2711  H     
40   H         1.3259   44.5091   54.3420  H     
41   H         2.9495   46.8064   55.5561  H     
42   H         2.9626   45.1142   56.0624  H     
43   H         4.0089   44.4074   53.9682  H     
44   H         4.9635   45.7120   54.6757  H     
45   H        11.6937   45.0904   50.8154  H     
46   H        11.2986   46.3171   51.8799  H     
47   H         3.2797   38.7537   47.9935  H     
48   H         1.5894   39.0267   48.4492  H     
49   H         2.8355   39.0170   49.7004  H     
@<TRIPOS>BOND
     1    1    4 1
     2    1    5 2
     3    1   14 1
     4    2    5 1
     5    2    6 2
     6    2    7 1
     7    3    4 2
     8    3    6 1
     9    3   22 1
    10    4   23 1
    11    7    8 1
    12    8    9 2
    13    8   13 1
    14    9   10 1
    15   10   11 2
    16   11   12 1
    17   11   25 1
    18   12   13 2
    19   14   15 1
    20   15   16 1
    21   16   17 1
    22   16   21 1
    23   17   18 1
    24   18   19 1
    25   19   20 1
    26   20   21 1
    27   23   24 2
    28   25   26 1
    29    7   27 1
    30    9   28 1
    31   10   29 1
    32   12   30 1
    33   13   31 1
    34   15   32 1
    35   15   33 1
    36   16   34 1
    37   17   35 1
    38   17   36 1
    39   18   37 1
    40   18   38 1
    41   19   39 1
    42   19   40 1
    43   20   41 1
    44   20   42 1
    45   21   43 1
    46   21   44 1
    47   22   45 1
    48   22   46 1
    49   26   47 1
    50   26   48 1
    51   26   49 1
@<TRIPOS>PROPERTY_DATA
  Total_Score	| 8.2846
  Crash		| -0.9371
  Polar		| 2.5175
  FragIndex	| 1
  FragRMSD	| 0.300

