@<TRIPOS>MOLECULE
BindingDB_5594
 49 51 0 0 0
SMALL
NO_CHARGES


@<TRIPOS>ATOM
1    C         7.2218   45.4457   51.7763  C     
2    C         7.8742   43.8123   50.1440  C     
3    C         9.5218   45.2739   51.0494  C     
4    C         8.5543   45.9083   51.8719  C     
5    N         6.9449   44.4233   50.9252  N     
6    N         9.1518   44.2630   50.2181  N     
7    N         7.5909   42.7992   49.2938  N     
8    C         6.4151   42.1308   49.0862  C     
9    C         5.3931   41.9702   50.0534  C     
10   C         4.2293   41.2382   49.7600  C     
11   C         4.0549   40.6000   48.5051  C     
12   C         5.0990   40.7400   47.5527  C     
13   C         6.2549   41.4875   47.8374  C     
14   O         6.2470   46.0236   52.5633  O     
15   C         4.8855   46.0724   52.0892  C     
16   C         4.0198   46.9414   53.0538  C     
17   C         2.5229   47.0482   52.6112  C     
18   C         1.6987   45.7690   52.9099  C     
19   C         1.8237   45.3428   54.3996  C     
20   C         3.3036   45.1810   54.8270  C     
21   C         4.1128   46.4729   54.5433  C     
22   N        10.8214   45.6218   51.0426  N     
23   N         8.7965   46.9334   52.7159  N     
24   O         9.7523   47.6628   52.7307  O     
25   C         2.9094   39.8465   48.2217  C     
26   O         2.7913   39.2130   47.1791  O     
27   N         1.8738   39.7651   49.0336  N     
28   H         8.3241   42.5158   48.7293  H     
29   H         5.4953   42.3539   50.9953  H     
30   H         3.5247   41.1548   50.5009  H     
31   H         5.0277   40.2963   46.6325  H     
32   H         6.9827   41.5593   47.1216  H     
33   H         4.8797   46.5268   51.0955  H     
34   H         4.4763   45.0595   52.0266  H     
35   H         4.4339   47.9518   53.0071  H     
36   H         2.0570   47.8845   53.1420  H     
37   H         2.4629   47.2707   51.5407  H     
38   H         0.6435   45.9531   52.6828  H     
39   H         2.0409   44.9486   52.2659  H     
40   H         1.3478   46.1016   55.0319  H     
41   H         1.2997   44.3965   54.5508  H     
42   H         3.3451   44.9610   55.8979  H     
43   H         3.7533   44.3356   54.3008  H     
44   H         5.1559   46.3174   54.8322  H     
45   H         3.7206   47.2706   55.1839  H     
46   H        11.4471   45.1612   50.4635  H     
47   H        11.1438   46.3381   51.6086  H     
48   H         1.0991   39.2393   48.7815  H     
49   H         1.8647   40.2555   49.8700  H     
@<TRIPOS>BOND
     1    1    4 1
     2    1    5 2
     3    1   14 1
     4    2    5 1
     5    2    6 2
     6    2    7 1
     7    3    4 2
     8    3    6 1
     9    3   22 1
    10    4   23 1
    11    7    8 1
    12    8    9 2
    13    8   13 1
    14    9   10 1
    15   10   11 2
    16   11   12 1
    17   11   25 1
    18   12   13 2
    19   14   15 1
    20   15   16 1
    21   16   17 1
    22   16   21 1
    23   17   18 1
    24   18   19 1
    25   19   20 1
    26   20   21 1
    27   23   24 2
    28   25   26 2
    29   25   27 am
    30    7   28 1
    31    9   29 1
    32   10   30 1
    33   12   31 1
    34   13   32 1
    35   15   33 1
    36   15   34 1
    37   16   35 1
    38   17   36 1
    39   17   37 1
    40   18   38 1
    41   18   39 1
    42   19   40 1
    43   19   41 1
    44   20   42 1
    45   20   43 1
    46   21   44 1
    47   21   45 1
    48   22   46 1
    49   22   47 1
    50   27   48 1
    51   27   49 1
@<TRIPOS>PROPERTY_DATA
  Total_Score	| 8.3777
  Crash		| -0.4686
  Polar		| 3.6266
  FragIndex	| 1
  FragRMSD	| 0.440

