@<TRIPOS>MOLECULE
BindingDB_5591
 45 47 0 0 0
SMALL
NO_CHARGES


@<TRIPOS>ATOM
1    C         7.2005   45.4817   51.7819  C     
2    C         7.8965   43.8475   50.1951  C     
3    C         9.5127   45.3405   51.0937  C     
4    C         8.5214   45.9768   51.8866  C     
5    N         6.9376   44.4403   50.9532  N     
6    N         9.1672   44.3186   50.2734  N     
7    N         7.6406   42.8286   49.3415  N     
8    C         6.4491   42.1907   49.1565  C     
9    C         6.0725   41.8608   47.8348  C     
10   C         4.8644   41.1799   47.5827  C     
11   C         4.0369   40.7940   48.6536  C     
12   C         4.4217   41.0768   49.9767  C     
13   C         5.6199   41.7771   50.2252  C     
14   O         6.2172   46.0265   52.5663  O     
15   C         4.9265   46.3324   51.9988  C     
16   C         3.8218   45.2658   52.3016  C     
17   C         4.0111   44.4926   53.6444  C     
18   C         3.7042   45.3663   54.8888  C     
19   C         2.2672   45.9392   54.8237  C     
20   C         2.0108   46.7152   53.5054  C     
21   C         2.3839   45.8779   52.2470  C     
22   N        10.8103   45.6864   51.1411  N     
23   N         8.7404   47.0092   52.7347  N     
24   O         9.7680   47.6003   52.9326  O     
25   Br        4.3781   40.8035   45.8235  Br    
26   H         8.3638   42.5603   48.7580  H     
27   H         6.6677   42.1436   47.0496  H     
28   H         3.1632   40.2981   48.4631  H     
29   H         3.8317   40.7686   50.7454  H     
30   H         5.8856   41.9558   51.1920  H     
31   H         4.6390   47.2834   52.4477  H     
32   H         4.9848   46.5071   50.9196  H     
33   H         3.8897   44.5204   51.5030  H     
34   H         3.3336   43.6319   53.6544  H     
35   H         5.0241   44.0915   53.7173  H     
36   H         3.8120   44.7582   55.7917  H     
37   H         4.4265   46.1843   54.9485  H     
38   H         1.5478   45.1190   54.9058  H     
39   H         2.1101   46.6059   55.6736  H     
40   H         0.9537   46.9909   53.4526  H     
41   H         2.5858   47.6435   53.5199  H     
42   H         2.2800   46.5097   51.3621  H     
43   H         1.6568   45.0649   52.1500  H     
44   H        11.4596   45.2114   50.6032  H     
45   H        11.1125   46.4042   51.7179  H     
@<TRIPOS>BOND
     1    1    4 1
     2    1    5 2
     3    1   14 1
     4    2    5 1
     5    2    6 2
     6    2    7 1
     7    3    4 2
     8    3    6 1
     9    3   22 1
    10    4   23 1
    11    7    8 1
    12    8    9 2
    13    8   13 1
    14    9   10 1
    15   10   11 2
    16   10   25 1
    17   11   12 1
    18   12   13 2
    19   14   15 1
    20   15   16 1
    21   16   17 1
    22   16   21 1
    23   17   18 1
    24   18   19 1
    25   19   20 1
    26   20   21 1
    27   23   24 2
    28    7   26 1
    29    9   27 1
    30   11   28 1
    31   12   29 1
    32   13   30 1
    33   15   31 1
    34   15   32 1
    35   16   33 1
    36   17   34 1
    37   17   35 1
    38   18   36 1
    39   18   37 1
    40   19   38 1
    41   19   39 1
    42   20   40 1
    43   20   41 1
    44   21   42 1
    45   21   43 1
    46   22   44 1
    47   22   45 1
@<TRIPOS>PROPERTY_DATA
  Total_Score	| 7.2741
  Crash		| -0.5192
  Polar		| 2.3269
  FragIndex	| 1
  FragRMSD	| 0.500

