@<TRIPOS>MOLECULE
BindingDB_50306555
 33 34 0 0 0
SMALL
NO_CHARGES


@<TRIPOS>ATOM
1    N        33.8082   23.2709   28.8448  N     
2    C        33.3197   22.3224   27.9195  C     
3    C        33.1088   22.9538   26.5099  C     
4    O        32.2813   24.1156   26.5918  O     
5    C        32.4811   21.9291   25.5161  C     
6    O        33.4901   21.0620   24.9934  O     
7    C        31.2835   21.1113   26.1082  C     
8    O        30.0761   21.8654   25.9453  O     
9    C        31.4487   20.7080   27.6164  C     
10   O        32.0835   21.7450   28.4114  O     
11   C        32.0826   19.2991   27.8430  C     
12   O        33.2064   19.0607   26.9938  O     
13   N        33.1811   23.6577   29.8454  N     
14   N        33.9105   24.2512   30.6353  N     
15   C        35.0964   24.2665   30.1716  C     
16   C        35.0315   23.6321   29.0024  C     
17   C        36.2652   24.7426   30.8755  C     
18   O        35.9215   25.7506   31.8152  O     
19   H        34.0531   21.5176   27.8191  H     
20   H        34.0823   23.2809   26.1267  H     
21   H        32.3277   24.5356   25.6978  H     
22   H        32.1173   22.4824   24.6419  H     
23   H        33.8540   20.5685   25.7640  H     
24   H        31.1400   20.2050   25.5105  H     
25   H        30.1891   22.6752   26.4869  H     
26   H        30.4311   20.6345   28.0319  H     
27   H        32.3882   19.1987   28.8841  H     
28   H        31.3186   18.5450   27.6393  H     
29   H        32.9986   18.1988   26.5478  H     
30   H        35.7985   23.4231   28.4072  H     
31   H        36.7186   23.9134   31.4278  H     
32   H        37.0120   25.1453   30.1817  H     
33   H        36.2724   25.4226   32.6720  H     
@<TRIPOS>BOND
     1    2    1 1
     2    1   13 1
     3    1   16 1
     4    2    3 1
     5    2   10 1
     6    3    4 1
     7    3    5 1
     8    5    6 1
     9    5    7 1
    10    7    8 1
    11    7    9 1
    12    9   10 1
    13    9   11 1
    14   11   12 1
    15   13   14 2
    16   14   15 1
    17   15   16 2
    18   15   17 1
    19   17   18 1
    20    2   19 1
    21    3   20 1
    22    4   21 1
    23    5   22 1
    24    6   23 1
    25    7   24 1
    26    8   25 1
    27    9   26 1
    28   11   27 1
    29   11   28 1
    30   12   29 1
    31   16   30 1
    32   17   31 1
    33   17   32 1
    34   18   33 1
@<TRIPOS>PROPERTY_DATA
  Total_Score	| 6.8030
  Crash		| -0.5969
  Polar		| 4.7167
  FragIndex	| 1
  FragRMSD	| 0.924

