@<TRIPOS>MOLECULE
BindingDB_50306549
 39 41 0 0 0
SMALL
NO_CHARGES


@<TRIPOS>ATOM
1    N        33.6498   23.4800   29.1779  N     
2    C        32.8753   22.8490   28.1804  C     
3    C        33.3724   23.0807   26.7198  C     
4    O        33.3755   24.4842   26.4335  O     
5    C        32.4747   22.2795   25.7213  C     
6    O        33.0187   22.3295   24.4000  O     
7    C        32.3729   20.7809   26.1503  C     
8    O        31.4994   20.1051   25.2452  O     
9    C        31.9296   20.6676   27.6464  C     
10   O        32.8089   21.4396   28.4946  O     
11   C        31.9021   19.2179   28.1831  C     
12   O        30.7984   18.4743   27.6670  O     
13   N        33.1763   23.8606   30.2580  N     
14   N        34.0583   24.2124   31.0328  N     
15   C        35.2100   24.0335   30.4920  C     
16   C        34.9269   23.5404   29.2797  C     
17   C        36.4379   24.3036   31.1131  C     
18   C        36.4909   24.7911   32.4475  C     
19   C        37.7112   25.0293   33.1056  C     
20   C        38.9246   24.8153   32.4321  C     
21   C        38.9149   24.3416   31.1110  C     
22   C        37.6839   24.1064   30.4545  C     
23   H        31.8604   23.2494   28.2290  H     
24   H        34.4089   22.7320   26.6238  H     
25   H        33.0611   24.5746   25.5029  H     
26   H        31.4700   22.7186   25.6833  H     
27   H        32.8081   23.2122   24.0197  H     
28   H        33.3621   20.3175   26.0330  H     
29   H        31.5133   19.1485   25.5206  H     
30   H        30.9127   21.0465   27.7411  H     
31   H        32.8308   18.7086   27.9103  H     
32   H        31.8007   19.2237   29.2726  H     
33   H        30.0206   19.0602   27.7912  H     
34   H        35.5706   23.2329   28.5938  H     
35   H        35.6419   24.9582   32.9752  H     
36   H        37.7180   25.3692   34.0676  H     
37   H        39.8107   24.9920   32.9082  H     
38   H        39.8014   24.1834   30.6283  H     
39   H        37.7084   23.7614   29.4827  H     
@<TRIPOS>BOND
     1    2    1 1
     2    1   13 1
     3    1   16 1
     4    2    3 1
     5    2   10 1
     6    3    4 1
     7    3    5 1
     8    5    6 1
     9    5    7 1
    10    7    8 1
    11    7    9 1
    12    9   10 1
    13    9   11 1
    14   11   12 1
    15   13   14 2
    16   14   15 1
    17   15   16 2
    18   15   17 1
    19   17   18 2
    20   17   22 1
    21   18   19 1
    22   19   20 2
    23   20   21 1
    24   21   22 2
    25    2   23 1
    26    3   24 1
    27    4   25 1
    28    5   26 1
    29    6   27 1
    30    7   28 1
    31    8   29 1
    32    9   30 1
    33   11   31 1
    34   11   32 1
    35   12   33 1
    36   16   34 1
    37   18   35 1
    38   19   36 1
    39   20   37 1
    40   21   38 1
    41   22   39 1
@<TRIPOS>PROPERTY_DATA
  Total_Score	| 12.3377
  Crash		| -0.6822
  Polar		| 8.2786
  FragIndex	| 1
  FragRMSD	| 0.477

