@<TRIPOS>MOLECULE
BindingDB_50306548
 33 34 0 0 0
SMALL
NO_CHARGES


@<TRIPOS>ATOM
1    N        33.5877   23.3946   29.2041  N     
2    C        32.8319   22.7997   28.1742  C     
3    C        33.3306   23.0570   26.7148  C     
4    O        33.3151   24.4687   26.4690  O     
5    C        32.4671   22.2610   25.6830  C     
6    O        33.0493   22.3209   24.3826  O     
7    C        32.3470   20.7680   26.0990  C     
8    O        31.4708   20.0911   25.1906  O     
9    C        31.8463   20.6493   27.5733  C     
10   O        32.7454   21.3797   28.4435  O     
11   C        31.7280   19.1862   28.0882  C     
12   O        32.9235   18.4380   27.8975  O     
13   N        33.0798   23.8139   30.2486  N     
14   N        33.9165   24.2992   30.9960  N     
15   C        35.0632   24.1862   30.4538  C     
16   C        34.8588   23.5599   29.3010  C     
17   C        36.3011   24.7376   30.9509  C     
18   O        36.0854   25.7735   31.9119  O     
19   H        31.8157   23.2133   28.2276  H     
20   H        34.3682   22.7212   26.6213  H     
21   H        33.0137   24.5890   25.5352  H     
22   H        31.4639   22.6879   25.6210  H     
23   H        32.8503   23.2190   24.0338  H     
24   H        33.3382   20.2999   26.0277  H     
25   H        31.4905   19.1429   25.4516  H     
26   H        30.8431   21.0866   27.6485  H     
27   H        31.4812   19.1992   29.1482  H     
28   H        30.9104   18.6812   27.5647  H     
29   H        33.6366   18.9630   28.2802  H     
30   H        35.5518   23.3614   28.6146  H     
31   H        36.9115   23.9501   31.3943  H     
32   H        36.8535   25.1704   30.1158  H     
33   H        36.1909   25.3468   32.7967  H     
@<TRIPOS>BOND
     1    2    1 1
     2    1   13 1
     3    1   16 1
     4    2    3 1
     5    2   10 1
     6    3    4 1
     7    3    5 1
     8    5    6 1
     9    5    7 1
    10    7    8 1
    11    7    9 1
    12    9   10 1
    13    9   11 1
    14   11   12 1
    15   13   14 2
    16   14   15 1
    17   15   16 2
    18   15   17 1
    19   17   18 1
    20    2   19 1
    21    3   20 1
    22    4   21 1
    23    5   22 1
    24    6   23 1
    25    7   24 1
    26    8   25 1
    27    9   26 1
    28   11   27 1
    29   11   28 1
    30   12   29 1
    31   16   30 1
    32   17   31 1
    33   17   32 1
    34   18   33 1
@<TRIPOS>PROPERTY_DATA
  Total_Score	| 11.2347
  Crash		| -0.6861
  Polar		| 10.0771
  FragIndex	| 1
  FragRMSD	| 0.195

