@<TRIPOS>MOLECULE
BindingDB_50306560
 31 32 0 0 0
SMALL
NO_CHARGES


@<TRIPOS>ATOM
1    N        33.8563   23.1323   28.9382  N     
2    C        33.3308   22.2113   27.9980  C     
3    C        33.1999   22.8332   26.5734  C     
4    O        32.4015   24.0124   26.6176  O     
5    C        32.5976   21.8068   25.5608  C     
6    O        33.5737   20.8120   25.2074  O     
7    C        31.3159   21.0819   26.0924  C     
8    O        30.1646   21.8763   25.8277  O     
9    C        31.4020   20.6830   27.6092  C     
10   O        32.0419   21.7021   28.4244  O     
11   C        31.9737   19.2564   27.8693  C     
12   O        33.1363   18.9806   27.0930  O     
13   N        33.2092   23.6435   29.8710  N     
14   N        33.9277   24.3485   30.5742  N     
15   C        35.1233   24.3170   30.1197  C     
16   C        35.0767   23.5253   29.0541  C     
17   C        36.1969   24.9790   30.6621  C     
18   O        37.4412   24.8656   30.1390  O     
19   O        36.0154   25.8462   31.6880  O     
20   H        34.0222   21.3699   27.9669  H     
21   H        34.2042   23.1270   26.2262  H     
22   H        32.4474   24.4023   25.7221  H     
23   H        32.3563   22.3369   24.6352  H     
24   H        33.7995   20.3512   26.0300  H     
25   H        31.1568   20.1681   25.5073  H     
26   H        30.3123   22.7303   26.3014  H     
27   H        30.3797   20.6433   27.9763  H     
28   H        32.1881   19.1299   28.9309  H     
29   H        31.2043   18.5237   27.5965  H     
30   H        32.9630   18.0766   26.7008  H     
31   H        35.8480   23.2796   28.4796  H     
@<TRIPOS>BOND
     1    2    1 1
     2    1   13 1
     3    1   16 1
     4    2    3 1
     5    2   10 1
     6    3    4 1
     7    3    5 1
     8    5    6 1
     9    5    7 1
    10    7    8 1
    11    7    9 1
    12    9   10 1
    13    9   11 1
    14   11   12 1
    15   13   14 2
    16   14   15 1
    17   15   16 2
    18   15   17 1
    19   17   18 1
    20   17   19 2
    21    2   20 1
    22    3   21 1
    23    4   22 1
    24    5   23 1
    25    6   24 1
    26    7   25 1
    27    8   26 1
    28    9   27 1
    29   11   28 1
    30   11   29 1
    31   12   30 1
    32   16   31 1
@<TRIPOS>PROPERTY_DATA
  Total_Score	| 5.9374
  Crash		| -0.5124
  Polar		| 3.3369
  FragIndex	| 1
  FragRMSD	| 0.951

