@<TRIPOS>MOLECULE
BindingDB_50306552
 35 36 0 0 0
SMALL
NO_CHARGES


@<TRIPOS>ATOM
1    N        33.6617   23.5343   29.1616  N     
2    C        32.9006   22.8977   28.1657  C     
3    C        33.3973   23.1209   26.7056  C     
4    O        33.3658   24.5211   26.3929  O     
5    C        32.5293   22.2948   25.7056  C     
6    O        33.0927   22.3636   24.3892  O     
7    C        32.4007   20.8058   26.1387  C     
8    O        31.5029   20.1615   25.2293  O     
9    C        31.9399   20.7174   27.6312  C     
10   O        32.8390   21.4853   28.4649  O     
11   C        31.8946   19.2910   28.2218  C     
12   O        30.8164   18.5228   27.7045  O     
13   N        33.1961   23.8356   30.2688  N     
14   N        34.0579   24.2597   31.0336  N     
15   C        35.1825   24.2170   30.4270  C     
16   C        34.9377   23.6973   29.2261  C     
17   C        36.3692   24.6869   30.9548  C     
18   O        36.3793   25.1851   32.2258  O     
19   O        37.4994   24.6887   30.2000  O     
20   C        37.4961   25.7622   32.9051  C     
21   H        31.8881   23.3058   28.2135  H     
22   H        34.4314   22.7677   26.6248  H     
23   H        33.0930   24.5887   25.4487  H     
24   H        31.5288   22.7258   25.6573  H     
25   H        32.8205   23.2331   24.0307  H     
26   H        33.3795   20.3271   26.0403  H     
27   H        31.5418   19.1989   25.4240  H     
28   H        30.9343   21.1295   27.7176  H     
29   H        32.8332   18.7699   28.0165  H     
30   H        31.7611   19.3444   29.3010  H     
31   H        31.1616   18.0847   26.9020  H     
32   H        35.5990   23.5466   28.4973  H     
33   H        38.3079   25.0407   32.9751  H     
34   H        37.1844   26.0362   33.9125  H     
35   H        37.8431   26.6532   32.3787  H     
@<TRIPOS>BOND
     1    2    1 1
     2    1   13 1
     3    1   16 1
     4    2    3 1
     5    2   10 1
     6    3    4 1
     7    3    5 1
     8    5    6 1
     9    5    7 1
    10    7    8 1
    11    7    9 1
    12    9   10 1
    13    9   11 1
    14   11   12 1
    15   13   14 2
    16   14   15 1
    17   15   16 2
    18   15   17 1
    19   17   18 1
    20   17   19 2
    21   18   20 1
    22    2   21 1
    23    3   22 1
    24    4   23 1
    25    5   24 1
    26    6   25 1
    27    7   26 1
    28    8   27 1
    29    9   28 1
    30   11   29 1
    31   11   30 1
    32   12   31 1
    33   16   32 1
    34   20   33 1
    35   20   34 1
    36   20   35 1
@<TRIPOS>PROPERTY_DATA
  Total_Score	| 11.2241
  Crash		| -0.9054
  Polar		| 8.8127
  FragIndex	| 1
  FragRMSD	| 0.551

