@<TRIPOS>MOLECULE
BindingDB_50306553
 35 36 0 0 0
SMALL
NO_CHARGES


@<TRIPOS>ATOM
1    N        33.7327   23.4340   29.1612  N     
2    C        32.9825   22.7961   28.1638  C     
3    C        33.4840   23.0565   26.7173  C     
4    O        33.4775   24.4677   26.4704  O     
5    C        32.5779   22.2835   25.7024  C     
6    O        33.1011   22.3933   24.3720  O     
7    C        32.4821   20.7744   26.0741  C     
8    O        31.4899   20.1720   25.2421  O     
9    C        32.1103   20.6057   27.5812  C     
10   O        32.9727   21.3884   28.4297  O     
11   C        32.1770   19.1405   28.0989  C     
12   O        30.9540   18.4297   27.8594  O     
13   N        33.2254   23.8510   30.2135  N     
14   N        34.0695   24.2261   31.0172  N     
15   C        35.2209   24.0480   30.4958  C     
16   C        35.0125   23.5065   29.2972  C     
17   C        36.4159   24.4184   31.0808  C     
18   O        36.3842   25.0437   32.2943  O     
19   O        37.6028   24.2110   30.4365  O     
20   N        37.4825   25.4651   32.9663  N     
21   H        31.9484   23.1729   28.2300  H     
22   H        34.5019   22.6931   26.6066  H     
23   H        33.1982   24.5791   25.5216  H     
24   H        31.5668   22.7150   25.6865  H     
25   H        32.8262   23.2771   24.0535  H     
26   H        33.4434   20.2970   25.9070  H     
27   H        31.5382   19.1996   25.4545  H     
28   H        31.0630   20.9507   27.7358  H     
29   H        33.0104   18.6022   27.6240  H     
30   H        32.3452   19.1406   29.1795  H     
31   H        31.0794   17.9775   27.0000  H     
32   H        35.7090   23.2432   28.6317  H     
33   H        38.0905   24.6699   33.1855  H     
34   H        37.1763   25.9105   33.8374  H     
35   H        37.9930   26.1580   32.3956  H     
@<TRIPOS>BOND
     1    2    1 1
     2    1   13 1
     3    1   16 1
     4    2    3 1
     5    2   10 1
     6    3    4 1
     7    3    5 1
     8    5    6 1
     9    5    7 1
    10    7    8 1
    11    7    9 1
    12    9   10 1
    13    9   11 1
    14   11   12 1
    15   13   14 2
    16   14   15 1
    17   15   16 2
    18   15   17 1
    19   17   18 1
    20   17   19 2
    21   18   20 1
    22    2   21 1
    23    3   22 1
    24    4   23 1
    25    5   24 1
    26    6   25 1
    27    7   26 1
    28    8   27 1
    29    9   28 1
    30   11   29 1
    31   11   30 1
    32   12   31 1
    33   16   32 1
    34   20   33 1
    35   20   34 1
    36   20   35 1
@<TRIPOS>PROPERTY_DATA
  Total_Score	| 10.9987
  Crash		| -0.7612
  Polar		| 8.6475
  FragIndex	| 1
  FragRMSD	| 0.527

