@<TRIPOS>MOLECULE
BindingDB_50306559
 49 52 0 0 0
SMALL
NO_CHARGES


@<TRIPOS>ATOM
1    N        33.6223   23.5615   29.1459  N     
2    C        32.7557   23.2463   28.0427  C     
3    C        33.4307   23.2038   26.6259  C     
4    O        33.7394   24.5280   26.1726  O     
5    C        32.5707   22.4247   25.5751  C     
6    O        33.2443   22.3800   24.3068  O     
7    C        32.3044   20.9805   26.0918  C     
8    O        31.4731   20.2683   25.1778  O     
9    C        31.6559   20.9998   27.5096  C     
10   O        32.3582   21.8928   28.4160  O     
11   C        31.5443   19.5756   28.1407  C     
12   O        32.5981   18.7102   27.7306  O     
13   N        33.1715   23.8728   30.2833  N     
14   N        34.0859   24.1080   31.0641  N     
15   C        35.2378   23.9661   30.4931  C     
16   C        34.9202   23.5503   29.2589  C     
17   C        31.6066   24.1829   27.9862  C     
18   N        31.5584   25.3643   28.5938  N     
19   O        30.6465   23.9866   27.2407  O     
20   C        36.4740   24.2240   31.1030  C     
21   C        37.7043   23.8225   30.5225  C     
22   C        38.9340   24.0881   31.1580  C     
23   C        36.5309   24.9252   32.3365  C     
24   C        37.7620   25.2222   32.9720  C     
25   C        38.9830   24.7951   32.3764  C     
26   C        40.1913   25.0988   33.0167  C     
27   C        40.1932   25.8165   34.1576  C     
28   C        39.0259   26.2337   34.7341  C     
29   C        37.8306   25.9448   34.1700  C     
30   H        34.3884   22.6711   26.6910  H     
31   H        33.1354   24.7167   25.4247  H     
32   H        31.6241   22.9333   25.3928  H     
33   H        33.0918   23.2568   23.8961  H     
34   H        33.2757   20.4643   26.1294  H     
35   H        31.5179   19.3263   25.4548  H     
36   H        30.6264   21.3648   27.4124  H     
37   H        31.6071   19.6524   29.2367  H     
38   H        30.5914   19.1229   27.8815  H     
39   H        32.1768   18.1119   27.0581  H     
40   H        35.5803   23.3460   28.5501  H     
41   H        30.8212   25.9712   28.3906  H     
42   H        32.3011   25.6358   29.1574  H     
43   H        37.7196   23.3128   29.6340  H     
44   H        39.8016   23.7569   30.7161  H     
45   H        35.6626   25.2368   32.7820  H     
46   H        41.0565   24.7982   32.6321  H     
47   H        41.0624   26.0521   34.5904  H     
48   H        39.0592   26.7631   35.5688  H     
49   H        36.9997   26.2747   34.6056  H     
@<TRIPOS>BOND
     1    2    1 1
     2    1   13 1
     3    1   16 1
     4    2    3 1
     5    2   10 1
     6    2   17 1
     7    3    4 1
     8    3    5 1
     9    5    6 1
    10    5    7 1
    11    7    8 1
    12    7    9 1
    13    9   10 1
    14    9   11 1
    15   11   12 1
    16   13   14 2
    17   14   15 1
    18   15   16 2
    19   15   20 1
    20   17   18 am
    21   17   19 2
    22   20   21 2
    23   20   23 1
    24   21   22 1
    25   22   25 2
    26   23   24 2
    27   24   25 1
    28   24   29 1
    29   25   26 1
    30   26   27 2
    31   27   28 1
    32   28   29 2
    33    3   30 1
    34    4   31 1
    35    5   32 1
    36    6   33 1
    37    7   34 1
    38    8   35 1
    39    9   36 1
    40   11   37 1
    41   11   38 1
    42   12   39 1
    43   16   40 1
    44   18   41 1
    45   18   42 1
    46   21   43 1
    47   22   44 1
    48   23   45 1
    49   26   46 1
    50   27   47 1
    51   28   48 1
    52   29   49 1
@<TRIPOS>PROPERTY_DATA
  Total_Score	| 11.8600
  Crash		| -1.3277
  Polar		| 8.8585
  FragIndex	| 1
  FragRMSD	| 0.327

