@<TRIPOS>MOLECULE
BindingDB_50306550
 45 48 0 0 0
SMALL
NO_CHARGES


@<TRIPOS>ATOM
1    N        33.6659   23.5304   29.1594  N     
2    C        32.9245   22.9055   28.1522  C     
3    C        33.4071   23.1785   26.7062  C     
4    O        33.3172   24.5688   26.4504  O     
5    C        32.5903   22.3393   25.6929  C     
6    O        33.2292   22.3962   24.4148  O     
7    C        32.4600   20.8365   26.1198  C     
8    O        31.5253   20.1785   25.2590  O     
9    C        32.0837   20.6750   27.6201  C     
10   O        32.9618   21.4787   28.4509  O     
11   C        32.1421   19.2280   28.1560  C     
12   O        30.9706   18.4928   27.8318  O     
13   N        33.1781   23.9451   30.2169  N     
14   N        34.0341   24.3158   31.0075  N     
15   C        35.1898   24.1411   30.4826  C     
16   C        34.9405   23.6149   29.2782  C     
17   C        36.4092   24.4311   31.1201  C     
18   C        37.6669   24.2489   30.4837  C     
19   C        38.8728   24.5510   31.1475  C     
20   C        36.4122   24.9290   32.4485  C     
21   C        37.6062   25.2490   33.1300  C     
22   C        38.8591   25.0283   32.4791  C     
23   C        40.0418   25.3430   33.1765  C     
24   C        39.9838   25.8625   34.4168  C     
25   C        38.7853   26.0567   35.0485  C     
26   C        37.6161   25.7553   34.4446  C     
27   H        31.8789   23.2457   28.2441  H     
28   H        34.4539   22.8954   26.6293  H     
29   H        32.9803   24.7069   25.5220  H     
30   H        31.5974   22.7782   25.5718  H     
31   H        32.9801   23.2729   24.0328  H     
32   H        33.4436   20.3606   25.9774  H     
33   H        31.5402   19.2029   25.4951  H     
34   H        31.0618   21.0176   27.7689  H     
35   H        33.0345   18.6949   27.7787  H     
36   H        32.1850   19.2363   29.2453  H     
37   H        31.1908   18.0636   26.9768  H     
38   H        35.6183   23.2846   28.6320  H     
39   H        37.7191   23.9080   29.5200  H     
40   H        39.7523   24.3836   30.6621  H     
41   H        35.5304   25.0684   32.9391  H     
42   H        40.9209   25.1815   32.7512  H     
43   H        40.8133   26.0413   34.9054  H     
44   H        38.7650   26.4456   35.9622  H     
45   H        36.7557   25.9252   34.9154  H     
@<TRIPOS>BOND
     1    2    1 1
     2    1   13 1
     3    1   16 1
     4    2    3 1
     5    2   10 1
     6    3    4 1
     7    3    5 1
     8    5    6 1
     9    5    7 1
    10    7    8 1
    11    7    9 1
    12    9   10 1
    13    9   11 1
    14   11   12 1
    15   13   14 2
    16   14   15 1
    17   15   16 2
    18   15   17 1
    19   17   18 2
    20   17   20 1
    21   18   19 1
    22   19   22 2
    23   20   21 2
    24   21   22 1
    25   21   26 1
    26   22   23 1
    27   23   24 2
    28   24   25 1
    29   25   26 2
    30    2   27 1
    31    3   28 1
    32    4   29 1
    33    5   30 1
    34    6   31 1
    35    7   32 1
    36    8   33 1
    37    9   34 1
    38   11   35 1
    39   11   36 1
    40   12   37 1
    41   16   38 1
    42   18   39 1
    43   19   40 1
    44   20   41 1
    45   23   42 1
    46   24   43 1
    47   25   44 1
    48   26   45 1
@<TRIPOS>PROPERTY_DATA
  Total_Score	| 12.9996
  Crash		| -1.0001
  Polar		| 8.6374
  FragIndex	| 1
  FragRMSD	| 0.441

