@<TRIPOS>MOLECULE
BindingDB_50306554
 42 44 0 0 0
SMALL
NO_CHARGES


@<TRIPOS>ATOM
1    N        33.5349   23.4651   29.1396  N     
2    C        32.8541   22.8244   28.0861  C     
3    C        33.3887   23.0838   26.6434  C     
4    O        33.3918   24.4915   26.4015  O     
5    C        32.5128   22.3061   25.6146  C     
6    O        33.0682   22.3751   24.2998  O     
7    C        32.3880   20.8043   26.0109  C     
8    O        31.4614   20.1571   25.1395  O     
9    C        31.9626   20.6367   27.5028  C     
10   O        32.8441   21.4085   28.3539  O     
11   C        31.9742   19.1446   27.9574  C     
12   O        32.5469   18.9887   29.2545  O     
13   N        32.9582   23.8029   30.1858  N     
14   N        33.7385   24.2136   31.0352  N     
15   C        34.9274   24.1492   30.5563  C     
16   C        34.8019   23.6123   29.3401  C     
17   C        36.1420   24.6981   31.1501  C     
18   C        36.0071   25.1888   32.5569  C     
19   C        34.7945   25.7680   33.0044  C     
20   C        34.6356   26.1546   34.3437  C     
21   C        35.7223   26.0777   35.2327  C     
22   C        36.9588   25.5883   34.7803  C     
23   C        37.0940   25.1156   33.4647  C     
24   H        31.8176   23.1936   28.1083  H     
25   H        34.4185   22.7301   26.5686  H     
26   H        33.0759   24.6163   25.4774  H     
27   H        31.5118   22.7471   25.5895  H     
28   H        32.8189   23.2596   23.9600  H     
29   H        33.3636   20.3287   25.8655  H     
30   H        31.4354   19.2128   25.4140  H     
31   H        30.9387   21.0036   27.6321  H     
32   H        30.9486   18.7664   27.9920  H     
33   H        32.5484   18.5251   27.2600  H     
34   H        33.5122   19.0495   29.1039  H     
35   H        35.5370   23.4653   28.6758  H     
36   H        36.9231   23.9341   31.0860  H     
37   H        36.4564   25.5444   30.5303  H     
38   H        33.9984   25.8300   32.3543  H     
39   H        33.7298   26.5044   34.6668  H     
40   H        35.6081   26.3810   36.2075  H     
41   H        37.7494   25.5431   35.4264  H     
42   H        38.0005   24.7309   33.1651  H     
@<TRIPOS>BOND
     1    2    1 1
     2    1   13 1
     3    1   16 1
     4    2    3 1
     5    2   10 1
     6    3    4 1
     7    3    5 1
     8    5    6 1
     9    5    7 1
    10    7    8 1
    11    7    9 1
    12    9   10 1
    13    9   11 1
    14   11   12 1
    15   13   14 2
    16   14   15 1
    17   15   16 2
    18   15   17 1
    19   17   18 1
    20   18   19 2
    21   18   23 1
    22   19   20 1
    23   20   21 2
    24   21   22 1
    25   22   23 2
    26    2   24 1
    27    3   25 1
    28    4   26 1
    29    5   27 1
    30    6   28 1
    31    7   29 1
    32    8   30 1
    33    9   31 1
    34   11   32 1
    35   11   33 1
    36   12   34 1
    37   16   35 1
    38   17   36 1
    39   17   37 1
    40   19   38 1
    41   20   39 1
    42   21   40 1
    43   22   41 1
    44   23   42 1
@<TRIPOS>PROPERTY_DATA
  Total_Score	| 11.8429
  Crash		| -1.6479
  Polar		| 8.9758
  FragIndex	| 1
  FragRMSD	| 0.397

