@<TRIPOS>MOLECULE
BindingDB_50306551
 45 48 0 0 0
SMALL
NO_CHARGES


@<TRIPOS>ATOM
1    N        33.7455   23.3456   29.2997  N     
2    C        32.9465   22.7602   28.2836  C     
3    C        33.4279   23.0508   26.8244  C     
4    O        33.3806   24.4624   26.5883  O     
5    C        32.5758   22.2743   25.7710  C     
6    O        33.1724   22.3595   24.4714  O     
7    C        32.4309   20.7677   26.1463  C     
8    O        31.5413   20.1355   25.2238  O     
9    C        31.9398   20.6273   27.6204  C     
10   O        32.8503   21.3305   28.5039  O     
11   C        31.8142   19.1576   28.1056  C     
12   O        30.6303   18.5284   27.6203  O     
13   N        33.2825   23.9064   30.2980  N     
14   N        34.1829   24.2618   31.0630  N     
15   C        35.3279   23.9182   30.6059  C     
16   C        35.0177   23.3061   29.4550  C     
17   C        36.5700   24.1709   31.2002  C     
18   C        37.7037   23.8575   30.5104  C     
19   C        38.9612   24.1380   30.9472  C     
20   C        39.1692   24.8103   32.0877  C     
21   C        36.7576   24.7999   32.4935  C     
22   C        38.0917   25.1609   32.8971  C     
23   C        38.3507   25.8390   34.1133  C     
24   C        37.2976   26.1376   34.9841  C     
25   C        35.9958   25.7385   34.6565  C     
26   C        35.7336   25.0815   33.4384  C     
27   H        31.9363   23.1706   28.3711  H     
28   H        34.4662   22.7305   26.7204  H     
29   H        33.1271   24.5802   25.6444  H     
30   H        31.5776   22.7221   25.7048  H     
31   H        32.9467   23.2469   24.1184  H     
32   H        33.4095   20.2874   26.0493  H     
33   H        31.5317   19.1860   25.4741  H     
34   H        30.9405   21.0670   27.7034  H     
35   H        32.6772   18.5720   27.7827  H     
36   H        31.7681   19.1364   29.1974  H     
37   H        29.8918   19.1093   27.8999  H     
38   H        35.6552   22.9139   28.8006  H     
39   H        37.6551   23.4308   29.6211  H     
40   H        39.7391   23.8452   30.4052  H     
41   H        40.1033   25.0163   32.3713  H     
42   H        39.3034   26.1133   34.3819  H     
43   H        37.4824   26.6265   35.8660  H     
44   H        35.2296   25.9204   35.3125  H     
45   H        34.7712   24.7977   33.2698  H     
@<TRIPOS>BOND
     1    2    1 1
     2    1   13 1
     3    1   16 1
     4    2    3 1
     5    2   10 1
     6    3    4 1
     7    3    5 1
     8    5    6 1
     9    5    7 1
    10    7    8 1
    11    7    9 1
    12    9   10 1
    13    9   11 1
    14   11   12 1
    15   13   14 2
    16   14   15 1
    17   15   16 2
    18   15   17 1
    19   17   18 2
    20   17   21 1
    21   18   19 1
    22   19   20 2
    23   20   22 1
    24   21   22 1
    25   21   26 2
    26   22   23 2
    27   23   24 1
    28   24   25 2
    29   25   26 1
    30    2   27 1
    31    3   28 1
    32    4   29 1
    33    5   30 1
    34    6   31 1
    35    7   32 1
    36    8   33 1
    37    9   34 1
    38   11   35 1
    39   11   36 1
    40   12   37 1
    41   16   38 1
    42   18   39 1
    43   19   40 1
    44   20   41 1
    45   23   42 1
    46   24   43 1
    47   25   44 1
    48   26   45 1
@<TRIPOS>PROPERTY_DATA
  Total_Score	| 12.1239
  Crash		| -1.0947
  Polar		| 7.8301
  FragIndex	| 1
  FragRMSD	| 1.022

