@<TRIPOS>MOLECULE
BindingDB_7158
 43 46 0 0 0
SMALL
NO_CHARGES


@<TRIPOS>ATOM
1    C       -12.3394  203.3942  110.7189  C     
2    C       -11.2778  203.7143  111.5661  C     
3    C       -10.3546  204.4015  110.7851  C     
4    N       -12.0218  203.9049  109.5144  N     
5    N       -10.8663  204.4920  109.5459  N     
6    N        -9.1487  204.9424  111.0779  N     
7    C        -8.4930  204.9589  112.2321  C     
8    O        -8.9861  204.4916  113.2575  O     
9    C       -13.6221  202.7467  111.0402  C     
10   C       -13.6362  201.2087  110.9586  C     
11   C       -13.8260  201.9079  112.3158  C     
12   C        -7.1793  205.5922  112.3156  C     
13   C        -6.1018  204.6593  112.7663  C     
14   C        -4.0126  202.8844  113.6708  C     
15   C        -4.9743  203.4400  114.5648  C     
16   C        -5.9698  204.3204  114.1336  C     
17   C        -5.1672  204.1073  111.8578  C     
18   C        -4.1448  203.2546  112.2974  C     
19   C        -2.9842  201.9931  114.1521  C     
20   C        -2.6293  201.9369  115.5361  C     
21   C        -2.2895  201.0890  113.2863  C     
22   C        -1.3553  200.1680  113.7759  C     
23   C        -1.0588  200.1194  115.1521  C     
24   C        -1.7016  201.0100  116.0296  C     
25   H       -11.2219  203.5014  112.5633  H     
26   H       -12.5860  203.8672  108.7244  H     
27   H        -8.6964  205.3850  110.3424  H     
28   H       -14.5308  203.2123  110.6433  H     
29   H       -14.5345  200.7480  110.5494  H     
30   H       -12.6796  200.6859  110.8685  H     
31   H       -12.9869  201.7968  113.0011  H     
32   H       -14.8444  201.8652  112.7051  H     
33   H        -6.9033  206.0275  111.3408  H     
34   H        -7.2236  206.4316  113.0198  H     
35   H        -4.9903  203.1920  115.5576  H     
36   H        -6.6242  204.6977  114.8275  H     
37   H        -5.2158  204.3326  110.8561  H     
38   H        -3.4794  202.9252  111.5910  H     
39   H        -3.0387  202.5809  116.2211  H     
40   H        -2.4756  201.0497  112.2783  H     
41   H        -0.8929  199.5143  113.1341  H     
42   H        -0.3790  199.4427  115.5122  H     
43   H        -1.4815  200.9941  117.0323  H     
@<TRIPOS>BOND
     1    1    2 2
     2    1    4 1
     3    1    9 1
     4    2    3 1
     5    3    5 2
     6    3    6 1
     7    4    5 1
     8    6    7 am
     9    7    8 2
    10    7   12 1
    11    9   10 1
    12    9   11 1
    13   10   11 1
    14   12   13 1
    15   13   16 1
    16   13   17 2
    17   14   15 1
    18   14   18 2
    19   14   19 1
    20   15   16 2
    21   17   18 1
    22   19   20 1
    23   19   21 2
    24   20   24 2
    25   21   22 1
    26   22   23 2
    27   23   24 1
    28    2   25 1
    29    4   26 1
    30    6   27 1
    31    9   28 1
    32   10   29 1
    33   10   30 1
    34   11   31 1
    35   11   32 1
    36   12   33 1
    37   12   34 1
    38   15   35 1
    39   16   36 1
    40   17   37 1
    41   18   38 1
    42   20   39 1
    43   21   40 1
    44   22   41 1
    45   23   42 1
    46   24   43 1
@<TRIPOS>PROPERTY_DATA
  Total_Score	| 6.0130
  Crash		| -0.8042
  Polar		| 2.6984
  FragIndex	| 1
  FragRMSD	| 0.763

