@<TRIPOS>MOLECULE
BindingDB_7099
 36 38 0 0 0
SMALL
NO_CHARGES


@<TRIPOS>ATOM
1    C       -12.3708  203.4335  110.4884  C     
2    C       -11.4245  203.6020  111.4931  C     
3    C       -10.3938  204.3716  110.9556  C     
4    N       -11.8905  204.0853  109.4188  N     
5    N       -10.7399  204.6306  109.6778  N     
6    N        -9.2562  204.8658  111.5137  N     
7    C        -8.8071  204.7096  112.7581  C     
8    O        -9.3928  203.9706  113.5455  O     
9    C        -7.6159  205.3995  113.2548  C     
10   C        -6.3635  204.6519  112.8946  C     
11   C        -3.9598  203.2526  112.2599  C     
12   C        -4.7358  203.8337  111.2391  C     
13   C        -5.9196  204.5243  111.5541  C     
14   C        -5.5717  204.0444  113.9068  C     
15   C        -4.3788  203.3652  113.5981  C     
16   C       -13.6864  202.7510  110.5315  C     
17   C       -13.6540  201.2324  110.7747  C     
18   C       -14.2714  202.1587  111.8304  C     
19   C        -7.5745  206.9062  112.8706  C     
20   H       -11.5003  203.2451  112.4452  H     
21   H       -12.3519  204.1461  108.5620  H     
22   H        -8.7216  205.4343  110.9338  H     
23   H        -7.6831  205.4240  114.3526  H     
24   H        -3.0847  202.7758  112.0358  H     
25   H        -4.4278  203.7603  110.2681  H     
26   H        -6.4465  204.9495  110.7891  H     
27   H        -5.8574  204.0915  114.8897  H     
28   H        -3.8185  202.9429  114.3434  H     
29   H       -14.4214  203.0262  109.7705  H     
30   H       -14.3738  200.6394  110.2037  H     
31   H       -12.6923  200.7975  111.0534  H     
32   H       -13.6877  202.2248  112.7524  H     
33   H       -15.3591  202.0758  111.9111  H     
34   H        -7.5111  207.0493  111.7901  H     
35   H        -6.7123  207.3788  113.3353  H     
36   H        -8.4684  207.4237  113.2256  H     
@<TRIPOS>BOND
     1    1    2 2
     2    1    4 1
     3    1   16 1
     4    2    3 1
     5    3    5 2
     6    3    6 1
     7    4    5 1
     8    6    7 am
     9    7    8 2
    10    7    9 1
    11    9   10 1
    12    9   19 1
    13   10   13 1
    14   10   14 2
    15   11   12 1
    16   11   15 2
    17   12   13 2
    18   14   15 1
    19   16   17 1
    20   16   18 1
    21   17   18 1
    22    2   20 1
    23    4   21 1
    24    6   22 1
    25    9   23 1
    26   11   24 1
    27   12   25 1
    28   13   26 1
    29   14   27 1
    30   15   28 1
    31   16   29 1
    32   17   30 1
    33   17   31 1
    34   18   32 1
    35   18   33 1
    36   19   34 1
    37   19   35 1
    38   19   36 1
@<TRIPOS>PROPERTY_DATA
  Total_Score	| 6.2333
  Crash		| -0.8989
  Polar		| 2.9019
  FragIndex	| 1
  FragRMSD	| 0.794

