@<TRIPOS>MOLECULE
BindingDB_7115
 43 46 0 0 0
SMALL
NO_CHARGES


@<TRIPOS>ATOM
1    C       -12.3780  203.3383  110.5109  C     
2    C       -11.4231  203.5254  111.5036  C     
3    C       -10.4269  204.3170  110.9384  C     
4    N       -11.9234  203.9976  109.4316  N     
5    N       -10.7884  204.5768  109.6645  N     
6    N        -9.2910  204.8419  111.4581  N     
7    C        -8.7824  204.6614  112.6752  C     
8    O        -9.2585  203.8338  113.4528  O     
9    C        -7.6391  205.4294  113.1650  C     
10   C        -6.3693  204.6435  113.0361  C     
11   C        -5.7481  204.0958  114.1920  C     
12   C        -5.7563  204.3911  111.7853  C     
13   C        -4.5562  203.6669  111.6871  C     
14   C       -13.6851  202.6448  110.5646  C     
15   C       -13.6300  201.1192  110.7693  C     
16   C       -14.2524  202.0080  111.8518  C     
17   C        -4.5525  203.3568  114.0907  C     
18   C        -3.9126  203.1248  112.8402  C     
19   C        -7.4768  206.8623  112.5884  C     
20   C        -1.6356  202.6170  112.0327  C     
21   C        -2.4137  201.2802  113.4701  C     
22   N        -2.7278  202.3994  112.7651  N     
23   O        -1.3944  203.5170  111.2251  O     
24   N        -0.7450  201.6968  112.2877  N     
25   N        -1.1802  200.8690  113.1727  N     
26   H       -11.4786  203.1788  112.4633  H     
27   H       -12.3909  204.0541  108.5811  H     
28   H        -8.8012  205.4457  110.8729  H     
29   H        -7.8299  205.6078  114.2366  H     
30   H        -6.1572  204.2357  115.1197  H     
31   H        -6.1684  204.7537  110.9226  H     
32   H        -4.1829  203.5181  110.7494  H     
33   H       -14.4508  202.9655  109.8472  H     
34   H       -14.3328  200.5373  110.1712  H     
35   H       -12.6680  200.6771  111.0253  H     
36   H       -13.6672  202.0455  112.7735  H     
37   H       -15.3386  201.9100  111.9172  H     
38   H        -4.1561  202.9888  114.9663  H     
39   H        -7.2743  206.8506  111.5164  H     
40   H        -6.6348  207.3601  113.0865  H     
41   H        -8.3882  207.4433  112.7730  H     
42   H        -3.0027  200.7967  114.1551  H     
43   H         0.1326  201.6454  111.8785  H     
@<TRIPOS>BOND
     1    1    2 2
     2    1    4 1
     3    1   14 1
     4    2    3 1
     5    3    5 2
     6    3    6 1
     7    4    5 1
     8    6    7 am
     9    7    8 2
    10    7    9 1
    11    9   10 1
    12    9   19 1
    13   10   11 1
    14   10   12 2
    15   11   17 2
    16   12   13 1
    17   13   18 2
    18   14   15 1
    19   14   16 1
    20   15   16 1
    21   17   18 1
    22   18   22 1
    23   20   22 1
    24   20   23 2
    25   20   24 1
    26   21   22 1
    27   21   25 2
    28   24   25 1
    29    2   26 1
    30    4   27 1
    31    6   28 1
    32    9   29 1
    33   11   30 1
    34   12   31 1
    35   13   32 1
    36   14   33 1
    37   15   34 1
    38   15   35 1
    39   16   36 1
    40   16   37 1
    41   17   38 1
    42   19   39 1
    43   19   40 1
    44   19   41 1
    45   21   42 1
    46   24   43 1
@<TRIPOS>PROPERTY_DATA
  Total_Score	| 6.6716
  Crash		| -1.2224
  Polar		| 2.8834
  FragIndex	| 1
  FragRMSD	| 0.687

