@<TRIPOS>MOLECULE
BindingDB_7108
 39 42 0 0 0
SMALL
NO_CHARGES


@<TRIPOS>ATOM
1    C       -12.3302  203.3885  110.6693  C     
2    C       -11.3555  203.7406  111.5896  C     
3    C       -10.3973  204.4764  110.8925  C     
4    N       -11.9489  203.9147  109.4971  N     
5    N       -10.8262  204.5485  109.6177  N     
6    N        -9.2510  205.0721  111.3055  N     
7    C        -8.7077  205.0684  112.5194  C     
8    O        -9.1785  204.4285  113.4496  O     
9    C        -7.4757  205.7959  112.7683  C     
10   C        -6.3164  204.8666  112.8652  C     
11   C        -5.6310  204.4659  111.6930  C     
12   C        -5.8901  204.3566  114.1125  C     
13   C        -4.7974  203.4783  114.1990  C     
14   C       -13.6037  202.6923  110.9313  C     
15   C       -13.6118  201.1573  110.9355  C     
16   C       -13.8027  201.9254  112.2500  C     
17   C        -4.5277  203.5904  111.7650  C     
18   C        -2.7674  202.3650  110.7222  C     
19   C        -3.8221  203.1963  110.6202  C     
20   C        -4.1037  203.0922  113.0317  C     
21   C        -2.9960  202.2331  113.0781  C     
22   C        -2.3544  201.8904  111.9407  C     
23   H       -11.3746  203.5247  112.5912  H     
24   H       -12.4548  203.8518  108.6718  H     
25   H        -8.7646  205.5626  110.6245  H     
26   H        -7.2875  206.5323  111.9782  H     
27   H        -7.5883  206.3710  113.6937  H     
28   H        -5.9377  204.8239  110.7820  H     
29   H        -6.3823  204.6189  114.9699  H     
30   H        -4.5117  203.1264  115.1135  H     
31   H       -14.5106  203.1456  110.5321  H     
32   H       -14.5136  200.6679  110.5577  H     
33   H       -12.6508  200.6409  110.8530  H     
34   H       -12.9592  201.8354  112.9391  H     
35   H       -14.8269  201.8828  112.6448  H     
36   H        -2.2773  202.0946  109.8980  H     
37   H        -4.0936  203.5304  109.7262  H     
38   H        -2.6755  201.8664  113.9431  H     
39   H        -1.5695  201.2805  111.9834  H     
@<TRIPOS>BOND
     1    1    2 2
     2    1    4 1
     3    1   14 1
     4    2    3 1
     5    3    5 2
     6    3    6 1
     7    4    5 1
     8    6    7 am
     9    7    8 2
    10    7    9 1
    11    9   10 1
    12   10   11 1
    13   10   12 2
    14   11   17 2
    15   12   13 1
    16   13   20 2
    17   14   15 1
    18   14   16 1
    19   15   16 1
    20   17   19 1
    21   17   20 1
    22   18   19 2
    23   18   22 1
    24   20   21 1
    25   21   22 2
    26    2   23 1
    27    4   24 1
    28    6   25 1
    29    9   26 1
    30    9   27 1
    31   11   28 1
    32   12   29 1
    33   13   30 1
    34   14   31 1
    35   15   32 1
    36   15   33 1
    37   16   34 1
    38   16   35 1
    39   18   36 1
    40   19   37 1
    41   21   38 1
    42   22   39 1
@<TRIPOS>PROPERTY_DATA
  Total_Score	| 6.9118
  Crash		| -0.9274
  Polar		| 2.8395
  FragIndex	| 1
  FragRMSD	| 0.659

