@<TRIPOS>MOLECULE
BindingDB_7096
 43 46 0 0 0
SMALL
NO_CHARGES


@<TRIPOS>ATOM
1    C       -12.6215  202.9854  111.1289  C     
2    C       -11.5749  202.8523  112.0271  C     
3    C       -10.7672  203.9674  111.8628  C     
4    N       -12.3945  204.1357  110.4614  N     
5    N       -11.3176  204.7256  110.8906  N     
6    N        -9.6578  204.1930  112.6026  N     
7    C        -8.8980  205.2798  112.6653  C     
8    O        -9.1764  206.2660  111.9901  O     
9    C        -7.7630  205.3459  113.5957  C     
10   C        -8.2510  205.0071  114.9753  C     
11   C        -9.1064  204.3767  117.6160  C     
12   C        -8.6858  203.3558  116.7483  C     
13   C        -8.2601  203.6678  115.4453  C     
14   C        -8.7130  206.0176  115.8524  C     
15   C        -9.1213  205.7093  117.1657  C     
16   C       -13.7526  202.0642  110.9236  C     
17   C       -14.1675  201.0280  111.9800  C     
18   C       -14.9726  202.3243  111.8248  C     
19   C        -6.5141  204.6221  113.1697  C     
20   C        -5.5967  204.1509  114.1483  C     
21   C        -4.3821  203.5429  113.7809  C     
22   C        -4.0471  203.3917  112.4239  C     
23   C        -4.9268  203.8760  111.4375  C     
24   C        -6.1374  204.5003  111.8046  C     
25   H       -11.4470  202.1098  112.7130  H     
26   H       -12.9624  204.4840  109.7527  H     
27   H        -9.4126  203.4669  113.2036  H     
28   H        -7.4354  206.3892  113.6248  H     
29   H        -9.4016  204.1614  118.5699  H     
30   H        -8.6632  202.3900  117.0777  H     
31   H        -7.9372  202.9123  114.8427  H     
32   H        -8.7256  207.0013  115.5537  H     
33   H        -9.4171  206.4548  117.8018  H     
34   H       -14.0266  201.8080  109.9000  H     
35   H       -14.6808  200.1362  111.6109  H     
36   H       -13.5315  200.9549  112.8642  H     
37   H       -14.8658  203.0134  112.6655  H     
38   H       -15.9553  202.2039  111.3635  H     
39   H        -5.7954  204.2615  115.1467  H     
40   H        -3.7360  203.2161  114.5032  H     
41   H        -3.1680  202.9421  112.1529  H     
42   H        -4.6793  203.7833  110.4482  H     
43   H        -6.7321  204.8775  111.0589  H     
@<TRIPOS>BOND
     1    1    2 2
     2    1    4 1
     3    1   16 1
     4    2    3 1
     5    3    5 2
     6    3    6 1
     7    4    5 1
     8    6    7 am
     9    7    8 2
    10    7    9 1
    11    9   10 1
    12    9   19 1
    13   10   13 1
    14   10   14 2
    15   11   12 1
    16   11   15 2
    17   12   13 2
    18   14   15 1
    19   16   17 1
    20   16   18 1
    21   17   18 1
    22   19   20 2
    23   19   24 1
    24   20   21 1
    25   21   22 2
    26   22   23 1
    27   23   24 2
    28    2   25 1
    29    4   26 1
    30    6   27 1
    31    9   28 1
    32   11   29 1
    33   12   30 1
    34   13   31 1
    35   14   32 1
    36   15   33 1
    37   16   34 1
    38   17   35 1
    39   17   36 1
    40   18   37 1
    41   18   38 1
    42   20   39 1
    43   21   40 1
    44   22   41 1
    45   23   42 1
    46   24   43 1
@<TRIPOS>PROPERTY_DATA
  Total_Score	| 2.8616
  Crash		| -1.6603
  Polar		| 0.0050
  FragIndex	| 1
  FragRMSD	| 1.047

