@<TRIPOS>MOLECULE
BindingDB_7101
 47 50 0 0 0
SMALL
NO_CHARGES


@<TRIPOS>ATOM
1    C       -12.3263  203.2243  110.6001  C     
2    C       -11.3339  203.5274  111.5248  C     
3    C       -10.4210  204.3428  110.8583  C     
4    N       -11.9665  203.8223  109.4527  N     
5    N       -10.8593  204.4792  109.5940  N     
6    N        -9.2907  204.9679  111.2621  N     
7    C        -8.7013  204.9431  112.4568  C     
8    O        -9.1384  204.2650  113.3827  O     
9    C        -7.4949  205.7481  112.6961  C     
10   C        -6.3154  204.8468  112.9368  C     
11   C        -4.8164  203.5610  114.4099  C     
12   C        -5.9232  204.4096  114.2288  C     
13   C        -5.5636  204.3577  111.8445  C     
14   C        -4.4620  203.5008  112.0287  C     
15   C       -13.5882  202.4679  110.7658  C     
16   C       -13.4890  200.9368  110.8104  C     
17   C       -13.9029  201.7096  112.0671  C     
18   C        -7.7631  206.8482  113.7708  C     
19   C        -4.0414  203.0782  113.3237  C     
20   C        -2.1507  201.6681  112.6243  C     
21   C        -2.5638  201.7603  114.8402  C     
22   C        -1.4503  200.7161  114.6505  C     
23   C        -1.2293  200.6924  113.1361  C     
24   N        -2.9617  202.2059  113.5325  N     
25   O        -2.1267  201.9100  111.4167  O     
26   H       -11.3131  203.2397  112.5034  H     
27   H       -12.4755  203.7816  108.6214  H     
28   H        -8.8607  205.5215  110.5890  H     
29   H        -7.2526  206.3195  111.7900  H     
30   H        -4.5924  203.3035  115.3731  H     
31   H        -6.4431  204.7125  115.0558  H     
32   H        -5.8180  204.6210  110.8865  H     
33   H        -3.9890  203.1705  111.1906  H     
34   H       -14.4747  202.8561  110.2522  H     
35   H       -14.2911  200.3933  110.3054  H     
36   H       -12.4860  200.5142  110.8361  H     
37   H       -13.1561  201.6841  112.8630  H     
38   H       -14.9595  201.5960  112.3292  H     
39   H        -8.5181  207.5533  113.3997  H     
40   H        -6.8416  207.4074  113.9736  H     
41   H        -8.1288  206.4066  114.7071  H     
42   H        -3.4111  201.3139  115.3776  H     
43   H        -2.1706  202.6044  115.4258  H     
44   H        -0.5357  201.0142  115.1752  H     
45   H        -1.7696  199.7317  115.0148  H     
46   H        -1.4731  199.7045  112.7269  H     
47   H        -0.1961  200.9606  112.8756  H     
@<TRIPOS>BOND
     1    1    2 2
     2    1    4 1
     3    1   15 1
     4    2    3 1
     5    3    5 2
     6    3    6 1
     7    4    5 1
     8    6    7 am
     9    7    8 2
    10    7    9 1
    11    9   10 1
    12    9   18 1
    13   10   12 1
    14   10   13 2
    15   11   12 2
    16   11   19 1
    17   13   14 1
    18   14   19 2
    19   15   16 1
    20   15   17 1
    21   16   17 1
    22   19   24 1
    23   20   23 1
    24   20   24 1
    25   20   25 2
    26   21   22 1
    27   21   24 1
    28   22   23 1
    29    2   26 1
    30    4   27 1
    31    6   28 1
    32    9   29 1
    33   11   30 1
    34   12   31 1
    35   13   32 1
    36   14   33 1
    37   15   34 1
    38   16   35 1
    39   16   36 1
    40   17   37 1
    41   17   38 1
    42   18   39 1
    43   18   40 1
    44   18   41 1
    45   21   42 1
    46   21   43 1
    47   22   44 1
    48   22   45 1
    49   23   46 1
    50   23   47 1
@<TRIPOS>PROPERTY_DATA
  Total_Score	| 6.9386
  Crash		| -1.4693
  Polar		| 2.8485
  FragIndex	| 1
  FragRMSD	| 0.780

