@<TRIPOS>MOLECULE
BindingDB_7153
 33 35 0 0 0
SMALL
NO_CHARGES


@<TRIPOS>ATOM
1    C       -12.3080  203.3919  110.6710  C     
2    C       -11.3635  203.7483  111.6231  C     
3    C       -10.4154  204.5150  110.9563  C     
4    N       -11.8943  203.9095  109.5069  N     
5    N       -10.7924  204.5765  109.6652  N     
6    N        -9.2931  205.1417  111.3945  N     
7    C        -8.7656  205.1562  112.6101  C     
8    O        -9.2769  204.5842  113.5666  O     
9    C       -13.5808  202.6985  110.9178  C     
10   C       -13.6357  201.1623  110.9635  C     
11   C       -13.7300  201.9684  112.2644  C     
12   C        -7.5244  205.8772  112.8301  C     
13   C        -6.3725  204.9421  112.7599  C     
14   C        -4.1754  203.1611  112.6380  C     
15   C        -4.7775  203.4457  113.8760  C     
16   C        -5.8744  204.3263  113.9348  C     
17   C        -5.7670  204.6313  111.5183  C     
18   C        -4.6718  203.7451  111.4587  C     
19   H       -11.4044  203.5303  112.6198  H     
20   H       -12.3699  203.8297  108.6636  H     
21   H        -8.8128  205.6502  110.7168  H     
22   H       -14.4921  203.1973  110.5839  H     
23   H       -14.5721  200.7088  110.6295  H     
24   H       -12.6969  200.6221  110.8277  H     
25   H       -12.8470  201.9137  112.9063  H     
26   H       -14.7199  202.0199  112.7230  H     
27   H        -7.4348  206.6873  112.0976  H     
28   H        -7.5217  206.3646  113.8111  H     
29   H        -3.3778  202.5239  112.5938  H     
30   H        -4.4169  203.0173  114.7321  H     
31   H        -6.3020  204.5201  114.8423  H     
32   H        -6.1231  205.0483  110.6560  H     
33   H        -4.2427  203.5320  110.5551  H     
@<TRIPOS>BOND
     1    1    2 2
     2    1    4 1
     3    1    9 1
     4    2    3 1
     5    3    5 2
     6    3    6 1
     7    4    5 1
     8    6    7 am
     9    7    8 2
    10    7   12 1
    11    9   10 1
    12    9   11 1
    13   10   11 1
    14   12   13 1
    15   13   16 1
    16   13   17 2
    17   14   15 1
    18   14   18 2
    19   15   16 2
    20   17   18 1
    21    2   19 1
    22    4   20 1
    23    6   21 1
    24    9   22 1
    25   10   23 1
    26   10   24 1
    27   11   25 1
    28   11   26 1
    29   12   27 1
    30   12   28 1
    31   14   29 1
    32   15   30 1
    33   16   31 1
    34   17   32 1
    35   18   33 1
@<TRIPOS>PROPERTY_DATA
  Total_Score	| 5.3432
  Crash		| -0.5901
  Polar		| 2.8352
  FragIndex	| 1
  FragRMSD	| 0.668

