@<TRIPOS>MOLECULE
BindingDB_7098
 36 38 0 0 0
SMALL
NO_CHARGES


@<TRIPOS>ATOM
1    C       -12.3756  203.4776  110.7069  C     
2    C       -11.4454  203.8884  111.6505  C     
3    C       -10.4681  204.5896  110.9556  C     
4    N       -11.9482  203.9436  109.5253  N     
5    N       -10.8348  204.5980  109.6609  N     
6    N        -9.3372  205.2015  111.3808  N     
7    C        -8.8085  205.2230  112.5989  C     
8    O        -9.2901  204.5676  113.5288  O     
9    C        -7.5672  205.9490  112.8403  C     
10   C        -6.4142  204.9983  112.7561  C     
11   C        -4.2189  203.2129  112.4933  C     
12   C        -4.8024  203.7878  111.3497  C     
13   C        -5.8899  204.6699  111.4845  C     
14   C        -5.8395  204.3740  113.8950  C     
15   C        -4.7441  203.5009  113.7612  C     
16   C       -13.6330  202.7562  110.9780  C     
17   C       -13.5748  201.2231  110.9591  C     
18   C       -13.7830  201.9621  112.2857  C     
19   C        -7.5977  206.8338  114.1192  C     
20   H       -11.5027  203.7287  112.6581  H     
21   H       -12.4174  203.8292  108.6800  H     
22   H        -8.8389  205.6786  110.6976  H     
23   H        -7.4471  206.6845  112.0321  H     
24   H        -3.4252  202.5763  112.3987  H     
25   H        -4.4418  203.5642  110.4189  H     
26   H        -6.2978  205.0717  110.6389  H     
27   H        -6.2098  204.5539  114.8287  H     
28   H        -4.3359  203.0661  114.5933  H     
29   H       -14.5546  203.1734  110.5678  H     
30   H       -14.4581  200.7030  110.5799  H     
31   H       -12.5939  200.7478  110.8635  H     
32   H       -12.9277  201.9355  112.9652  H     
33   H       -14.7941  201.8898  112.7004  H     
34   H        -8.3556  207.6203  114.0156  H     
35   H        -6.6308  207.3210  114.2710  H     
36   H        -7.8296  206.2444  115.0077  H     
@<TRIPOS>BOND
     1    1    2 2
     2    1    4 1
     3    1   16 1
     4    2    3 1
     5    3    5 2
     6    3    6 1
     7    4    5 1
     8    6    7 am
     9    7    8 2
    10    7    9 1
    11    9   10 1
    12    9   19 1
    13   10   13 1
    14   10   14 2
    15   11   12 1
    16   11   15 2
    17   12   13 2
    18   14   15 1
    19   16   17 1
    20   16   18 1
    21   17   18 1
    22    2   20 1
    23    4   21 1
    24    6   22 1
    25    9   23 1
    26   11   24 1
    27   12   25 1
    28   13   26 1
    29   14   27 1
    30   15   28 1
    31   16   29 1
    32   17   30 1
    33   17   31 1
    34   18   32 1
    35   18   33 1
    36   19   34 1
    37   19   35 1
    38   19   36 1
@<TRIPOS>PROPERTY_DATA
  Total_Score	| 6.4250
  Crash		| -0.6216
  Polar		| 2.7862
  FragIndex	| 1
  FragRMSD	| 0.693

