@<TRIPOS>MOLECULE
BindingDB_50329833
 36 38 0 0 0
SMALL
NO_CHARGES


@<TRIPOS>ATOM
1    C        -6.1587    4.3871   14.3480  C     
2    C        -6.2749    3.5957   15.5061  C     
3    C        -5.8928    2.2344   15.4602  C     
4    C        -5.3876    1.7068   14.2548  C     
5    C        -5.2685    2.4779   13.0739  C     
6    C        -5.6751    3.8358   13.1478  C     
7    Cl       -6.8518    4.3514   16.9128  Cl    
8    C        -4.8095    1.9187   11.8669  C     
9    C        -3.8601    0.7943   11.8089  C     
10   O        -5.0351    2.5054   10.8208  O     
11   S        -5.9348    1.1683   16.8461  S     
12   N        -6.9893    1.3785   18.1338  N     
13   O        -6.2378   -0.3016   16.3349  O     
14   O        -4.4588    1.0040   17.3945  O     
15   S        -2.4200    1.0133   10.7255  S     
16   C        -1.7033    2.4483   11.3996  C     
17   N        -0.5556    3.0070   10.9759  N     
18   N        -2.2294    3.2202   12.3701  N     
19   C        -1.4350    4.2448   12.5521  C     
20   C        -0.3549    4.1297   11.6828  C     
21   C        -0.5733    6.3364   13.3937  C     
22   C        -1.5722    5.3454   13.4143  C     
23   C         0.5389    6.2144   12.5310  C     
24   C         0.6499    5.1125   11.6569  C     
25   H        -6.4231    5.3775   14.3623  H     
26   H        -5.1168    0.7192   14.2375  H     
27   H        -5.5987    4.4451   12.3318  H     
28   H        -3.4679    0.5299   12.7872  H     
29   H        -4.4318   -0.0617   11.4327  H     
30   H        -7.8880    1.0321   18.0683  H     
31   H        -6.7742    2.0226   18.8318  H     
32   H         0.0141    2.6695   10.2651  H     
33   H        -0.6482    7.1427   14.0229  H     
34   H        -2.3903    5.4272   14.0258  H     
35   H         1.2678    6.9287   12.5479  H     
36   H         1.4460    5.0344   11.0169  H     
@<TRIPOS>BOND
     1    1    2 2
     2    1    6 1
     3    2    3 1
     4    2    7 1
     5    3    4 2
     6    3   11 1
     7    4    5 1
     8    5    6 2
     9    5    8 1
    10    8    9 1
    11    8   10 2
    12    9   15 1
    13   11   12 am
    14   11   13 2
    15   11   14 2
    16   15   16 1
    17   16   17 1
    18   16   18 2
    19   17   20 1
    20   18   19 1
    21   19   20 2
    22   19   22 1
    23   20   24 1
    24   21   22 2
    25   21   23 1
    26   23   24 2
    27    1   25 1
    28    4   26 1
    29    6   27 1
    30    9   28 1
    31    9   29 1
    32   12   30 1
    33   12   31 1
    34   17   32 1
    35   21   33 1
    36   22   34 1
    37   23   35 1
    38   24   36 1
@<TRIPOS>PROPERTY_DATA
  Total_Score	| 6.9042
  Crash		| -1.2389
  Polar		| 4.9321
  FragIndex	| 1
  FragRMSD	| 1.450

