@<TRIPOS>MOLECULE
BindingDB_50380141
 43 44 0 0 0
SMALL
NO_CHARGES


@<TRIPOS>ATOM
1    S        -6.0947    1.0207   16.7290  S     
2    O        -4.9826    1.2596   17.8432  O     
3    O        -5.8891   -0.4750   16.2551  O     
4    C        -6.1931    4.3759   14.4169  C     
5    C        -6.3219    3.5178   15.5282  C     
6    C        -5.9199    2.1665   15.4182  C     
7    C        -5.3746    1.7077   14.1989  C     
8    C        -5.2348    2.5575   13.0770  C     
9    C        -5.6735    3.8955   13.2035  C     
10   C        -4.6680    2.1017   11.8852  C     
11   C        -3.6217    1.0872   11.8282  C     
12   O        -4.9850    2.6429   10.8313  O     
13   S        -2.1586    1.5501   10.8525  S     
14   C        -1.7611    3.0682   11.5971  C     
15   N        -0.4614    3.4298   11.8154  N     
16   C        -0.1537    4.6477   12.3322  C     
17   C        -1.1686    5.5881   12.6507  C     
18   C        -2.5009    5.1762   12.3791  C     
19   N        -2.7703    3.9436   11.8749  N     
20   Cl       -6.9399    4.1888   16.9644  Cl    
21   N        -7.5815    1.0297   17.5021  N     
22   C        -0.8745    6.9466   13.1966  C     
23   C        -1.9657    7.4615   14.1858  C     
24   C        -1.6793    8.8769   14.7606  C     
25   C        -0.3629    8.9780   15.5633  C     
26   H        -6.4711    5.3596   14.4879  H     
27   H        -5.1042    0.7244   14.1122  H     
28   H        -5.6019    4.5501   12.4182  H     
29   H        -3.2471    0.8192   12.8185  H     
30   H        -4.0387    0.1883   11.3748  H     
31   H         0.8326    4.8800   12.4673  H     
32   H        -3.2798    5.8210   12.5734  H     
33   H        -8.3281    0.5787   17.0821  H     
34   H        -7.6348    1.2715   18.4410  H     
35   H         0.0928    6.9385   13.7027  H     
36   H        -0.8008    7.6430   12.3511  H     
37   H        -2.9235    7.5051   13.6604  H     
38   H        -2.0692    6.7420   15.0070  H     
39   H        -1.6596    9.6042   13.9451  H     
40   H        -2.5029    9.1425   15.4252  H     
41   H        -0.3573    8.2323   16.3651  H     
42   H        -0.2701    9.9688   16.0053  H     
43   H         0.4945    8.8064   14.9032  H     
@<TRIPOS>BOND
     1    1    2 2
     2    1    3 2
     3    1    6 1
     4    1   21 am
     5    4    5 2
     6    4    9 1
     7    5    6 1
     8    5   20 1
     9    6    7 2
    10    7    8 1
    11    8    9 2
    12    8   10 1
    13   10   11 1
    14   10   12 2
    15   11   13 1
    16   13   14 1
    17   14   15 2
    18   14   19 1
    19   15   16 1
    20   16   17 2
    21   17   18 1
    22   17   22 1
    23   18   19 2
    24   22   23 1
    25   23   24 1
    26   24   25 1
    27    4   26 1
    28    7   27 1
    29    9   28 1
    30   11   29 1
    31   11   30 1
    32   16   31 1
    33   18   32 1
    34   21   33 1
    35   21   34 1
    36   22   35 1
    37   22   36 1
    38   23   37 1
    39   23   38 1
    40   24   39 1
    41   24   40 1
    42   25   41 1
    43   25   42 1
    44   25   43 1
@<TRIPOS>PROPERTY_DATA
  Total_Score	| 7.4619
  Crash		| -1.7287
  Polar		| 4.6609
  FragIndex	| 1
  FragRMSD	| 0.928

