@<TRIPOS>MOLECULE
BindingDB_50380152
 37 38 0 0 0
SMALL
NO_CHARGES


@<TRIPOS>ATOM
1    S        -5.9832    1.0920   16.8156  S     
2    O        -4.5832    1.2107   17.5586  O     
3    O        -6.0871   -0.4422   16.4113  O     
4    C        -6.2320    4.3431   14.3767  C     
5    C        -6.2823    3.5358   15.5294  C     
6    C        -5.9103    2.1664   15.4354  C     
7    C        -5.4267    1.6643   14.2075  C     
8    C        -5.3260    2.4748   13.0572  C     
9    C        -5.7597    3.8251   13.1666  C     
10   C        -4.7515    2.0106   11.8619  C     
11   C        -3.6783    1.0157   11.8234  C     
12   O        -4.9512    2.6423   10.8288  O     
13   S        -2.1627    1.5565   10.9810  S     
14   C        -1.7189    3.0210   11.8153  C     
15   N        -2.5025    3.5875   12.7595  N     
16   C        -2.2424    4.7810   13.3112  C     
17   C        -1.1180    5.5258   12.8841  C     
18   C        -0.2526    4.8731   11.9776  C     
19   N        -0.5910    3.6650   11.4444  N     
20   Cl       -6.8501    4.2749   16.9461  Cl    
21   N        -7.1627    1.3638   17.9756  N     
22   C        -0.8420    6.9413   13.2922  C     
23   C        -1.7391    7.5283   14.4168  C     
24   H        -6.4992    5.3288   14.4357  H     
25   H        -5.1545    0.6777   14.1464  H     
26   H        -5.6691    4.4723   12.3851  H     
27   H        -3.3759    0.6881   12.8152  H     
28   H        -4.0475    0.1490   11.2914  H     
29   H        -2.9092    5.1506   14.0012  H     
30   H         0.6112    5.3191   11.6620  H     
31   H        -8.0950    1.1463   17.7820  H     
32   H        -6.9263    1.7649   18.8284  H     
33   H         0.2097    7.0215   13.5943  H     
34   H        -0.9917    7.5666   12.4040  H     
35   H        -2.7911    7.4722   14.1113  H     
36   H        -1.4827    8.5890   14.5884  H     
37   H        -1.5926    6.9825   15.3548  H     
@<TRIPOS>BOND
     1    1    2 2
     2    1    3 2
     3    1    6 1
     4    1   21 am
     5    4    5 2
     6    4    9 1
     7    5    6 1
     8    5   20 1
     9    6    7 2
    10    7    8 1
    11    8    9 2
    12    8   10 1
    13   10   11 1
    14   10   12 2
    15   11   13 1
    16   13   14 1
    17   14   15 2
    18   14   19 1
    19   15   16 1
    20   16   17 2
    21   17   18 1
    22   17   22 1
    23   18   19 2
    24   22   23 1
    25    4   24 1
    26    7   25 1
    27    9   26 1
    28   11   27 1
    29   11   28 1
    30   16   29 1
    31   18   30 1
    32   21   31 1
    33   21   32 1
    34   22   33 1
    35   22   34 1
    36   23   35 1
    37   23   36 1
    38   23   37 1
@<TRIPOS>PROPERTY_DATA
  Total_Score	| 6.6641
  Crash		| -1.3549
  Polar		| 4.7107
  FragIndex	| 1
  FragRMSD	| 0.880

