@<TRIPOS>MOLECULE
BindingDB_50380153
 37 38 0 0 0
SMALL
NO_CHARGES


@<TRIPOS>ATOM
1    S        -5.9316    1.2164   16.8422  S     
2    O        -4.4397    1.0491   17.3828  O     
3    O        -6.2278   -0.2507   16.2996  O     
4    C        -6.2058    4.4716   14.4036  C     
5    C        -6.3283    3.6604   15.5443  C     
6    C        -5.9334    2.3047   15.4827  C     
7    C        -5.4265    1.7816   14.2632  C     
8    C        -5.3112    2.5956   13.1068  C     
9    C        -5.6805    3.9556   13.2161  C     
10   C        -4.7786    2.0958   11.9104  C     
11   C        -3.7909    1.0252   11.8426  C     
12   O        -5.1123    2.6215   10.8388  O     
13   S        -2.3617    1.4382   10.8146  S     
14   C        -1.6415    2.7488   11.7173  C     
15   N        -2.3207    3.5129   12.6081  N     
16   C        -1.7307    4.6055   13.2072  C     
17   C        -0.4001    4.9225   12.8836  C     
18   C         0.2839    4.1102   11.9548  C     
19   N        -0.3719    3.0563   11.4047  N     
20   Cl       -6.9758    4.3710   16.9454  Cl    
21   N        -6.9593    1.4787   18.1504  N     
22   C         1.6564    4.4121   11.5359  C     
23   C        -2.5656    5.4123   14.1132  C     
24   H        -6.4866    5.4463   14.4383  H     
25   H        -5.1857    0.7942   14.2202  H     
26   H        -5.5776    4.5828   12.4159  H     
27   H        -3.4049    0.7607   12.8316  H     
28   H        -4.2740    0.1401   11.4193  H     
29   H         0.0444    5.7492   13.2969  H     
30   H        -7.8466    1.0759   18.1672  H     
31   H        -6.6496    1.9730   18.9343  H     
32   H         1.6997    5.4004   11.0688  H     
33   H         2.0188    3.6836   10.8111  H     
34   H         2.3365    4.4028   12.3926  H     
35   H        -3.4395    5.8045   13.5711  H     
36   H        -2.0052    6.2641   14.5227  H     
37   H        -2.9199    4.7909   14.9482  H     
@<TRIPOS>BOND
     1    1    2 2
     2    1    3 2
     3    1    6 1
     4    1   21 am
     5    4    5 2
     6    4    9 1
     7    5    6 1
     8    5   20 1
     9    6    7 2
    10    7    8 1
    11    8    9 2
    12    8   10 1
    13   10   11 1
    14   10   12 2
    15   11   13 1
    16   13   14 1
    17   14   15 2
    18   14   19 1
    19   15   16 1
    20   16   17 2
    21   16   23 1
    22   17   18 1
    23   18   19 2
    24   18   22 1
    25    4   24 1
    26    7   25 1
    27    9   26 1
    28   11   27 1
    29   11   28 1
    30   17   29 1
    31   21   30 1
    32   21   31 1
    33   22   32 1
    34   22   33 1
    35   22   34 1
    36   23   35 1
    37   23   36 1
    38   23   37 1
@<TRIPOS>PROPERTY_DATA
  Total_Score	| 7.6767
  Crash		| -1.1534
  Polar		| 5.1245
  FragIndex	| 1
  FragRMSD	| 0.806

