@<TRIPOS>MOLECULE
BindingDB_50380151
 40 41 0 0 0
SMALL
NO_CHARGES


@<TRIPOS>ATOM
1    S        -5.9806    1.1284   16.7896  S     
2    O        -4.5713    1.2141   17.5211  O     
3    O        -6.1056   -0.4053   16.3892  O     
4    C        -6.2153    4.3680   14.3288  C     
5    C        -6.3128    3.5557   15.4753  C     
6    C        -5.9408    2.1956   15.4028  C     
7    C        -5.4466    1.6810   14.1792  C     
8    C        -5.3008    2.4896   13.0288  C     
9    C        -5.7145    3.8403   13.1243  C     
10   C        -4.7232    2.0162   11.8419  C     
11   C        -3.6722    1.0051   11.8117  C     
12   O        -4.9652    2.5923   10.7872  O     
13   S        -2.1278    1.5451   11.0195  S     
14   C        -1.7767    3.0408   11.8428  C     
15   N        -2.6651    3.6111   12.6935  N     
16   C        -2.4445    4.8301   13.2531  C     
17   C        -1.2641    5.5572   12.9524  C     
18   C        -0.3472    4.9184   12.0935  C     
19   N        -0.6217    3.6994   11.5594  N     
20   Cl       -6.8529    4.2965   16.9019  Cl    
21   N        -7.0958    1.4036   18.0075  N     
22   C        -0.9712    6.9371   13.4486  C     
23   C        -1.8727    7.4763   14.5943  C     
24   C        -1.1827    8.5326   15.4852  C     
25   H        -6.4710    5.3583   14.3652  H     
26   H        -5.1924    0.6873   14.1284  H     
27   H        -5.6082    4.4752   12.3283  H     
28   H        -3.4006    0.6669   12.8123  H     
29   H        -4.0410    0.1388   11.2604  H     
30   H        -3.1674    5.2057   13.8713  H     
31   H         0.5304    5.3692   11.8326  H     
32   H        -8.0105    1.0938   17.9056  H     
33   H        -6.8039    1.7869   18.8525  H     
34   H         0.0646    6.9542   13.7927  H     
35   H        -1.0520    7.6198   12.6005  H     
36   H        -2.7717    7.9218   14.1556  H     
37   H        -2.1711    6.6411   15.2318  H     
38   H        -0.3237    8.0962   16.0046  H     
39   H        -1.8885    8.8928   16.2369  H     
40   H        -0.8459    9.3832   14.8916  H     
@<TRIPOS>BOND
     1    1    2 2
     2    1    3 2
     3    1    6 1
     4    1   21 am
     5    4    5 2
     6    4    9 1
     7    5    6 1
     8    5   20 1
     9    6    7 2
    10    7    8 1
    11    8    9 2
    12    8   10 1
    13   10   11 1
    14   10   12 2
    15   11   13 1
    16   13   14 1
    17   14   15 2
    18   14   19 1
    19   15   16 1
    20   16   17 2
    21   17   18 1
    22   17   22 1
    23   18   19 2
    24   22   23 1
    25   23   24 1
    26    4   25 1
    27    7   26 1
    28    9   27 1
    29   11   28 1
    30   11   29 1
    31   16   30 1
    32   18   31 1
    33   21   32 1
    34   21   33 1
    35   22   34 1
    36   22   35 1
    37   23   36 1
    38   23   37 1
    39   24   38 1
    40   24   39 1
    41   24   40 1
@<TRIPOS>PROPERTY_DATA
  Total_Score	| 7.1870
  Crash		| -1.6727
  Polar		| 4.7692
  FragIndex	| 1
  FragRMSD	| 0.903

