@<TRIPOS>MOLECULE
BindingDB_50380143
 37 38 0 0 0
SMALL
NO_CHARGES


@<TRIPOS>ATOM
1    S        -6.4309    2.2223   17.1633  S     
2    O        -5.2286    1.6316   18.0258  O     
3    O        -7.6279    1.1905   17.3636  O     
4    N        -6.8707    3.6973   17.8406  N     
5    C        -5.4037    1.1013   14.9004  C     
6    C        -5.9387    2.2577   15.4994  C     
7    C        -6.0728    3.4317   14.7317  C     
8    C        -5.6661    3.4430   13.3876  C     
9    C        -5.1133    2.2920   12.7705  C     
10   C        -4.9956    1.1173   13.5542  C     
11   C        -4.6862    2.3423   11.4390  C     
12   C        -3.5519    1.6452   10.8441  C     
13   O        -5.3908    2.9619   10.6474  O     
14   S        -2.1195    1.2811   11.8958  S     
15   C        -1.5433    2.8818   12.2232  C     
16   N        -2.2939    3.7754   12.9187  N     
17   C        -1.8225    5.0063   13.2467  C     
18   C        -0.5072    5.3619   12.8684  C     
19   C         0.2672    4.4165   12.1608  C     
20   N        -0.2736    3.2025   11.8700  N     
21   C         1.6507    4.7211   11.7476  C     
22   C        -2.7167    5.9140   13.9914  C     
23   H        -7.7497    4.0746   17.6485  H     
24   H        -6.3279    4.0938   18.5409  H     
25   H        -5.3010    0.2366   15.4400  H     
26   H        -6.4573    4.2811   15.1425  H     
27   H        -5.7808    4.3073   12.8521  H     
28   H        -4.6322    0.2528   13.1444  H     
29   H        -3.9113    0.6979   10.4349  H     
30   H        -3.1573    2.2372   10.0096  H     
31   H        -0.1219    6.2772   13.1110  H     
32   H         1.6563    5.5923   11.0851  H     
33   H         2.0891    3.8802   11.2039  H     
34   H         2.2619    4.9248   12.6278  H     
35   H        -3.6013    6.1250   13.3830  H     
36   H        -2.2287    6.8634   14.2316  H     
37   H        -3.0224    5.4335   14.9235  H     
@<TRIPOS>BOND
     1    1    2 2
     2    1    3 2
     3    1    4 am
     4    1    6 1
     5    5    6 2
     6    5   10 1
     7    6    7 1
     8    7    8 2
     9    8    9 1
    10    9   10 2
    11    9   11 1
    12   11   12 1
    13   11   13 2
    14   12   14 1
    15   14   15 1
    16   15   16 2
    17   15   20 1
    18   16   17 1
    19   17   18 2
    20   17   22 1
    21   18   19 1
    22   19   20 2
    23   19   21 1
    24    4   23 1
    25    4   24 1
    26    5   25 1
    27    7   26 1
    28    8   27 1
    29   10   28 1
    30   12   29 1
    31   12   30 1
    32   18   31 1
    33   21   32 1
    34   21   33 1
    35   21   34 1
    36   22   35 1
    37   22   36 1
    38   22   37 1
@<TRIPOS>PROPERTY_DATA
  Total_Score	| 4.8459
  Crash		| -1.5727
  Polar		| 2.7391
  FragIndex	| 1
  FragRMSD	| 0.767

