@<TRIPOS>MOLECULE
BindingDB_50380146
 44 45 0 0 0
SMALL
NO_CHARGES


@<TRIPOS>ATOM
1    S        -5.9653    1.1695   16.8792  S     
2    O        -4.4774    1.0370   17.4281  O     
3    O        -6.2722   -0.3042   16.3678  O     
4    C        -6.3576    4.4518   14.4956  C     
5    C        -6.4132    3.6254   15.6286  C     
6    C        -5.9584    2.2827   15.5358  C     
7    C        -5.4137    1.8202   14.3149  C     
8    C        -5.3277    2.6535   13.1717  C     
9    C        -5.8571    3.9618   13.2818  C     
10   C        -4.7126    2.2412   11.9837  C     
11   C        -3.5975    1.2959   11.9553  C     
12   O        -5.1073    2.6925   10.9144  O     
13   S        -2.3542    1.6064   10.6750  S     
14   C        -1.5199    2.9875   11.3283  C     
15   N        -2.1237    4.0821   11.8653  N     
16   C        -1.4319    5.1788   12.2796  C     
17   C        -0.0773    5.1394   12.1802  C     
18   C         0.5429    4.0465   11.6413  C     
19   N        -0.1683    3.0173   11.2020  N     
20   Cl       -7.0045    4.3187   17.0573  Cl    
21   N        -6.9490    1.4026   18.2202  N     
22   O         1.7616    4.0134   11.5334  O     
23   C        -2.1432    6.4015   12.7449  C     
24   C        -1.8861    7.5894   11.7555  C     
25   C        -3.6877    6.1974   12.8265  C     
26   C        -1.6641    6.8202   14.1750  C     
27   H        -6.6654    5.4219   14.5425  H     
28   H        -5.0787    0.8549   14.2580  H     
29   H        -5.8146    4.6100   12.4848  H     
30   H        -3.0812    1.2591   12.9144  H     
31   H        -4.0153    0.3030   11.7667  H     
32   H         0.4708    5.9206   12.4435  H     
33   H         0.2819    2.2749   10.7728  H     
34   H        -7.8480    1.0438   18.2297  H     
35   H        -6.6633    2.0154   18.9248  H     
36   H        -0.8279    7.8577   11.7130  H     
37   H        -2.4342    8.4844   12.0639  H     
38   H        -2.2075    7.3295   10.7437  H     
39   H        -4.0944    5.8902   11.8569  H     
40   H        -4.2020    7.1139   13.1250  H     
41   H        -3.9224    5.4326   13.5690  H     
42   H        -1.7894    5.9921   14.8754  H     
43   H        -2.2319    7.6752   14.5492  H     
44   H        -0.6130    7.1108   14.1755  H     
@<TRIPOS>BOND
     1    1    2 2
     2    1    3 2
     3    1    6 1
     4    1   21 am
     5    4    5 2
     6    4    9 1
     7    5    6 1
     8    5   20 1
     9    6    7 2
    10    7    8 1
    11    8    9 2
    12    8   10 1
    13   10   11 1
    14   10   12 2
    15   11   13 1
    16   13   14 1
    17   14   15 2
    18   14   19 1
    19   15   16 1
    20   16   17 2
    21   16   23 1
    22   17   18 1
    23   18   19 1
    24   18   22 2
    25   23   24 1
    26   23   25 1
    27   23   26 1
    28    4   27 1
    29    7   28 1
    30    9   29 1
    31   11   30 1
    32   11   31 1
    33   17   32 1
    34   19   33 1
    35   21   34 1
    36   21   35 1
    37   24   36 1
    38   24   37 1
    39   24   38 1
    40   25   39 1
    41   25   40 1
    42   25   41 1
    43   26   42 1
    44   26   43 1
    45   26   44 1
@<TRIPOS>PROPERTY_DATA
  Total_Score	| 5.9033
  Crash		| -2.2286
  Polar		| 5.1384
  FragIndex	| 1
  FragRMSD	| 1.009

