@<TRIPOS>MOLECULE
BindingDB_50380140
 31 32 0 0 0
SMALL
NO_CHARGES


@<TRIPOS>ATOM
1    S        -6.0034    1.1663   16.8245  S     
2    O        -4.5732    1.2461   17.5150  O     
3    O        -6.1465   -0.3656   16.4351  O     
4    C        -6.2000    4.4334   14.3797  C     
5    C        -6.3059    3.6183   15.5262  C     
6    C        -5.9516    2.2483   15.4495  C     
7    C        -5.4704    1.7304   14.2276  C     
8    C        -5.3254    2.5502   13.0706  C     
9    C        -5.7217    3.9056   13.1732  C     
10   C        -4.8216    2.0544   11.8613  C     
11   C        -3.8578    0.9473   11.7508  C     
12   O        -5.1162    2.6187   10.8023  O     
13   S        -2.3696    1.3393   10.7718  S     
14   C        -1.6712    2.6655   11.6497  C     
15   N        -2.3342    3.3736   12.6038  N     
16   C        -1.7550    4.4096   13.2702  C     
17   C        -0.4258    4.7616   12.9810  C     
18   C         0.2561    4.0032   12.0095  C     
19   N        -0.3778    2.9936   11.3656  N     
20   Cl       -6.8628    4.3458   16.9492  Cl    
21   N        -7.0804    1.4756   18.0769  N     
22   H        -6.4476    5.4174   14.4319  H     
23   H        -5.2329    0.7377   14.1615  H     
24   H        -5.6251    4.5417   12.3804  H     
25   H        -3.5288    0.5829   12.7233  H     
26   H        -4.3799    0.1082   11.2504  H     
27   H        -2.2704    4.8967   13.9959  H     
28   H         0.0425    5.5248   13.4761  H     
29   H         1.2331    4.2055   11.7905  H     
30   H        -7.9898    1.1418   18.0204  H     
31   H        -6.7226    1.7621   18.9391  H     
@<TRIPOS>BOND
     1    1    2 2
     2    1    3 2
     3    1    6 1
     4    1   21 am
     5    4    5 2
     6    4    9 1
     7    5    6 1
     8    5   20 1
     9    6    7 2
    10    7    8 1
    11    8    9 2
    12    8   10 1
    13   10   11 1
    14   10   12 2
    15   11   13 1
    16   13   14 1
    17   14   15 2
    18   14   19 1
    19   15   16 1
    20   16   17 2
    21   17   18 1
    22   18   19 2
    23    4   22 1
    24    7   23 1
    25    9   24 1
    26   11   25 1
    27   11   26 1
    28   16   27 1
    29   17   28 1
    30   18   29 1
    31   21   30 1
    32   21   31 1
@<TRIPOS>PROPERTY_DATA
  Total_Score	| 6.7215
  Crash		| -1.2788
  Polar		| 5.0736
  FragIndex	| 1
  FragRMSD	| 0.843

