@<TRIPOS>MOLECULE
BindingDB_50380155
 41 42 0 0 0
SMALL
NO_CHARGES


@<TRIPOS>ATOM
1    S        -6.1414    1.0733   16.7381  S     
2    O        -5.1136    1.2667   17.9339  O     
3    O        -5.8509   -0.3987   16.2111  O     
4    C        -6.2028    4.4632   14.4895  C     
5    C        -6.3414    3.5859   15.5787  C     
6    C        -5.9513    2.2307   15.4381  C     
7    C        -5.4105    1.7932   14.2083  C     
8    C        -5.2517    2.6707   13.1055  C     
9    C        -5.6832    4.0075   13.2647  C     
10   C        -4.6872    2.2379   11.9000  C     
11   C        -3.6441    1.2183   11.8077  C     
12   O        -5.0888    2.7204   10.8467  O     
13   S        -2.2912    1.6297   10.6691  S     
14   C        -1.5090    2.9535   11.4893  C     
15   N        -2.1042    3.6799   12.4752  N     
16   C        -1.4605    4.6889   13.0999  C     
17   C        -0.1848    4.9746   12.7445  C     
18   C         0.4113    4.2700   11.7348  C     
19   N        -0.2401    3.2803   11.1285  N     
20   Cl       -6.9742    4.2202   17.0203  Cl    
21   N        -7.6972    0.9490   17.3536  N     
22   O         1.5496    4.5333   11.3782  O     
23   C        -2.1159    5.3606   14.2147  C     
24   C        -2.3703    6.8862   14.0089  C     
25   C        -2.4219    7.6574   15.3469  C     
26   H        -6.4666    5.4461   14.5827  H     
27   H        -5.1545    0.8068   14.1023  H     
28   H        -5.5898    4.6784   12.4968  H     
29   H        -3.1938    1.0023   12.7811  H     
30   H        -4.1066    0.2992   11.4447  H     
31   H         0.3319    5.6745   13.2319  H     
32   H         0.2009    2.7807   10.4226  H     
33   H        -8.2382    0.1716   17.1312  H     
34   H        -8.0052    1.5742   18.0300  H     
35   H        -3.0759    4.8849   14.4391  H     
36   H        -1.4843    5.2004   15.0924  H     
37   H        -1.5831    7.3319   13.3963  H     
38   H        -3.3174    7.0250   13.4810  H     
39   H        -3.2277    7.2753   15.9777  H     
40   H        -2.5906    8.7206   15.1626  H     
41   H        -1.4733    7.5523   15.8817  H     
@<TRIPOS>BOND
     1    1    2 2
     2    1    3 2
     3    1    6 1
     4    1   21 am
     5    4    5 2
     6    4    9 1
     7    5    6 1
     8    5   20 1
     9    6    7 2
    10    7    8 1
    11    8    9 2
    12    8   10 1
    13   10   11 1
    14   10   12 2
    15   11   13 1
    16   13   14 1
    17   14   15 2
    18   14   19 1
    19   15   16 1
    20   16   17 2
    21   16   23 1
    22   17   18 1
    23   18   19 1
    24   18   22 2
    25   23   24 1
    26   24   25 1
    27    4   26 1
    28    7   27 1
    29    9   28 1
    30   11   29 1
    31   11   30 1
    32   17   31 1
    33   19   32 1
    34   21   33 1
    35   21   34 1
    36   23   35 1
    37   23   36 1
    38   24   37 1
    39   24   38 1
    40   25   39 1
    41   25   40 1
    42   25   41 1
@<TRIPOS>PROPERTY_DATA
  Total_Score	| 7.1029
  Crash		| -1.9132
  Polar		| 4.8626
  FragIndex	| 1
  FragRMSD	| 0.673

