@<TRIPOS>MOLECULE
BindingDB_50380139
 33 34 0 0 0
SMALL
NO_CHARGES


@<TRIPOS>ATOM
1    S        -5.9196    1.2098   16.8484  S     
2    O        -4.4446    1.0187   17.4051  O     
3    O        -6.3039   -0.2515   16.3638  O     
4    C        -6.2256    4.4856   14.4334  C     
5    C        -6.3287    3.6575   15.5706  C     
6    C        -5.9067    2.3080   15.4921  C     
7    C        -5.3846    1.8277   14.2725  C     
8    C        -5.2524    2.6491   13.1236  C     
9    C        -5.7023    3.9872   13.2276  C     
10   C        -4.6784    2.1744   11.9374  C     
11   C        -3.6387    1.1570   11.9019  C     
12   O        -5.0256    2.6502   10.8606  O     
13   S        -2.2429    1.5238   10.8067  S     
14   C        -1.4243    2.8714   11.5680  C     
15   C        -0.2506    3.3641   10.9519  C     
16   C         0.4317    4.4746   11.4832  C     
17   C        -0.0560    5.1200   12.6303  C     
18   C        -1.1957    4.6121   13.2812  C     
19   C        -1.8652    3.4779   12.7629  C     
20   Cl       -6.9510    4.3567   16.9863  Cl    
21   N        -6.9166    1.4786   18.1699  N     
22   H        -6.5128    5.4662   14.4802  H     
23   H        -5.1009    0.8484   14.2199  H     
24   H        -5.6260    4.6244   12.4298  H     
25   H        -3.2216    0.9971   12.8905  H     
26   H        -4.0834    0.2080   11.5651  H     
27   H         0.1115    2.9269   10.1023  H     
28   H         1.2782    4.8222   11.0265  H     
29   H         0.4234    5.9520   12.9885  H     
30   H        -1.5336    5.0710   14.1315  H     
31   H        -2.6813    3.0812   13.2554  H     
32   H        -7.7626    1.0149   18.2314  H     
33   H        -6.6308    2.0730   18.8777  H     
@<TRIPOS>BOND
     1    1    2 2
     2    1    3 2
     3    1    6 1
     4    1   21 am
     5    4    5 2
     6    4    9 1
     7    5    6 1
     8    5   20 1
     9    6    7 2
    10    7    8 1
    11    8    9 2
    12    8   10 1
    13   10   11 1
    14   10   12 2
    15   11   13 1
    16   13   14 1
    17   14   15 2
    18   14   19 1
    19   15   16 1
    20   16   17 2
    21   17   18 1
    22   18   19 2
    23    4   22 1
    24    7   23 1
    25    9   24 1
    26   11   25 1
    27   11   26 1
    28   15   27 1
    29   16   28 1
    30   17   29 1
    31   18   30 1
    32   19   31 1
    33   21   32 1
    34   21   33 1
@<TRIPOS>PROPERTY_DATA
  Total_Score	| 6.8186
  Crash		| -1.2521
  Polar		| 5.0509
  FragIndex	| 1
  FragRMSD	| 0.952

