@<TRIPOS>MOLECULE
BindingDB_50380159
 41 42 0 0 0
SMALL
NO_CHARGES


@<TRIPOS>ATOM
1    S        -6.0187    1.1326   16.8272  S     
2    O        -4.6177    1.1844   17.5724  O     
3    O        -6.1636   -0.3864   16.3839  O     
4    C        -6.2217    4.4140   14.4120  C     
5    C        -6.3400    3.5926   15.5492  C     
6    C        -5.9201    2.2428   15.4783  C     
7    C        -5.3693    1.7571   14.2724  C     
8    C        -5.2281    2.5738   13.1213  C     
9    C        -5.6802    3.9098   13.2167  C     
10   C        -4.6748    2.0834   11.9318  C     
11   C        -3.6832    1.0136   11.8736  C     
12   O        -4.9562    2.6384   10.8744  O     
13   S        -2.3120    1.3165   10.7249  S     
14   C        -1.6007    2.7584   11.3942  C     
15   N        -2.2053    3.5034   12.3527  N     
16   C        -1.6407    4.6312   12.8060  C     
17   C        -0.4659    5.0996   12.3125  C     
18   C         0.1502    4.3197   11.3419  C     
19   N        -0.4009    3.1820   10.9216  N     
20   Cl       -6.9965    4.2908   16.9488  Cl    
21   N        -7.1740    1.4014   18.0113  N     
22   O         1.1914    4.6310   10.7840  O     
23   C         0.0795    6.3083   12.7762  C     
24   O         1.2920    6.7559   12.3672  O     
25   O        -0.6143    7.0812   13.6568  O     
26   C        -0.2185    8.3240   14.2423  C     
27   C        -0.9434    8.4794   15.5895  C     
28   H        -6.5279    5.3918   14.4444  H     
29   H        -5.0868    0.7751   14.2222  H     
30   H        -5.6015    4.5425   12.4160  H     
31   H        -3.2319    0.8244   12.8483  H     
32   H        -4.1795    0.0912   11.5623  H     
33   H        -2.1241    5.1165   13.5238  H     
34   H         0.0536    2.6531   10.2515  H     
35   H        -8.1056    1.2237   17.8221  H     
36   H        -6.9136    1.7829   18.8617  H     
37   H         0.8622    8.3275   14.4028  H     
38   H        -0.4859    9.1502   13.5796  H     
39   H        -2.0245    8.4880   15.4348  H     
40   H        -0.6434    9.4111   16.0702  H     
41   H        -0.6813    7.6463   16.2404  H     
@<TRIPOS>BOND
     1    1    2 2
     2    1    3 2
     3    1    6 1
     4    1   21 am
     5    4    5 2
     6    4    9 1
     7    5    6 1
     8    5   20 1
     9    6    7 2
    10    7    8 1
    11    8    9 2
    12    8   10 1
    13   10   11 1
    14   10   12 2
    15   11   13 1
    16   13   14 1
    17   14   15 2
    18   14   19 1
    19   15   16 1
    20   16   17 2
    21   17   18 1
    22   17   23 1
    23   18   19 1
    24   18   22 2
    25   23   24 2
    26   23   25 1
    27   25   26 1
    28   26   27 1
    29    4   28 1
    30    7   29 1
    31    9   30 1
    32   11   31 1
    33   11   32 1
    34   16   33 1
    35   19   34 1
    36   21   35 1
    37   21   36 1
    38   26   37 1
    39   26   38 1
    40   27   39 1
    41   27   40 1
    42   27   41 1
@<TRIPOS>PROPERTY_DATA
  Total_Score	| 7.9575
  Crash		| -1.5287
  Polar		| 4.8864
  FragIndex	| 1
  FragRMSD	| 0.882

