@<TRIPOS>MOLECULE
BindingDB_50329835
 36 38 0 0 0
SMALL
NO_CHARGES


@<TRIPOS>ATOM
1    C        -6.0938    4.3421   14.2876  C     
2    C        -6.2393    3.5360   15.4307  C     
3    C        -5.9391    2.1537   15.3544  C     
4    C        -5.4646    1.6181   14.1359  C     
5    C        -5.2855    2.4240   12.9864  C     
6    C        -5.6274    3.7956   13.0858  C     
7    Cl       -6.7910    4.3012   16.8415  Cl    
8    C        -4.7683    1.8989   11.7867  C     
9    C        -3.7797    0.8116   11.7323  C     
10   O        -4.9774    2.5082   10.7442  O     
11   S        -6.1130    1.0655   16.7146  S     
12   N        -7.4927    1.2354   17.6514  N     
13   O        -6.0168   -0.4632   16.3005  O     
14   O        -4.8836    1.3403   17.6801  O     
15   S        -2.2515    1.2078   10.8135  S     
16   C        -1.6743    2.6349   11.6371  C     
17   N        -0.5884    3.3498   11.2886  N     
18   N        -2.3021    3.2560   12.6446  N     
19   C        -1.6440    4.3604   12.9188  C     
20   C        -0.5447    4.4436   12.0700  C     
21   C        -1.1222    6.5110   13.8863  C     
22   C        -1.9576    5.3735   13.8322  C     
23   C         0.0036    6.6002   13.0354  C     
24   C         0.3095    5.5627   12.1218  C     
25   Br       -1.5504    7.9039   15.0464  Br    
26   H        -6.3173    5.3416   14.3258  H     
27   H        -5.2671    0.6148   14.0766  H     
28   H        -5.5071    4.4222   12.2862  H     
29   H        -3.4738    0.4750   12.7161  H     
30   H        -4.2528   -0.0358   11.2283  H     
31   H        -7.4141    1.3002   18.6170  H     
32   H        -8.3478    1.4112   17.2233  H     
33   H         0.0292    3.1384   10.5710  H     
34   H        -2.7906    5.3099   14.4149  H     
35   H         0.5972    7.4356   13.0698  H     
36   H         1.1094    5.6392   11.4946  H     
@<TRIPOS>BOND
     1    1    2 2
     2    1    6 1
     3    2    3 1
     4    2    7 1
     5    3    4 2
     6    3   11 1
     7    4    5 1
     8    5    6 2
     9    5    8 1
    10    8    9 1
    11    8   10 2
    12    9   15 1
    13   11   12 am
    14   11   13 2
    15   11   14 2
    16   15   16 1
    17   16   17 1
    18   16   18 2
    19   17   20 1
    20   18   19 1
    21   19   20 2
    22   19   22 1
    23   20   24 1
    24   21   22 2
    25   21   23 1
    26   21   25 1
    27   23   24 2
    28    1   26 1
    29    4   27 1
    30    6   28 1
    31    9   29 1
    32    9   30 1
    33   12   31 1
    34   12   32 1
    35   17   33 1
    36   22   34 1
    37   23   35 1
    38   24   36 1
@<TRIPOS>PROPERTY_DATA
  Total_Score	| 7.3065
  Crash		| -1.2697
  Polar		| 4.8223
  FragIndex	| 1
  FragRMSD	| 1.458

