@<TRIPOS>MOLECULE
BindingDB_50380158
 35 36 0 0 0
SMALL
NO_CHARGES


@<TRIPOS>ATOM
1    O        -4.5262    1.1671   17.4673  O     
2    S        -5.9816    1.1785   16.8283  S     
3    O        -6.1840   -0.3352   16.3818  O     
4    C        -5.9460    2.2685   15.4617  C     
5    C        -6.3392    3.6291   15.5437  C     
6    C        -6.2277    4.4493   14.4037  C     
7    C        -5.7271    3.9351   13.1959  C     
8    C        -5.3030    2.5876   13.0871  C     
9    C        -5.4361    1.7718   14.2391  C     
10   C        -4.7857    2.0911   11.8822  C     
11   O        -5.1128    2.6292   10.8280  O     
12   C        -3.8278    0.9995   11.7871  C     
13   S        -2.3709    1.3842   10.7794  S     
14   C        -1.6762    2.7299   11.6418  C     
15   N        -2.3277    3.4326   12.6054  N     
16   C        -1.7520    4.4931   13.2191  C     
17   C        -0.4934    4.8602   12.8736  C     
18   C         0.1652    4.1577   11.9028  C     
19   N        -0.4206    3.1233   11.2979  N     
20   O         1.2964    4.4650   11.5624  O     
21   C        -2.5346    5.1941   14.2207  C     
22   Cl       -6.9327    4.3401   16.9607  Cl    
23   N        -7.0374    1.4353   18.1094  N     
24   H        -6.5028    5.4341   14.4486  H     
25   H        -5.6456    4.5719   12.4022  H     
26   H        -5.1636    0.7892   14.1887  H     
27   H        -3.4589    0.6854   12.7620  H     
28   H        -4.3224    0.1437   11.3273  H     
29   H        -0.0463    5.6339   13.3138  H     
30   H         0.0555    2.6482   10.6000  H     
31   H        -3.4335    5.6022   13.7599  H     
32   H        -1.9840    6.0180   14.6797  H     
33   H        -2.8245    4.4952   15.0055  H     
34   H        -7.9238    1.0440   18.0859  H     
35   H        -6.7066    1.8427   18.9278  H     
@<TRIPOS>BOND
     1    1    2 2
     2    2    3 2
     3    2    4 1
     4    2   23 am
     5    4    5 1
     6    4    9 2
     7    5    6 2
     8    5   22 1
     9    6    7 1
    10    7    8 2
    11    8    9 1
    12    8   10 1
    13   10   11 2
    14   10   12 1
    15   12   13 1
    16   13   14 1
    17   14   15 2
    18   14   19 1
    19   15   16 1
    20   16   17 2
    21   16   21 1
    22   17   18 1
    23   18   19 1
    24   18   20 2
    25    6   24 1
    26    7   25 1
    27    9   26 1
    28   12   27 1
    29   12   28 1
    30   17   29 1
    31   19   30 1
    32   21   31 1
    33   21   32 1
    34   21   33 1
    35   23   34 1
    36   23   35 1
@<TRIPOS>PROPERTY_DATA
  Total_Score	| 7.0904
  Crash		| -1.2227
  Polar		| 5.0644
  FragIndex	| 1
  FragRMSD	| 0.837

