@<TRIPOS>MOLECULE
BindingDB_50329836
 41 44 0 0 0
SMALL
NO_CHARGES


@<TRIPOS>ATOM
1    C        -6.2134    4.4558   14.3762  C     
2    C        -6.3291    3.6413   15.5192  C     
3    C        -5.9376    2.2819   15.4508  C     
4    C        -5.4197    1.7771   14.2371  C     
5    C        -5.2753    2.5861   13.0827  C     
6    C        -5.6991    3.9351   13.1760  C     
7    Cl       -6.9210    4.3666   16.9340  Cl    
8    C        -4.7205    2.0827   11.8944  C     
9    C        -3.7089    1.0283   11.8445  C     
10   O        -5.0593    2.5790   10.8252  O     
11   S        -5.9887    1.1933   16.8168  S     
12   N        -7.0645    1.4329   18.0802  N     
13   O        -6.1663   -0.3192   16.3660  O     
14   O        -4.5442    1.1890   17.4730  O     
15   S        -2.2951    1.3562   10.7576  S     
16   C        -1.5548    2.7399   11.5063  C     
17   N        -2.0568    3.5447   12.4628  N     
18   N        -0.3759    3.2307   11.0733  N     
19   C        -0.1453    4.3561   11.7658  C     
20   C        -1.2148    4.5685   12.6349  C     
21   N         0.8228    6.3781   12.4298  N     
22   C         0.8848    5.2775   11.6888  C     
23   C        -0.2038    6.6586   13.2907  C     
24   C        -1.2808    5.7373   13.4326  C     
25   C        -2.3442    6.0255   14.3124  C     
26   C        -2.3303    7.2200   15.0581  C     
27   C        -1.2616    8.1264   14.9270  C     
28   C        -0.2020    7.8497   14.0428  C     
29   H        -6.4869    5.4420   14.4128  H     
30   H        -5.1566    0.7895   14.1922  H     
31   H        -5.6099    4.5655   12.3751  H     
32   H        -3.2951    0.7982   12.8270  H     
33   H        -4.1937    0.1236   11.4744  H     
34   H        -6.7593    1.8621   18.8968  H     
35   H        -7.9352    1.0078   18.0545  H     
36   H        -2.9050    3.4377   12.9164  H     
37   H         1.6493    5.1332   11.0739  H     
38   H        -3.1242    5.3740   14.4174  H     
39   H        -3.0968    7.4277   15.7027  H     
40   H        -1.2563    8.9900   15.4738  H     
41   H         0.5697    8.5144   13.9535  H     
@<TRIPOS>BOND
     1    1    2 2
     2    1    6 1
     3    2    3 1
     4    2    7 1
     5    3    4 2
     6    3   11 1
     7    4    5 1
     8    5    6 2
     9    5    8 1
    10    8    9 1
    11    8   10 2
    12    9   15 1
    13   11   12 am
    14   11   13 2
    15   11   14 2
    16   15   16 1
    17   16   17 1
    18   16   18 2
    19   17   20 1
    20   18   19 1
    21   19   20 2
    22   19   22 1
    23   20   24 1
    24   21   22 2
    25   21   23 1
    26   23   24 1
    27   23   28 2
    28   24   25 2
    29   25   26 1
    30   26   27 2
    31   27   28 1
    32    1   29 1
    33    4   30 1
    34    6   31 1
    35    9   32 1
    36    9   33 1
    37   12   34 1
    38   12   35 1
    39   17   36 1
    40   22   37 1
    41   25   38 1
    42   26   39 1
    43   27   40 1
    44   28   41 1
@<TRIPOS>PROPERTY_DATA
  Total_Score	| 8.2280
  Crash		| -1.4112
  Polar		| 5.1583
  FragIndex	| 1
  FragRMSD	| 0.929

