@<TRIPOS>MOLECULE
BindingDB_26326
 43 46 0 0 0
SMALL
NO_CHARGES


@<TRIPOS>ATOM
1    C        -5.0961   30.2433   79.3795  C     
2    C        -3.7793   30.7455   77.4534  C     
3    C        -4.3959   31.2366   80.0922  C     
4    C        -3.2803   32.8054   81.5017  C     
5    C        -2.7706   32.8306   80.2653  C     
6    C        -3.3883   31.9445   79.4385  C     
7    S        -4.5535   31.6974   81.7577  S     
8    N        -4.7549   30.0356   78.0761  N     
9    N        -3.0942   31.7011   78.1373  N     
10   N        -6.0432   29.5024   80.0021  N     
11   C        -6.6793   28.3327   79.4879  C     
12   C        -8.0516   28.6242   78.8128  C     
13   C        -8.8917   27.4014   78.7643  C     
14   C        -9.6321   26.8952   79.8418  C     
15   S        -9.0859   26.2567   77.4994  S     
16   N       -10.2200   25.6895   79.6374  N     
17   C       -10.0661   25.1642   78.4091  C     
18   C       -10.5478   23.2790   76.9956  C     
19   O       -10.0187   23.7559   76.0042  O     
20   C       -11.7753   21.2875   77.7174  C     
21   C       -13.6129   19.6926   78.0615  C     
22   C       -12.9218   20.6076   77.2471  C     
23   C       -11.3131   21.0061   79.0217  C     
24   C       -12.0007   20.0897   79.8469  C     
25   C       -13.1497   19.4324   79.3672  C     
26   N       -11.1213   22.0936   76.8283  N     
27   N       -10.6065   23.9616   78.1239  N     
28   Cl      -14.9985   18.9185   77.4688  Cl    
29   H        -3.5580   30.5613   76.4761  H     
30   H        -2.9089   33.3556   82.2356  H     
31   H        -1.9981   33.3936   80.0006  H     
32   H        -6.2525   29.7336   80.9214  H     
33   H        -6.0262   27.8096   78.7825  H     
34   H        -6.8141   27.6651   80.3467  H     
35   H        -8.5969   29.3847   79.3785  H     
36   H        -7.8811   29.0058   77.8022  H     
37   H        -9.6739   27.3619   80.7518  H     
38   H       -13.2527   20.7930   76.2970  H     
39   H       -10.4474   21.4284   79.3636  H     
40   H       -11.6502   19.8885   80.7859  H     
41   H       -13.6384   18.7671   79.9707  H     
42   H       -11.1482   21.7854   75.9094  H     
43   H       -11.0955   23.5428   78.8471  H     
@<TRIPOS>BOND
     1    1    3 2
     2    1    8 1
     3    1   10 1
     4    2    8 2
     5    2    9 1
     6    3    6 1
     7    3    7 1
     8    4    5 2
     9    4    7 1
    10    5    6 1
    11    6    9 2
    12   10   11 1
    13   11   12 1
    14   12   13 1
    15   13   14 2
    16   13   15 1
    17   14   16 1
    18   15   17 1
    19   16   17 2
    20   17   27 1
    21   18   19 2
    22   18   26 am
    23   18   27 am
    24   20   22 2
    25   20   23 1
    26   20   26 1
    27   21   22 1
    28   21   25 2
    29   21   28 1
    30   23   24 2
    31   24   25 1
    32    2   29 1
    33    4   30 1
    34    5   31 1
    35   10   32 1
    36   11   33 1
    37   11   34 1
    38   12   35 1
    39   12   36 1
    40   14   37 1
    41   22   38 1
    42   23   39 1
    43   24   40 1
    44   25   41 1
    45   26   42 1
    46   27   43 1
@<TRIPOS>PROPERTY_DATA
  Total_Score	| 6.4123
  Crash		| -1.3349
  Polar		| 1.6913
  FragIndex	| 1
  FragRMSD	| 1.291

