@<TRIPOS>MOLECULE
BindingDB_26327
 43 46 0 0 0
SMALL
NO_CHARGES


@<TRIPOS>ATOM
1    C        -5.0024   29.9691   79.3562  C     
2    C        -3.8022   30.5385   77.3721  C     
3    C        -4.3730   31.0445   80.0189  C     
4    C        -3.3696   32.7544   81.3361  C     
5    C        -2.9132   32.7907   80.0844  C     
6    C        -3.4638   31.8279   79.3065  C     
7    S        -4.5314   31.5433   81.6731  S     
8    N        -4.6851   29.7552   78.0477  N     
9    N        -3.1931   31.5759   78.0028  N     
10   N        -5.8644   29.1707   80.0279  N     
11   C        -6.5287   28.0121   79.5212  C     
12   C        -7.6636   28.3355   78.5107  C     
13   C        -8.5010   27.1502   78.2329  C     
14   C        -8.6635   26.4367   77.0375  C     
15   S        -9.4745   26.3301   79.3831  S     
16   N        -9.4633   25.3389   77.1078  N     
17   C       -10.0194   25.0900   78.3162  C     
18   C       -11.4082   23.7146   79.7268  C     
19   O       -11.2932   24.4333   80.7103  O     
20   C       -12.5235   21.5864   79.1996  C     
21   C       -13.1880   20.5199   77.0998  C     
22   C       -12.7076   21.6410   77.8012  C     
23   C       -12.8732   20.3965   79.8769  C     
24   C       -13.3728   19.2812   79.1823  C     
25   C       -13.5328   19.3418   77.7889  C     
26   N       -12.1224   22.6311   79.9779  N     
27   N       -10.8090   24.0177   78.5743  N     
28   Cl      -14.2097   18.0320   76.9600  Cl    
29   H        -3.5892   30.3399   76.3964  H     
30   H        -3.0512   33.3790   82.0373  H     
31   H        -2.2243   33.4300   79.7634  H     
32   H        -6.0086   29.3750   80.9660  H     
33   H        -5.8001   27.3329   79.0709  H     
34   H        -6.9546   27.5080   80.3913  H     
35   H        -8.3065   29.1212   78.9140  H     
36   H        -7.2268   28.7041   77.5805  H     
37   H        -8.1977   26.7082   76.1710  H     
38   H       -13.3069   20.5865   76.0871  H     
39   H       -12.5510   22.5065   77.2864  H     
40   H       -12.7749   20.3331   80.8948  H     
41   H       -13.6317   18.4369   79.6996  H     
42   H       -12.3833   22.5458   80.9101  H     
43   H       -10.9166   23.3911   77.8445  H     
@<TRIPOS>BOND
     1    1    3 2
     2    1    8 1
     3    1   10 1
     4    2    8 2
     5    2    9 1
     6    3    6 1
     7    3    7 1
     8    4    5 2
     9    4    7 1
    10    5    6 1
    11    6    9 2
    12   10   11 1
    13   11   12 1
    14   12   13 1
    15   13   14 2
    16   13   15 1
    17   14   16 1
    18   15   17 1
    19   16   17 2
    20   17   27 1
    21   18   19 2
    22   18   26 am
    23   18   27 am
    24   20   22 2
    25   20   23 1
    26   20   26 1
    27   21   22 1
    28   21   25 2
    29   23   24 2
    30   24   25 1
    31   25   28 1
    32    2   29 1
    33    4   30 1
    34    5   31 1
    35   10   32 1
    36   11   33 1
    37   11   34 1
    38   12   35 1
    39   12   36 1
    40   14   37 1
    41   21   38 1
    42   22   39 1
    43   23   40 1
    44   24   41 1
    45   26   42 1
    46   27   43 1
@<TRIPOS>PROPERTY_DATA
  Total_Score	| 5.7701
  Crash		| -1.3480
  Polar		| 1.3883
  FragIndex	| 1
  FragRMSD	| 1.151

