@<TRIPOS>MOLECULE
BindingDB_26331
 47 51 0 0 0
SMALL
NO_CHARGES


@<TRIPOS>ATOM
1    C        -5.0198   29.8030   79.1027  C     
2    C        -3.5677   30.6790   77.4291  C     
3    C        -4.6583   30.8807   79.9511  C     
4    C        -3.9734   32.4994   81.5797  C     
5    C        -3.4266   32.7604   80.3908  C     
6    C        -3.7522   31.8308   79.4561  C     
7    S        -4.9434   31.0886   81.6516  S     
8    N        -4.4283   29.7355   77.8843  N     
9    N        -3.2406   31.7379   78.2049  N     
10   N        -5.9095   28.8146   79.3368  N     
11   C        -7.2740   28.9182   79.7357  C     
12   C        -8.2190   28.5047   78.5574  C     
13   C        -9.0197   27.2903   78.8055  C     
14   C        -9.8954   27.0471   79.8635  C     
15   S        -9.1390   25.9128   77.7831  S     
16   N       -10.5413   25.8475   79.8388  N     
17   C       -10.2739   25.0648   78.7727  C     
18   C       -10.8042   23.0709   77.5408  C     
19   O       -10.1873   23.4220   76.5420  O     
20   C       -12.1189   21.1313   78.2909  C     
21   C       -12.4917   20.1147   80.5064  C     
22   C       -11.8052   21.0203   79.6680  C     
23   C       -13.4883   19.2654   79.9862  C     
24   N       -11.4549   21.9254   77.4009  N     
25   N       -10.8746   23.8622   78.6031  N     
26   C       -13.7964   19.3631   78.6243  C     
27   C       -13.1210   20.2609   77.7898  C     
28   C       -14.6059   19.1979   76.5588  C     
29   C       -14.7250   18.6843   77.8453  C     
30   N       -13.6273   20.1279   76.5529  N     
31   H        -3.1749   30.5949   76.4974  H     
32   H        -3.8319   33.0762   82.3747  H     
33   H        -2.8247   33.5325   80.2195  H     
34   H        -5.5894   27.9082   79.1535  H     
35   H        -7.3725   28.2892   80.6190  H     
36   H        -7.5419   29.9468   80.0349  H     
37   H        -8.9187   29.3198   78.3493  H     
38   H        -7.6560   28.3665   77.6267  H     
39   H       -10.0474   27.7103   80.6188  H     
40   H       -12.2580   20.0708   81.4953  H     
41   H       -11.0589   21.5793   80.0834  H     
42   H       -13.9847   18.6112   80.5995  H     
43   H       -11.5208   21.6359   76.4807  H     
44   H       -11.4554   23.5917   79.3225  H     
45   H       -15.1709   18.9235   75.7565  H     
46   H       -15.3828   17.9663   78.1575  H     
47   H       -13.3562   20.6351   75.7761  H     
@<TRIPOS>BOND
     1    1    3 2
     2    1    8 1
     3    1   10 1
     4    2    8 2
     5    2    9 1
     6    3    6 1
     7    3    7 1
     8    4    5 2
     9    4    7 1
    10    5    6 1
    11    6    9 2
    12   10   11 1
    13   11   12 1
    14   12   13 1
    15   13   14 2
    16   13   15 1
    17   14   16 1
    18   15   17 1
    19   16   17 2
    20   17   25 1
    21   18   19 2
    22   18   24 am
    23   18   25 am
    24   20   22 2
    25   20   24 1
    26   20   27 1
    27   21   22 1
    28   21   23 2
    29   23   26 1
    30   26   27 2
    31   26   29 1
    32   27   30 1
    33   28   29 2
    34   28   30 1
    35    2   31 1
    36    4   32 1
    37    5   33 1
    38   10   34 1
    39   11   35 1
    40   11   36 1
    41   12   37 1
    42   12   38 1
    43   14   39 1
    44   21   40 1
    45   22   41 1
    46   23   42 1
    47   24   43 1
    48   25   44 1
    49   28   45 1
    50   29   46 1
    51   30   47 1
@<TRIPOS>PROPERTY_DATA
  Total_Score	| 8.8967
  Crash		| -1.1521
  Polar		| 3.1695
  FragIndex	| 1
  FragRMSD	| 1.312

