@<TRIPOS>MOLECULE
BindingDB_26323
 47 50 0 0 0
SMALL
NO_CHARGES


@<TRIPOS>ATOM
1    C        -5.1780   29.9498   79.3071  C     
2    C        -3.8549   30.5965   77.4269  C     
3    C        -4.5554   30.9710   80.0599  C     
4    C        -3.5947   32.6023   81.5171  C     
5    C        -3.0659   32.6869   80.2926  C     
6    C        -3.5991   31.7794   79.4419  C     
7    S        -4.7889   31.3831   81.7263  S     
8    N        -4.8016   29.8030   78.0052  N     
9    N        -3.2526   31.5837   78.1486  N     
10   N        -6.0938   29.1339   79.8878  N     
11   C        -6.6551   27.9472   79.3212  C     
12   C        -7.8040   28.2392   78.3042  C     
13   C        -8.6298   27.0348   78.0387  C     
14   C        -8.7518   26.2574   76.8707  C     
15   S        -9.6403   26.2628   79.1905  S     
16   N        -9.5348   25.1435   76.9706  N     
17   C       -10.1303   24.9456   78.1718  C     
18   C       -11.4523   23.6030   79.6588  C     
19   O       -11.4235   24.4154   80.5724  O     
20   C       -12.1683   21.2938   79.3637  C     
21   C       -13.1820   19.8989   77.6151  C     
22   C       -12.9239   21.1765   78.1735  C     
23   C       -11.6878   20.1164   79.9850  C     
24   C       -11.9177   18.8512   79.4187  C     
25   C       -12.6561   18.7354   78.2317  C     
26   N       -12.0084   22.4613   80.0366  N     
27   N       -10.9069   23.8668   78.4690  N     
28   O       -13.9251   19.8161   76.4641  O     
29   C       -15.1534   19.0906   76.5776  C     
30   H        -3.6019   30.4487   76.4424  H     
31   H        -3.2936   33.1670   82.2805  H     
32   H        -2.3549   33.3385   80.0462  H     
33   H        -6.3364   29.3463   80.8055  H     
34   H        -5.8778   27.3451   78.8376  H     
35   H        -7.0350   27.3612   80.1642  H     
36   H        -8.4543   29.0109   78.6952  H     
37   H        -7.3596   28.6000   77.3790  H     
38   H        -8.2684   26.5037   76.0043  H     
39   H       -13.3166   22.0108   77.7283  H     
40   H       -11.1627   20.1689   80.8606  H     
41   H       -11.5390   18.0155   79.8570  H     
42   H       -12.8328   17.8065   77.8329  H     
43   H       -12.2050   22.3986   80.9837  H     
44   H       -10.9846   23.1767   77.7845  H     
45   H       -14.9378   18.0146   76.6445  H     
46   H       -15.7378   19.2966   75.6819  H     
47   H       -15.7309   19.4115   77.4506  H     
@<TRIPOS>BOND
     1    1    3 2
     2    1    8 1
     3    1   10 1
     4    2    8 2
     5    2    9 1
     6    3    6 1
     7    3    7 1
     8    4    5 2
     9    4    7 1
    10    5    6 1
    11    6    9 2
    12   10   11 1
    13   11   12 1
    14   12   13 1
    15   13   14 2
    16   13   15 1
    17   14   16 1
    18   15   17 1
    19   16   17 2
    20   17   27 1
    21   18   19 2
    22   18   26 am
    23   18   27 am
    24   20   22 2
    25   20   23 1
    26   20   26 1
    27   21   22 1
    28   21   25 2
    29   21   28 1
    30   23   24 2
    31   24   25 1
    32   28   29 1
    33    2   30 1
    34    4   31 1
    35    5   32 1
    36   10   33 1
    37   11   34 1
    38   11   35 1
    39   12   36 1
    40   12   37 1
    41   14   38 1
    42   22   39 1
    43   23   40 1
    44   24   41 1
    45   25   42 1
    46   26   43 1
    47   27   44 1
    48   29   45 1
    49   29   46 1
    50   29   47 1
@<TRIPOS>PROPERTY_DATA
  Total_Score	| 6.8188
  Crash		| -1.7575
  Polar		| 1.0667
  FragIndex	| 1
  FragRMSD	| 1.009

