@<TRIPOS>MOLECULE
BindingDB_26321
 46 49 0 0 0
SMALL
NO_CHARGES


@<TRIPOS>ATOM
1    C        -5.0032   29.8895   79.4223  C     
2    C        -3.7804   30.6261   77.5065  C     
3    C        -4.4578   30.9640   80.1541  C     
4    C        -3.6230   32.6871   81.5698  C     
5    C        -3.1150   32.7932   80.3445  C     
6    C        -3.5818   31.8353   79.5083  C     
7    S        -4.7129   31.3948   81.8156  S     
8    N        -4.6345   29.7632   78.1147  N     
9    N        -3.2554   31.6648   78.2047  N     
10   N        -5.8398   29.0041   80.0124  N     
11   C        -6.4848   27.9097   79.3591  C     
12   C        -7.6683   28.3879   78.4769  C     
13   C        -8.4913   27.2851   77.9409  C     
14   C        -8.9489   27.1206   76.6286  C     
15   S        -9.1623   25.9774   78.8312  S     
16   N        -9.7581   26.0533   76.4178  N     
17   C       -10.0037   25.2823   77.5011  C     
18   C       -11.0791   23.2817   78.3734  C     
19   O       -10.5078   23.3407   79.4584  O     
20   C       -12.1331   21.2217   79.0207  C     
21   C       -13.3056   20.2825   80.9703  C     
22   C       -12.9418   21.3861   80.1746  C     
23   C       -11.6724   19.9249   78.7052  C     
24   C       -12.0469   18.8174   79.4869  C     
25   C       -12.8717   18.9940   80.6182  C     
26   N       -11.9256   22.2624   78.1335  N     
27   N       -10.8061   24.1930   77.4350  N     
28   C       -12.5522   22.1312   76.8407  C     
29   H        -3.5325   30.4852   76.5291  H     
30   H        -3.3558   33.2922   82.3071  H     
31   H        -2.4612   33.4882   80.0800  H     
32   H        -6.0120   29.1081   80.9613  H     
33   H        -5.7582   27.3519   78.7639  H     
34   H        -6.8687   27.2443   80.1341  H     
35   H        -8.3200   29.0292   79.0775  H     
36   H        -7.2805   28.9831   77.6431  H     
37   H        -8.7008   27.7636   75.8715  H     
38   H       -13.8999   20.4170   81.7906  H     
39   H       -13.2864   22.3143   80.4286  H     
40   H       -11.0853   19.7870   77.8803  H     
41   H       -11.7390   17.8824   79.2259  H     
42   H       -13.1565   18.1834   81.1729  H     
43   H       -11.2236   24.0526   76.5656  H     
44   H       -13.1900   22.9948   76.6564  H     
45   H       -13.1686   21.2357   76.7273  H     
46   H       -11.7747   22.0753   76.0802  H     
@<TRIPOS>BOND
     1    1    3 2
     2    1    8 1
     3    1   10 1
     4    2    8 2
     5    2    9 1
     6    3    6 1
     7    3    7 1
     8    4    5 2
     9    4    7 1
    10    5    6 1
    11    6    9 2
    12   10   11 1
    13   11   12 1
    14   12   13 1
    15   13   14 2
    16   13   15 1
    17   14   16 1
    18   15   17 1
    19   16   17 2
    20   17   27 1
    21   18   19 2
    22   18   26 am
    23   18   27 am
    24   20   22 2
    25   20   23 1
    26   20   26 1
    27   21   22 1
    28   21   25 2
    29   23   24 2
    30   24   25 1
    31   26   28 1
    32    2   29 1
    33    4   30 1
    34    5   31 1
    35   10   32 1
    36   11   33 1
    37   11   34 1
    38   12   35 1
    39   12   36 1
    40   14   37 1
    41   21   38 1
    42   22   39 1
    43   23   40 1
    44   24   41 1
    45   25   42 1
    46   27   43 1
    47   28   44 1
    48   28   45 1
    49   28   46 1
@<TRIPOS>PROPERTY_DATA
  Total_Score	| 7.3655
  Crash		| -4.2488
  Polar		| 3.6862
  FragIndex	| 1
  FragRMSD	| 0.870

