@<TRIPOS>MOLECULE
BindingDB_26320
 43 46 0 0 0
SMALL
NO_CHARGES


@<TRIPOS>ATOM
1    C        -5.0953   29.9586   79.3010  C     
2    C        -3.7650   30.6544   77.4466  C     
3    C        -4.5416   31.0069   80.0653  C     
4    C        -3.6470   32.6354   81.5555  C     
5    C        -3.1121   32.7599   80.3423  C     
6    C        -3.5925   31.8419   79.4676  C     
7    S        -4.8099   31.3929   81.7322  S     
8    N        -4.6843   29.8168   78.0081  N     
9    N        -3.2163   31.6643   78.1757  N     
10   N        -5.9717   29.0996   79.8709  N     
11   C        -6.5714   27.9529   79.2746  C     
12   C        -7.7472   28.3027   78.3122  C     
13   C        -8.5768   27.1195   78.0029  C     
14   C        -8.7865   26.4519   76.7837  C     
15   S        -9.4884   26.2291   79.1508  S     
16   N        -9.5556   25.3339   76.8367  N     
17   C       -10.0509   25.0117   78.0573  C     
18   C       -11.2750   23.5586   79.5243  C     
19   O       -11.1491   24.2805   80.5000  O     
20   C       -12.1103   21.3129   79.0649  C     
21   C       -12.1509   18.8656   78.9297  C     
22   C       -11.7559   20.0472   79.5861  C     
23   C       -12.8790   21.3799   77.8821  C     
24   C       -13.2940   20.1951   77.2403  C     
25   C       -12.9319   18.9394   77.7642  C     
26   N       -11.8270   22.3972   79.8311  N     
27   N       -10.7874   23.9057   78.3290  N     
28   H        -3.4678   30.5070   76.4810  H     
29   H        -3.3810   33.2086   82.3210  H     
30   H        -2.4168   33.4341   80.1122  H     
31   H        -6.1630   29.2481   80.8134  H     
32   H        -5.8336   27.3458   78.7570  H     
33   H        -6.9487   27.3543   80.1077  H     
34   H        -8.3990   29.0458   78.7726  H     
35   H        -7.3415   28.7187   77.3896  H     
36   H        -8.3672   26.7821   75.9112  H     
37   H       -11.8794   17.9524   79.3007  H     
38   H       -11.2115   19.9666   80.4455  H     
39   H       -13.1927   22.2827   77.5275  H     
40   H       -13.8631   20.2497   76.3915  H     
41   H       -13.2405   18.0849   77.2916  H     
42   H       -11.9548   22.2640   80.7843  H     
43   H       -10.9262   23.2886   77.5944  H     
@<TRIPOS>BOND
     1    1    3 2
     2    1    8 1
     3    1   10 1
     4    2    8 2
     5    2    9 1
     6    3    6 1
     7    3    7 1
     8    4    5 2
     9    4    7 1
    10    5    6 1
    11    6    9 2
    12   10   11 1
    13   11   12 1
    14   12   13 1
    15   13   14 2
    16   13   15 1
    17   14   16 1
    18   15   17 1
    19   16   17 2
    20   17   27 1
    21   18   19 2
    22   18   26 am
    23   18   27 am
    24   20   22 2
    25   20   23 1
    26   20   26 1
    27   21   22 1
    28   21   25 2
    29   23   24 2
    30   24   25 1
    31    2   28 1
    32    4   29 1
    33    5   30 1
    34   10   31 1
    35   11   32 1
    36   11   33 1
    37   12   34 1
    38   12   35 1
    39   14   36 1
    40   21   37 1
    41   22   38 1
    42   23   39 1
    43   24   40 1
    44   25   41 1
    45   26   42 1
    46   27   43 1
@<TRIPOS>PROPERTY_DATA
  Total_Score	| 6.0736
  Crash		| -1.3864
  Polar		| 1.1251
  FragIndex	| 1
  FragRMSD	| 0.945

