@<TRIPOS>MOLECULE
BindingDB_26328
 43 46 0 0 0
SMALL
NO_CHARGES


@<TRIPOS>ATOM
1    C        -4.9038   29.8585   79.4730  C     
2    C        -3.7084   30.6269   77.5518  C     
3    C        -4.3628   30.9295   80.2137  C     
4    C        -3.5940   32.6850   81.6269  C     
5    C        -3.1045   32.8172   80.3952  C     
6    C        -3.5187   31.8299   79.5634  C     
7    S        -4.6127   31.3332   81.8819  S     
8    N        -4.5487   29.7483   78.1603  N     
9    N        -3.2011   31.6719   78.2534  N     
10   N        -5.7413   28.9700   80.0605  N     
11   C        -6.4325   27.9073   79.3981  C     
12   C        -7.4950   28.4424   78.3984  C     
13   C        -8.3017   27.3875   77.7580  C     
14   C        -8.8651   27.3794   76.4735  C     
15   S        -8.9383   26.0078   78.5459  S     
16   N        -9.7073   26.3508   76.2096  N     
17   C        -9.8908   25.4587   77.2135  C     
18   C       -10.9469   23.4648   78.0690  C     
19   O       -10.2801   23.4103   79.0947  O     
20   C       -12.1859   21.4503   78.5835  C     
21   C       -12.6474   19.0350   78.5554  C     
22   C       -12.3868   20.2439   77.8790  C     
23   C       -12.3355   21.4402   79.9981  C     
24   C       -12.5875   20.2239   80.6737  C     
25   C       -12.7360   19.0239   79.9559  C     
26   N       -11.8636   22.5466   77.8193  N     
27   N       -10.7315   24.3985   77.1411  N     
28   Cl      -12.3242   22.8574   80.9198  Cl    
29   H        -3.4645   30.5007   76.5719  H     
30   H        -3.3842   33.3228   82.3573  H     
31   H        -2.5060   33.5587   80.1166  H     
32   H        -5.8973   29.0673   81.0144  H     
33   H        -5.7200   27.2450   78.8964  H     
34   H        -6.9354   27.3262   80.1744  H     
35   H        -8.1875   29.0883   78.9446  H     
36   H        -7.0077   29.0568   77.6338  H     
37   H        -8.6997   28.1253   75.7978  H     
38   H       -12.7598   18.1643   78.0303  H     
39   H       -12.3318   20.2331   76.8601  H     
40   H       -12.6626   20.2101   81.6924  H     
41   H       -12.9217   18.1516   80.4533  H     
42   H       -12.2595   22.5682   76.9277  H     
43   H       -11.2395   24.3176   76.3143  H     
@<TRIPOS>BOND
     1    1    3 2
     2    1    8 1
     3    1   10 1
     4    2    8 2
     5    2    9 1
     6    3    6 1
     7    3    7 1
     8    4    5 2
     9    4    7 1
    10    5    6 1
    11    6    9 2
    12   10   11 1
    13   11   12 1
    14   12   13 1
    15   13   14 2
    16   13   15 1
    17   14   16 1
    18   15   17 1
    19   16   17 2
    20   17   27 1
    21   18   19 2
    22   18   26 am
    23   18   27 am
    24   20   22 2
    25   20   23 1
    26   20   26 1
    27   21   22 1
    28   21   25 2
    29   23   24 2
    30   23   28 1
    31   24   25 1
    32    2   29 1
    33    4   30 1
    34    5   31 1
    35   10   32 1
    36   11   33 1
    37   11   34 1
    38   12   35 1
    39   12   36 1
    40   14   37 1
    41   21   38 1
    42   22   39 1
    43   24   40 1
    44   25   41 1
    45   26   42 1
    46   27   43 1
@<TRIPOS>PROPERTY_DATA
  Total_Score	| 10.5309
  Crash		| -1.1414
  Polar		| 5.5564
  FragIndex	| 1
  FragRMSD	| 0.517

