@<TRIPOS>MOLECULE
BindingDB_26329
 43 46 0 0 0
SMALL
NO_CHARGES


@<TRIPOS>ATOM
1    C        -5.0514   30.1851   79.4380  C     
2    C        -3.7970   30.6768   77.4705  C     
3    C        -4.3512   31.1988   80.1190  C     
4    C        -3.2467   32.8227   81.4632  C     
5    C        -2.7732   32.8372   80.2188  C     
6    C        -3.3717   31.9130   79.4236  C     
7    S        -4.4725   31.6666   81.7853  S     
8    N        -4.7470   29.9607   78.1280  N     
9    N        -3.1175   31.6618   78.1162  N     
10   N        -5.9903   29.4591   80.0887  N     
11   C        -6.6214   28.2760   79.6128  C     
12   C        -7.9588   28.5512   78.8705  C     
13   C        -8.8050   27.3389   78.8748  C     
14   C        -9.4657   26.8200   79.9926  C     
15   S        -9.0704   26.2006   77.6158  S     
16   N       -10.0982   25.6332   79.8078  N     
17   C       -10.0140   25.1151   78.5674  C     
18   C       -10.5539   23.2630   77.1398  C     
19   O       -10.0424   23.7501   76.1395  O     
20   C       -11.7858   21.2624   77.8160  C     
21   C       -12.0399   20.0505   79.9267  C     
22   C       -11.3464   20.9829   79.1307  C     
23   C       -12.9103   20.5740   77.3148  C     
24   C       -13.6162   19.6478   78.1078  C     
25   C       -13.1768   19.3840   79.4249  C     
26   N       -11.1321   22.0880   76.9468  N     
27   N       -10.5809   23.9215   78.2866  N     
28   Cl      -13.9719   18.2799   80.4361  Cl    
29   Cl      -14.9682   18.8891   77.4207  Cl    
30   H        -3.6080   30.4846   76.4865  H     
31   H        -2.8994   33.4204   82.1791  H     
32   H        -2.0449   33.4431   79.9170  H     
33   H        -6.1683   29.6971   81.0150  H     
34   H        -5.9522   27.7005   78.9634  H     
35   H        -6.7962   27.6633   80.4999  H     
36   H        -8.5169   29.3508   79.3643  H     
37   H        -7.7478   28.8676   77.8482  H     
38   H        -9.4499   27.2806   80.9067  H     
39   H       -11.7046   19.8554   80.8728  H     
40   H       -10.4984   21.4217   79.5017  H     
41   H       -13.2129   20.7666   76.3566  H     
42   H       -11.1882   21.8132   76.0179  H     
43   H       -11.0609   23.5012   79.0132  H     
@<TRIPOS>BOND
     1    1    3 2
     2    1    8 1
     3    1   10 1
     4    2    8 2
     5    2    9 1
     6    3    6 1
     7    3    7 1
     8    4    5 2
     9    4    7 1
    10    5    6 1
    11    6    9 2
    12   10   11 1
    13   11   12 1
    14   12   13 1
    15   13   14 2
    16   13   15 1
    17   14   16 1
    18   15   17 1
    19   16   17 2
    20   17   27 1
    21   18   19 2
    22   18   26 am
    23   18   27 am
    24   20   22 2
    25   20   23 1
    26   20   26 1
    27   21   22 1
    28   21   25 2
    29   23   24 2
    30   24   25 1
    31   24   29 1
    32   25   28 1
    33    2   30 1
    34    4   31 1
    35    5   32 1
    36   10   33 1
    37   11   34 1
    38   11   35 1
    39   12   36 1
    40   12   37 1
    41   14   38 1
    42   21   39 1
    43   22   40 1
    44   23   41 1
    45   26   42 1
    46   27   43 1
@<TRIPOS>PROPERTY_DATA
  Total_Score	| 7.1967
  Crash		| -1.1531
  Polar		| 1.9863
  FragIndex	| 1
  FragRMSD	| 1.304

