@<TRIPOS>MOLECULE
BindingDB_26322
 46 49 0 0 0
SMALL
NO_CHARGES


@<TRIPOS>ATOM
1    C        -5.2077   29.9757   79.3399  C     
2    C        -3.8655   30.6672   77.4891  C     
3    C        -4.5939   30.9828   80.1277  C     
4    C        -3.6580   32.5866   81.6277  C     
5    C        -3.1230   32.7009   80.4113  C     
6    C        -3.6278   31.8027   79.5345  C     
7    S        -4.8449   31.3574   81.8074  S     
8    N        -4.8168   29.8625   78.0387  N     
9    N        -3.2844   31.6468   78.2335  N     
10   N        -6.1224   29.1323   79.8880  N     
11   C        -6.6594   27.9421   79.3092  C     
12   C        -7.7938   28.2010   78.2804  C     
13   C        -8.6056   26.9872   77.9873  C     
14   C        -8.7398   26.2298   76.8008  C     
15   S        -9.6098   26.1911   79.1350  S     
16   N        -9.5298   25.1181   76.8826  N     
17   C       -10.1183   24.8951   78.0866  C     
18   C       -11.4940   23.5617   79.5490  C     
19   O       -11.4893   24.3867   80.4544  O     
20   C       -12.2628   21.2243   79.3417  C     
21   C       -13.2989   19.6662   77.7357  C     
22   C       -13.0492   20.9858   78.1904  C     
23   C       -11.6898   20.1084   80.0082  C     
24   C       -11.8879   18.8014   79.5394  C     
25   C       -12.6781   18.5757   78.3990  C     
26   N       -12.0853   22.4323   79.9297  N     
27   N       -10.9016   23.8102   78.3724  N     
28   C       -14.2060   19.4188   76.5858  C     
29   H        -3.5901   30.5358   76.5146  H     
30   H        -3.3720   33.1455   82.3917  H     
31   H        -2.4175   33.3618   80.1825  H     
32   H        -6.3996   29.3416   80.8023  H     
33   H        -5.8584   27.3504   78.8541  H     
34   H        -7.0455   27.3444   80.1456  H     
35   H        -8.4639   28.9722   78.6669  H     
36   H        -7.3424   28.5856   77.3662  H     
37   H        -8.2578   26.5003   75.9549  H     
38   H       -13.5148   21.7712   77.7110  H     
39   H       -11.1454   20.2350   80.8643  H     
40   H       -11.4471   18.0015   80.0038  H     
41   H       -12.8233   17.6129   78.0559  H     
42   H       -12.3634   22.4432   80.8569  H     
43   H       -11.0070   23.1415   77.6565  H     
44   H       -15.2132   19.7595   76.8276  H     
45   H       -14.2664   18.3541   76.3190  H     
46   H       -13.8562   19.9774   75.7144  H     
@<TRIPOS>BOND
     1    1    3 2
     2    1    8 1
     3    1   10 1
     4    2    8 2
     5    2    9 1
     6    3    6 1
     7    3    7 1
     8    4    5 2
     9    4    7 1
    10    5    6 1
    11    6    9 2
    12   10   11 1
    13   11   12 1
    14   12   13 1
    15   13   14 2
    16   13   15 1
    17   14   16 1
    18   15   17 1
    19   16   17 2
    20   17   27 1
    21   18   19 2
    22   18   26 am
    23   18   27 am
    24   20   22 2
    25   20   23 1
    26   20   26 1
    27   21   22 1
    28   21   25 2
    29   21   28 1
    30   23   24 2
    31   24   25 1
    32    2   29 1
    33    4   30 1
    34    5   31 1
    35   10   32 1
    36   11   33 1
    37   11   34 1
    38   12   35 1
    39   12   36 1
    40   14   37 1
    41   22   38 1
    42   23   39 1
    43   24   40 1
    44   25   41 1
    45   26   42 1
    46   27   43 1
    47   28   44 1
    48   28   45 1
    49   28   46 1
@<TRIPOS>PROPERTY_DATA
  Total_Score	| 7.3135
  Crash		| -1.6039
  Polar		| 1.1064
  FragIndex	| 1
  FragRMSD	| 0.976

