@<TRIPOS>MOLECULE
BindingDB_26325
 43 46 0 0 0
SMALL
NO_CHARGES


@<TRIPOS>ATOM
1    C        -5.1119   29.9747   79.3703  C     
2    C        -3.8202   30.6648   77.4846  C     
3    C        -4.5010   30.9925   80.1334  C     
4    C        -3.5230   32.5853   81.6172  C     
5    C        -3.0038   32.6977   80.3915  C     
6    C        -3.5434   31.8070   79.5217  C     
7    S        -4.7276   31.3784   81.8115  S     
8    N        -4.7520   29.8528   78.0584  N     
9    N        -3.2144   31.6377   78.2160  N     
10   N        -5.9954   29.1307   79.9560  N     
11   C        -6.6236   27.9968   79.3588  C     
12   C        -7.8074   28.3448   78.4208  C     
13   C        -8.6285   27.1556   78.1017  C     
14   C        -8.8298   26.4887   76.8836  C     
15   S        -9.5341   26.2616   79.2503  S     
16   N        -9.6112   25.3703   76.9359  N     
17   C       -10.1154   25.0594   78.1536  C     
18   C       -11.3814   23.5968   79.5739  C     
19   O       -11.2686   24.2983   80.5700  O     
20   C       -12.2857   21.3725   79.0799  C     
21   C       -12.4077   18.9233   78.9566  C     
22   C       -12.0165   20.0969   79.6285  C     
23   C       -12.9737   21.4534   77.8455  C     
24   C       -13.3838   20.2788   77.1846  C     
25   C       -13.1053   19.0143   77.7383  C     
26   N       -11.9697   22.4465   79.8517  N     
27   N       -10.8792   23.9653   78.3979  N     
28   F       -12.1425   17.7536   79.4754  F     
29   H        -3.5629   30.5326   76.5101  H     
30   H        -3.2284   33.1594   82.3751  H     
31   H        -2.2877   33.3483   80.1509  H     
32   H        -6.1815   29.2805   80.8907  H     
33   H        -5.8843   27.4063   78.8096  H     
34   H        -6.9903   27.3841   80.1833  H     
35   H        -8.4632   29.0808   78.8901  H     
36   H        -7.4188   28.7796   77.4971  H     
37   H        -8.4124   26.8143   76.0115  H     
38   H       -11.5298   20.0208   80.5257  H     
39   H       -13.2212   22.3621   77.4466  H     
40   H       -13.8918   20.3450   76.2993  H     
41   H       -13.4126   18.1674   77.2583  H     
42   H       -12.1500   22.3089   80.7989  H     
43   H       -11.0198   23.3632   77.6504  H     
@<TRIPOS>BOND
     1    1    3 2
     2    1    8 1
     3    1   10 1
     4    2    8 2
     5    2    9 1
     6    3    6 1
     7    3    7 1
     8    4    5 2
     9    4    7 1
    10    5    6 1
    11    6    9 2
    12   10   11 1
    13   11   12 1
    14   12   13 1
    15   13   14 2
    16   13   15 1
    17   14   16 1
    18   15   17 1
    19   16   17 2
    20   17   27 1
    21   18   19 2
    22   18   26 am
    23   18   27 am
    24   20   22 2
    25   20   23 1
    26   20   26 1
    27   21   22 1
    28   21   25 2
    29   21   28 1
    30   23   24 2
    31   24   25 1
    32    2   29 1
    33    4   30 1
    34    5   31 1
    35   10   32 1
    36   11   33 1
    37   11   34 1
    38   12   35 1
    39   12   36 1
    40   14   37 1
    41   22   38 1
    42   23   39 1
    43   24   40 1
    44   25   41 1
    45   26   42 1
    46   27   43 1
@<TRIPOS>PROPERTY_DATA
  Total_Score	| 6.1829
  Crash		| -1.1049
  Polar		| 1.0982
  FragIndex	| 1
  FragRMSD	| 0.989

