@<TRIPOS>MOLECULE
BindingDB_26315
 46 49 0 0 0
SMALL
NO_CHARGES


@<TRIPOS>ATOM
1    C        -5.2163   29.8393   79.2647  C     
2    C        -3.9282   30.4800   77.3673  C     
3    C        -4.6405   30.9056   79.9905  C     
4    C        -3.6539   32.5415   81.4227  C     
5    C        -3.1639   32.6416   80.1903  C     
6    C        -3.6778   31.7030   79.3466  C     
7    S        -4.8710   31.3475   81.6566  S     
8    N        -4.8585   29.6767   77.9645  N     
9    N        -3.3437   31.4867   78.0642  N     
10   N        -6.0766   28.9766   79.8802  N     
11   C        -6.7045   27.8390   79.2793  C     
12   C        -7.8543   28.1432   78.2701  C     
13   C       -10.1499   24.8138   78.0964  C     
14   N       -10.9077   23.7307   78.3834  N     
15   C       -11.4726   23.4560   79.5622  C     
16   O       -11.4904   24.2893   80.4515  O     
17   N       -11.9705   22.2871   79.9510  N     
18   C       -12.1154   21.0824   79.3581  C     
19   C       -12.9765   20.8337   78.2694  C     
20   C       -11.5369   19.9797   80.0201  C     
21   C       -11.8156   18.6500   79.6239  C     
22   C       -12.6949   18.4153   78.5597  C     
23   C       -13.3174   19.5049   77.8870  C     
24   C       -14.3704   19.2264   76.8677  C     
25   F       -14.5042   17.9016   76.4739  F     
26   F       -15.5924   19.6030   77.3700  F     
27   F       -14.1292   19.9593   75.7254  F     
28   C        -8.7165   26.1334   76.8493  C     
29   C        -8.6861   26.9494   77.9894  C     
30   N        -9.4803   25.0078   76.9466  N     
31   S        -9.7426   26.1754   79.0976  S     
32   H        -3.6992   30.3310   76.3826  H     
33   H        -3.3697   33.1383   82.1654  H     
34   H        -2.4487   33.2882   79.9344  H     
35   H        -6.1284   29.0137   80.8499  H     
36   H        -5.9811   27.1697   78.8026  H     
37   H        -7.1099   27.2818   80.1211  H     
38   H        -8.5337   28.9181   78.6765  H     
39   H        -7.4263   28.5583   77.3504  H     
40   H       -10.9841   23.0598   77.6929  H     
41   H       -12.1697   22.2537   80.8864  H     
42   H       -13.4407   21.6026   77.7827  H     
43   H       -10.9344   20.1377   80.8214  H     
44   H       -11.4023   17.8612   80.1636  H     
45   H       -12.9150   17.4314   78.3328  H     
46   H        -8.1793   26.3395   76.0086  H     
@<TRIPOS>BOND
     1    1    3 2
     2    1    8 1
     3    1   10 1
     4    2    8 2
     5    2    9 1
     6    3    6 1
     7    3    7 1
     8    4    5 2
     9    4    7 1
    10    5    6 1
    11    6    9 2
    12   10   11 1
    13   11   12 1
    14   12   29 1
    15   13   14 1
    16   13   30 2
    17   13   31 1
    18   14   15 am
    19   15   16 2
    20   15   17 am
    21   17   18 1
    22   18   19 2
    23   18   20 1
    24   19   23 1
    25   20   21 2
    26   21   22 1
    27   22   23 2
    28   23   24 1
    29   24   25 1
    30   24   26 1
    31   24   27 1
    32   28   29 2
    33   28   30 1
    34   29   31 1
    35    2   32 1
    36    4   33 1
    37    5   34 1
    38   10   35 1
    39   11   36 1
    40   11   37 1
    41   12   38 1
    42   12   39 1
    43   14   40 1
    44   17   41 1
    45   19   42 1
    46   20   43 1
    47   21   44 1
    48   22   45 1
    49   28   46 1
@<TRIPOS>PROPERTY_DATA
  Total_Score	| 6.8266
  Crash		| -2.1048
  Polar		| 1.0228
  FragIndex	| 1
  FragRMSD	| 1.016

