@<TRIPOS>MOLECULE
BindingDB_26334
 59 63 0 0 0
SMALL
NO_CHARGES


@<TRIPOS>ATOM
1    C        -5.0913   30.1506   79.4979  C     
2    C        -3.8787   30.6436   77.4997  C     
3    C        -4.3758   31.1680   80.1634  C     
4    C        -3.2447   32.8104   81.4618  C     
5    C        -2.8047   32.8138   80.2040  C     
6    C        -3.4285   31.8903   79.4355  C     
7    S        -4.4732   31.6711   81.8182  S     
8    N        -4.8076   29.9241   78.1839  N     
9    N        -3.1947   31.6333   78.1276  N     
10   N        -6.0091   29.4073   80.1577  N     
11   C        -6.7199   28.2872   79.6230  C     
12   C        -7.9555   28.7018   78.7765  C     
13   C        -8.6559   27.5199   78.2490  C     
14   C        -8.6402   27.0127   76.9455  C     
15   S        -9.6159   26.4342   79.1696  S     
16   N        -9.3238   25.8557   76.7577  N     
17   C        -9.9314   25.3643   77.8652  C     
18   C       -10.8101   23.2385   77.1602  C     
19   O       -10.3956   23.3364   76.0150  O     
20   N       -11.3526   22.0619   77.4557  N     
21   N       -10.6148   24.2154   78.0375  N     
22   C       -11.9253   21.5719   78.5996  C     
23   C       -13.2099   21.7461   80.6900  C     
24   C       -12.5591   22.3506   79.6001  C     
25   C       -11.9952   20.1615   78.7188  C     
26   C       -12.7167   19.5311   79.7680  C     
27   C       -13.2921   20.3491   80.7687  C     
28   C       -12.8778   18.0606   79.8162  C     
29   C       -13.4964   17.3949   78.5456  C     
30   C       -15.9212   18.0696   79.0661  C     
31   C       -15.0064   19.1770   77.4827  C     
32   C       -16.0369   19.5258   78.5663  C     
33   N       -14.8463   17.8155   78.0560  N     
34   H        -3.6929   30.4264   76.5220  H     
35   H        -2.8691   33.4118   82.1605  H     
36   H        -2.0852   33.4160   79.8711  H     
37   H        -6.1692   29.6161   81.0940  H     
38   H        -6.0430   27.6718   79.0222  H     
39   H        -7.0534   27.6795   80.4683  H     
40   H        -8.6610   29.2772   79.3846  H     
41   H        -7.6417   29.3337   77.9393  H     
42   H        -8.1377   27.4656   76.1805  H     
43   H       -11.3130   21.4145   76.7305  H     
44   H       -10.9500   24.0765   78.9302  H     
45   H       -13.6553   22.3383   81.4045  H     
46   H       -12.6122   23.3696   79.5412  H     
47   H       -11.5329   19.5867   78.0106  H     
48   H       -13.7958   19.9423   81.5560  H     
49   H       -11.8839   17.6289   79.9682  H     
50   H       -13.4961   17.7948   80.6813  H     
51   H       -12.7994   17.4568   77.7162  H     
52   H       -13.5888   16.3391   78.7626  H     
53   H       -15.6016   17.9760   80.1167  H     
54   H       -16.8381   17.4971   78.8585  H     
55   H       -15.4389   19.1455   76.4760  H     
56   H       -14.1270   19.8204   77.5017  H     
57   H       -17.0223   19.7731   78.1822  H     
58   H       -15.6740   20.2659   79.2916  H     
59   H       -15.1784   17.1281   77.3710  H     
@<TRIPOS>BOND
     1    1    3 2
     2    1    8 1
     3    1   10 1
     4    2    8 2
     5    2    9 1
     6    3    6 1
     7    3    7 1
     8    4    5 2
     9    4    7 1
    10    5    6 1
    11    6    9 2
    12   10   11 1
    13   11   12 1
    14   12   13 1
    15   13   14 2
    16   13   15 1
    17   14   16 1
    18   15   17 1
    19   16   17 2
    20   17   21 1
    21   18   19 2
    22   18   20 am
    23   18   21 am
    24   20   22 1
    25   22   24 2
    26   22   25 1
    27   23   24 1
    28   23   27 2
    29   25   26 2
    30   26   27 1
    31   26   28 1
    32   28   29 1
    33   29   33 1
    34   30   32 1
    35   30   33 1
    36   31   32 1
    37   31   33 1
    38    2   34 1
    39    4   35 1
    40    5   36 1
    41   10   37 1
    42   11   38 1
    43   11   39 1
    44   12   40 1
    45   12   41 1
    46   14   42 1
    47   20   43 1
    48   21   44 1
    49   23   45 1
    50   24   46 1
    51   25   47 1
    52   27   48 1
    53   28   49 1
    54   28   50 1
    55   29   51 1
    56   29   52 1
    57   30   53 1
    58   30   54 1
    59   31   55 1
    60   31   56 1
    61   32   57 1
    62   32   58 1
    63   33   59 1
@<TRIPOS>PROPERTY_DATA
  Total_Score	| 9.3820
  Crash		| -3.2951
  Polar		| 2.0757
  FragIndex	| 1
  FragRMSD	| 1.341

