@<TRIPOS>MOLECULE
BindingDB_26333
 62 66 0 0 0
SMALL
NO_CHARGES


@<TRIPOS>ATOM
1    C        -5.0544   29.9106   79.4323  C     
2    C        -3.8509   30.5226   77.4660  C     
3    C        -4.4519   30.9870   80.1151  C     
4    C        -3.4812   32.6894   81.4664  C     
5    C        -3.0421   32.7689   80.2128  C     
6    C        -3.5693   31.8102   79.4139  C     
7    S        -4.6191   31.4478   81.7832  S     
8    N        -4.7255   29.7178   78.1209  N     
9    N        -3.2828   31.5739   78.1090  N     
10   N        -5.8904   29.0737   80.0845  N     
11   C        -6.6608   28.0075   79.5232  C     
12   C        -7.9292   28.4312   78.7272  C     
13   C        -8.9326   27.3400   78.6783  C     
14   C        -9.9345   27.1120   79.6349  C     
15   S        -9.1274   26.0852   77.5225  S     
16   N       -10.7244   26.0307   79.4232  N     
17   C       -10.4597   25.2928   78.3200  C     
18   C       -10.8238   23.2624   77.1079  C     
19   O       -10.0274   23.5268   76.2286  O     
20   N       -11.3719   22.0520   77.0207  N     
21   N       -11.1122   24.1359   78.0654  N     
22   C       -12.2033   21.4137   77.9001  C     
23   C       -14.0581   19.8122   78.1699  C     
24   C       -13.0567   20.4147   77.3834  C     
25   C       -12.2584   21.7297   79.2828  C     
26   C       -13.2948   21.1910   80.0917  C     
27   C       -14.1740   20.2331   79.5154  C     
28   C       -14.9473   18.7732   77.5591  C     
29   F       -15.9904   18.3383   78.3559  F     
30   F       -15.5235   19.2525   76.4083  F     
31   F       -14.2166   17.6580   77.2198  F     
32   C       -13.4450   21.5947   81.5246  C     
33   C       -11.6177   23.3924   83.6311  C     
34   C       -11.7887   23.4135   82.0933  C     
35   C       -13.9432   23.6579   82.9453  C     
36   C       -13.0430   23.5373   84.1899  C     
37   N       -13.2033   23.0612   81.8012  N     
38   H        -3.6313   30.3300   76.4924  H     
39   H        -3.1892   33.3158   82.1769  H     
40   H        -2.3831   33.4409   79.8980  H     
41   H        -5.9122   29.1622   81.0527  H     
42   H        -6.0118   27.3905   78.8900  H     
43   H        -6.9542   27.3997   80.3835  H     
44   H        -8.3880   29.2918   79.2103  H     
45   H        -7.6589   28.7129   77.7070  H     
46   H       -10.0589   27.7086   80.4505  H     
47   H       -11.1851   21.5868   76.1800  H     
48   H       -11.8189   23.8349   78.7218  H     
49   H       -12.9785   20.1470   76.3950  H     
50   H       -11.5476   22.4110   79.6412  H     
51   H       -14.9224   19.8317   80.0950  H     
52   H       -14.4421   21.3105   81.8779  H     
53   H       -12.7604   20.9683   82.1023  H     
54   H       -11.1850   22.4454   83.9563  H     
55   H       -10.9735   24.2065   83.9756  H     
56   H       -11.5966   24.4276   81.7313  H     
57   H       -11.0864   22.7408   81.5937  H     
58   H       -14.9221   23.2017   83.1210  H     
59   H       -14.1169   24.7156   82.7192  H     
60   H       -13.3171   22.6513   84.7674  H     
61   H       -13.1446   24.4208   84.8282  H     
62   H       -13.4882   23.5906   80.9692  H     
@<TRIPOS>BOND
     1    1    3 2
     2    1    8 1
     3    1   10 1
     4    2    8 2
     5    2    9 1
     6    3    6 1
     7    3    7 1
     8    4    5 2
     9    4    7 1
    10    5    6 1
    11    6    9 2
    12   10   11 1
    13   11   12 1
    14   12   13 1
    15   13   14 2
    16   13   15 1
    17   14   16 1
    18   15   17 1
    19   16   17 2
    20   17   21 1
    21   18   19 2
    22   18   20 am
    23   18   21 am
    24   20   22 1
    25   22   24 2
    26   22   25 1
    27   23   24 1
    28   23   27 2
    29   23   28 1
    30   25   26 2
    31   26   27 1
    32   26   32 1
    33   28   29 1
    34   28   30 1
    35   28   31 1
    36   32   37 1
    37   33   34 1
    38   33   36 1
    39   34   37 1
    40   35   36 1
    41   35   37 1
    42    2   38 1
    43    4   39 1
    44    5   40 1
    45   10   41 1
    46   11   42 1
    47   11   43 1
    48   12   44 1
    49   12   45 1
    50   14   46 1
    51   20   47 1
    52   21   48 1
    53   24   49 1
    54   25   50 1
    55   27   51 1
    56   32   52 1
    57   32   53 1
    58   33   54 1
    59   33   55 1
    60   34   56 1
    61   34   57 1
    62   35   58 1
    63   35   59 1
    64   36   60 1
    65   36   61 1
    66   37   62 1
@<TRIPOS>PROPERTY_DATA
  Total_Score	| 9.3613
  Crash		| -2.6978
  Polar		| 2.8965
  FragIndex	| 1
  FragRMSD	| 1.273

