@<TRIPOS>MOLECULE
BindingDB_26324
 45 48 0 0 0
SMALL
NO_CHARGES


@<TRIPOS>ATOM
1    C        -5.1199   29.8189   79.3137  C     
2    C        -3.8312   30.5729   77.4471  C     
3    C        -4.5689   30.8632   80.0870  C     
4    C        -3.7238   32.5232   81.5699  C     
5    C        -3.1985   32.6622   80.3535  C     
6    C        -3.6573   31.7314   79.4829  C     
7    S        -4.8397   31.2404   81.7589  S     
8    N        -4.7196   29.7116   78.0153  N     
9    N        -3.3009   31.5845   78.1828  N     
10   N        -5.9805   28.9352   79.8740  N     
11   C        -6.5684   27.7995   79.2390  C     
12   C        -7.8085   28.1614   78.3730  C     
13   C        -8.6378   26.9828   78.0359  C     
14   C        -9.0210   26.5079   76.7771  C     
15   S        -9.3964   25.9252   79.1590  S     
16   N        -9.8254   25.4093   76.7720  N     
17   C       -10.1560   24.9074   77.9857  C     
18   C       -11.2890   23.2385   79.3128  C     
19   O       -10.8855   23.6902   80.3751  O     
20   C       -12.7818   21.3562   78.6685  C     
21   C       -14.6040   19.7013   78.5219  C     
22   C       -13.8278   20.6159   79.2706  C     
23   C       -12.5126   21.1391   77.2987  C     
24   C       -13.2954   20.2424   76.5473  C     
25   C       -14.3382   19.5194   77.1507  C     
26   N       -12.0912   22.1974   79.4969  N     
27   N       -10.9466   23.8097   78.1566  N     
28   C       -15.5874   19.0491   79.0743  C     
29   C       -16.4976   18.4501   79.5691  C     
30   H        -3.5569   30.4467   76.4744  H     
31   H        -3.4785   33.1128   82.3297  H     
32   H        -2.5237   33.3518   80.1193  H     
33   H        -6.1929   29.0714   80.8124  H     
34   H        -5.8238   27.2702   78.6367  H     
35   H        -6.8751   27.1266   80.0443  H     
36   H        -8.4366   28.8690   78.9195  H     
37   H        -7.4772   28.6525   77.4535  H     
38   H        -8.7208   26.9571   75.9130  H     
39   H       -14.0332   20.7484   80.2691  H     
40   H       -11.7477   21.6221   76.8341  H     
41   H       -13.1016   20.1015   75.5540  H     
42   H       -14.8958   18.8727   76.5758  H     
43   H       -12.2355   21.9996   80.4363  H     
44   H       -11.2856   23.4061   77.3453  H     
45   H       -17.2067   17.9895   79.9403  H     
@<TRIPOS>BOND
     1    1    3 2
     2    1    8 1
     3    1   10 1
     4    2    8 2
     5    2    9 1
     6    3    6 1
     7    3    7 1
     8    4    5 2
     9    4    7 1
    10    5    6 1
    11    6    9 2
    12   10   11 1
    13   11   12 1
    14   12   13 1
    15   13   14 2
    16   13   15 1
    17   14   16 1
    18   15   17 1
    19   16   17 2
    20   17   27 1
    21   18   19 2
    22   18   26 am
    23   18   27 am
    24   20   22 2
    25   20   23 1
    26   20   26 1
    27   21   22 1
    28   21   25 2
    29   21   28 1
    30   23   24 2
    31   24   25 1
    32   28   29 3
    33    2   30 1
    34    4   31 1
    35    5   32 1
    36   10   33 1
    37   11   34 1
    38   11   35 1
    39   12   36 1
    40   12   37 1
    41   14   38 1
    42   22   39 1
    43   23   40 1
    44   24   41 1
    45   25   42 1
    46   26   43 1
    47   27   44 1
    48   29   45 1
@<TRIPOS>PROPERTY_DATA
  Total_Score	| 5.9262
  Crash		| -2.1948
  Polar		| 1.3726
  FragIndex	| 1
  FragRMSD	| 1.118

