@<TRIPOS>MOLECULE
BindingDB_26330
 43 46 0 0 0
SMALL
NO_CHARGES


@<TRIPOS>ATOM
1    C        -5.0458   30.1782   79.3798  C     
2    C        -3.7102   30.7196   77.4823  C     
3    C        -4.3722   31.1727   80.1155  C     
4    C        -3.3408   32.7777   81.5342  C     
5    C        -2.8284   32.8318   80.3043  C     
6    C        -3.3912   31.9277   79.4706  C     
7    S        -4.5710   31.6122   81.7821  S     
8    N        -4.6718   29.9701   78.0861  N     
9    N        -3.0707   31.6962   78.1781  N     
10   N        -6.0207   29.4626   79.9752  N     
11   C        -6.6137   28.2584   79.4965  C     
12   C        -7.9577   28.5094   78.7525  C     
13   C        -8.8030   27.2992   78.7826  C     
14   C        -9.4849   26.8038   79.9036  C     
15   S        -9.0815   26.1638   77.5235  S     
16   N       -10.1319   25.6251   79.7251  N     
17   C       -10.0449   25.0993   78.4868  C     
18   C       -10.5722   23.2393   77.0709  C     
19   O       -10.0341   23.7062   76.0784  O     
20   C       -11.7958   21.2476   77.7665  C     
21   C       -11.9747   20.0050   79.8764  C     
22   C       -11.3187   20.9527   79.0650  C     
23   C       -12.9443   20.5678   77.3039  C     
24   C       -13.6242   19.6346   78.1148  C     
25   C       -13.1362   19.3543   79.4089  C     
26   N       -11.1555   22.0693   76.8860  N     
27   N       -10.6213   23.9134   78.2090  N     
28   Cl      -14.9982   18.8491   77.5127  Cl    
29   F       -13.7172   18.4788   80.1861  F     
30   H        -3.4649   30.5452   76.5069  H     
31   H        -3.0169   33.3547   82.2806  H     
32   H        -2.0917   33.4502   80.0441  H     
33   H        -6.3140   29.7553   80.8548  H     
34   H        -5.9342   27.7025   78.8448  H     
35   H        -6.7834   27.6409   80.3868  H     
36   H        -8.5198   29.3234   79.2238  H     
37   H        -7.7508   28.7896   77.7170  H     
38   H        -9.4701   27.2798   80.8129  H     
39   H       -11.5947   19.7786   80.7986  H     
40   H       -10.4557   21.3886   79.4089  H     
41   H       -13.2823   20.7583   76.3591  H     
42   H       -11.1589   21.7567   75.9720  H     
43   H       -11.1200   23.5063   78.9346  H     
@<TRIPOS>BOND
     1    1    3 2
     2    1    8 1
     3    1   10 1
     4    2    8 2
     5    2    9 1
     6    3    6 1
     7    3    7 1
     8    4    5 2
     9    4    7 1
    10    5    6 1
    11    6    9 2
    12   10   11 1
    13   11   12 1
    14   12   13 1
    15   13   14 2
    16   13   15 1
    17   14   16 1
    18   15   17 1
    19   16   17 2
    20   17   27 1
    21   18   19 2
    22   18   26 am
    23   18   27 am
    24   20   22 2
    25   20   23 1
    26   20   26 1
    27   21   22 1
    28   21   25 2
    29   23   24 2
    30   24   25 1
    31   24   28 1
    32   25   29 1
    33    2   30 1
    34    4   31 1
    35    5   32 1
    36   10   33 1
    37   11   34 1
    38   11   35 1
    39   12   36 1
    40   12   37 1
    41   14   38 1
    42   21   39 1
    43   22   40 1
    44   23   41 1
    45   26   42 1
    46   27   43 1
@<TRIPOS>PROPERTY_DATA
  Total_Score	| 6.4466
  Crash		| -1.2517
  Polar		| 1.7366
  FragIndex	| 1
  FragRMSD	| 1.282

