@<TRIPOS>MOLECULE
BindingDB_50310540
 33 34 0 0 0
SMALL
NO_CHARGES


@<TRIPOS>ATOM
1    C        31.6218   10.6886    5.8378  C     
2    C        31.3268   11.9275    6.7238  C     
3    C        31.6201   13.3061    6.0657  C     
4    C        32.2202   14.1594    7.2084  C     
5    C        32.0626   13.2531    8.4509  C     
6    O        32.1014   11.9159    7.9297  O     
7    N        33.0645   13.4427    9.4901  N     
8    C        32.7353   13.7903   10.7529  C     
9    O        31.6021   14.0668   11.1214  O     
10   N        33.6558   13.8141   11.7090  N     
11   C        34.9591   13.5295   11.4530  C     
12   C        35.3361   13.2264   10.1550  C     
13   C        34.3784   13.1877    9.2105  C     
14   P        30.5646    9.6437    3.7424  P     
15   O        31.0972    8.3027    3.8541  O     
16   O        30.4220   10.3954    5.1027  O     
17   O        30.4378   13.8831    5.5124  O     
18   O        31.5781   15.4178    7.3895  O     
19   N        35.8351   13.5044   12.4702  N     
20   O        29.1562    9.5484    3.1160  O     
21   O        31.4402   10.4675    2.7718  O     
22   H        32.4923   10.9057    5.1904  H     
23   H        31.8766    9.8436    6.4799  H     
24   H        30.2693   11.8806    7.0133  H     
25   H        32.3492   13.2076    5.2522  H     
26   H        33.2705   14.3479    6.9883  H     
27   H        31.0511   13.3965    8.8546  H     
28   H        36.2810   13.0190    9.9319  H     
29   H        34.6565   12.9506    8.2821  H     
30   H        30.1402   13.2452    4.8165  H     
31   H        32.2683   16.0031    7.7803  H     
32   H        36.7637   13.2603   12.3104  H     
33   H        35.5394   13.7014   13.3728  H     
@<TRIPOS>BOND
     1    2    1 1
     2    1   16 1
     3    2    3 1
     4    2    6 1
     5    3    4 1
     6    3   17 1
     7    4    5 1
     8    4   18 1
     9    5    6 1
    10    5    7 1
    11    7    8 1
    12    7   13 1
    13    8    9 2
    14    8   10 1
    15   10   11 2
    16   11   12 1
    17   11   19 1
    18   12   13 2
    19   14   15 2
    20   14   16 1
    21   14   20 1
    22   14   21 1
    23    1   22 1
    24    1   23 1
    25    2   24 1
    26    3   25 1
    27    4   26 1
    28    5   27 1
    29   12   28 1
    30   13   29 1
    31   17   30 1
    32   18   31 1
    33   19   32 1
    34   19   33 1
@<TRIPOS>PROPERTY_DATA
  Total_Score	| 6.0415
  Crash		| -0.7193
  Polar		| 5.8663
  FragIndex	| 1
  FragRMSD	| 0.875

