@<TRIPOS>MOLECULE
BindingDB_50292722
 32 33 0 0 0
SMALL
NO_CHARGES


@<TRIPOS>ATOM
1    O        32.6791    9.9628    6.5292  O     
2    C        32.0124   11.0002    5.7946  C     
3    C        31.3161   12.0402    6.7182  C     
4    C        31.3195   13.4909    6.1485  C     
5    O        29.9672   14.0145    6.1647  O     
6    C        32.2005   14.2524    7.1643  C     
7    O        31.7900   15.6087    7.3617  O     
8    C        32.0359   13.4047    8.4441  C     
9    O        31.9903   12.0580    7.9791  O     
10   N        33.1000   13.5409    9.4260  N     
11   C        32.8654   13.8504   10.7208  C     
12   O        31.7571   14.0912   11.1817  O     
13   N        33.8732   13.8954   11.5996  N     
14   C        35.1246   13.6204   11.2423  C     
15   C        35.4061   13.2787    9.9609  C     
16   C        34.3926   13.2399    9.0690  C     
17   P        29.5123   14.9840    5.0251  P     
18   O        28.7429   14.1607    3.9724  O     
19   O        30.5934   15.6838    4.3438  O     
20   O        28.5395   16.0298    5.6153  O     
21   O        36.0013   13.6553   12.0935  O     
22   H        33.2977   10.4606    7.1307  H     
23   H        32.7623   11.4946    5.1622  H     
24   H        31.2728   10.5280    5.1429  H     
25   H        30.2963   11.6913    6.8943  H     
26   H        31.7606   13.5073    5.1404  H     
27   H        33.2384   14.2473    6.8072  H     
28   H        32.5150   16.0277    7.8804  H     
29   H        31.0619   13.6396    8.8749  H     
30   H        33.6961   14.1320   12.5271  H     
31   H        36.3283   13.0351    9.6848  H     
32   H        34.5948   12.9581    8.1352  H     
@<TRIPOS>BOND
     1    1    2 1
     2    3    2 1
     3    3    4 1
     4    3    9 1
     5    4    5 1
     6    4    6 1
     7    5   17 1
     8    6    7 1
     9    6    8 1
    10    8    9 1
    11    8   10 1
    12   10   11 1
    13   10   16 1
    14   11   12 2
    15   11   13 1
    16   13   14 1
    17   14   15 1
    18   14   21 2
    19   15   16 2
    20   17   18 1
    21   17   19 2
    22   17   20 1
    23    1   22 1
    24    2   23 1
    25    2   24 1
    26    3   25 1
    27    4   26 1
    28    6   27 1
    29    7   28 1
    30    8   29 1
    31   13   30 1
    32   15   31 1
    33   16   32 1
@<TRIPOS>PROPERTY_DATA
  Total_Score	| 3.2631
  Crash		| -1.7834
  Polar		| 4.6380
  FragIndex	| 1
  FragRMSD	| 0.726

