@<TRIPOS>MOLECULE
BindingDB_50331792
 29 30 0 0 0
SMALL
NO_CHARGES


@<TRIPOS>ATOM
1    O        30.1177   14.1631    6.2023  O     
2    C        31.4207   13.5909    6.2310  C     
3    C        32.2310   14.2272    7.3689  C     
4    C        31.3471   12.0926    6.6383  C     
5    C        31.9267   13.2905    8.5617  C     
6    O        31.6980   11.9724    8.0288  O     
7    C        32.2415   11.1731    5.9056  C     
8    O        33.0024   11.6184    4.8693  O     
9    N        32.9900   13.2734    9.5411  N     
10   C        32.8408   13.7856   10.7746  C     
11   N        33.8743   13.8071   11.6145  N     
12   C        35.0591   13.2973   11.2916  C     
13   C        35.2549   12.7208   10.0647  C     
14   C        34.2041   12.7352    9.2108  C     
15   O        31.7936   14.2511   11.2032  O     
16   O        35.9390   13.3536   12.1417  O     
17   C        36.5134   12.1119    9.6470  C     
18   O        32.6458   10.0324    6.5303  O     
19   H        29.8972   14.2820    5.2356  H     
20   H        31.9219   13.7560    5.2636  H     
21   H        33.2954   14.2333    7.1154  H     
22   H        31.9101   15.2571    7.5824  H     
23   H        30.3282   11.7278    6.5123  H     
24   H        30.9620   13.5841    8.9949  H     
25   H        33.7650   14.2016   12.5017  H     
26   H        34.3276   12.3287    8.3059  H     
27   H        36.8857   12.6133    8.7530  H     
28   H        36.3508   11.0495    9.4137  H     
29   H        37.2851   12.1640   10.4221  H     
@<TRIPOS>BOND
     1    2    1 1
     2    2    3 1
     3    2    4 1
     4    3    5 1
     5    4    6 1
     6    4    7 1
     7    5    6 1
     8    5    9 1
     9    7    8 1
    10    7   18 2
    11    9   10 1
    12    9   14 1
    13   10   11 1
    14   10   15 2
    15   11   12 1
    16   12   13 1
    17   12   16 2
    18   13   14 2
    19   13   17 1
    20    1   19 1
    21    2   20 1
    22    3   21 1
    23    3   22 1
    24    4   23 1
    25    5   24 1
    26   11   25 1
    27   14   26 1
    28   17   27 1
    29   17   28 1
    30   17   29 1
@<TRIPOS>PROPERTY_DATA
  Total_Score	| 1.7185
  Crash		| -1.3460
  Polar		| 2.0118
  FragIndex	| 1
  FragRMSD	| 0.644

