@<TRIPOS>MOLECULE
BindingDB_50342006
 46 48 0 0 0
SMALL
NO_CHARGES


@<TRIPOS>ATOM
1    C        31.8224   13.3258    6.1393  C     
2    C        31.8106   14.1813    7.4270  C     
3    C        32.0797   13.1633    8.5765  C     
4    O        32.4143   11.9038    7.9568  O     
5    C        31.8069   11.8640    6.6622  C     
6    N        33.1355   13.5319    9.5256  N     
7    O        30.5509   14.8599    7.6332  O     
8    O        30.7110   13.6160    5.2862  O     
9    C        32.4803   10.8005    5.7215  C     
10   N        33.8299   10.1836    6.0219  N     
11   C        34.9528   11.1069    6.3845  C     
12   C        36.2987   10.3736    6.2696  C     
13   C        36.3570    9.1643    7.2589  C     
14   C        35.1226    8.2457    7.0137  C     
15   C        33.7786    9.0327    6.9863  C     
16   C        36.5442    9.6082    8.6640  C     
17   O        35.9757    8.9708    9.7182  O     
18   O        37.4601   10.5580    8.9608  O     
19   C        34.4534   13.4551    9.1549  C     
20   C        35.4435   13.5333   10.0568  C     
21   C        35.1268   13.7674   11.3560  C     
22   N        33.8593   13.9619   11.6992  N     
23   C        32.8706   13.8495   10.8096  C     
24   O        31.7403   14.0358   11.2416  O     
25   O        35.9830   13.8158   12.2208  O     
26   H        32.7399   13.4881    5.5569  H     
27   H        32.5929   14.9523    7.3618  H     
28   H        31.1188   12.9896    9.0828  H     
29   H        30.7549   11.5703    6.8098  H     
30   H        30.7772   15.6399    8.1792  H     
31   H        30.8214   13.0495    4.4948  H     
32   H        31.7386   10.0034    5.5759  H     
33   H        32.5863   11.2662    4.7375  H     
34   H        34.1095    9.7539    5.1415  H     
35   H        34.9493   12.0079    5.7521  H     
36   H        34.8314   11.4316    7.4165  H     
37   H        36.4221   10.0195    5.2449  H     
38   H        37.1168   11.0768    6.4566  H     
39   H        37.2493    8.5957    7.0056  H     
40   H        35.2439    7.7544    6.0476  H     
41   H        35.0834    7.4551    7.7684  H     
42   H        33.5470    9.3929    7.9879  H     
43   H        32.9997    8.3185    6.6986  H     
44   H        34.7038   13.3454    8.1970  H     
45   H        36.3950   13.4685    9.7725  H     
46   H        33.6567   14.1695   12.6223  H     
@<TRIPOS>BOND
     1    1    2 1
     2    1    5 1
     3    1    8 1
     4    2    3 1
     5    2    7 1
     6    3    4 1
     7    3    6 1
     8    4    5 1
     9    5    9 1
    10    6   19 1
    11    6   23 1
    12    9   10 1
    13   10   11 1
    14   10   15 1
    15   11   12 1
    16   12   13 1
    17   13   14 1
    18   13   16 1
    19   14   15 1
    20   16   17 1
    21   16   18 2
    22   19   20 2
    23   20   21 1
    24   21   22 1
    25   21   25 2
    26   22   23 1
    27   23   24 2
    28    1   26 1
    29    2   27 1
    30    3   28 1
    31    5   29 1
    32    7   30 1
    33    8   31 1
    34    9   32 1
    35    9   33 1
    36   10   34 1
    37   11   35 1
    38   11   36 1
    39   12   37 1
    40   12   38 1
    41   13   39 1
    42   14   40 1
    43   14   41 1
    44   15   42 1
    45   15   43 1
    46   19   44 1
    47   20   45 1
    48   22   46 1
@<TRIPOS>PROPERTY_DATA
  Total_Score	| 4.9578
  Crash		| -2.3465
  Polar		| 6.2577
  FragIndex	| 1
  FragRMSD	| 0.479

