@<TRIPOS>MOLECULE
BindingDB_50118239
 36 37 0 0 0
SMALL
NO_CHARGES


@<TRIPOS>ATOM
1    C        32.0277   13.3497    8.5005  C     
2    C        35.4084   13.2661    9.9692  C     
3    C        34.3857   13.2126    9.0948  C     
4    N        33.0915   13.5035    9.4665  N     
5    C        32.8773   13.8411   10.7571  C     
6    N        33.8906   13.9035   11.6224  N     
7    C        35.1359   13.6224   11.2550  C     
8    O        36.0236   13.6594   12.0940  O     
9    O        31.7737   14.0892   11.2210  O     
10   O        31.9256   11.9777    8.1244  O     
11   C        31.3805   11.8698    6.7992  C     
12   C        31.4504   13.2749    6.1371  C     
13   C        32.2137   14.1230    7.1755  C     
14   C        32.1692   10.7355    6.0800  C     
15   O        33.5915   10.9491    6.2949  O     
16   O        31.7456   15.4724    7.2551  O     
17   O        30.1400   13.7777    5.8816  O     
18   P        34.4822    9.7788    6.8311  P     
19   O        33.8166    8.4888    6.9205  O     
20   O        35.6253    9.6173    5.8172  O     
21   O        35.1299   10.3555    8.1355  O     
22   P        36.3313    9.5749    8.7586  P     
23   O        36.9017    8.4508    7.8584  O     
24   O        35.9717    9.0618   10.0643  O     
25   O        37.4710   10.5928    8.9874  O     
26   H        31.0455   13.6223    8.9040  H     
27   H        36.3323   13.0540    9.6783  H     
28   H        34.5814   12.9281    8.1671  H     
29   H        33.7283   14.1577   12.5416  H     
30   H        30.3320   11.5403    6.8959  H     
31   H        31.9854   13.2465    5.1843  H     
32   H        33.2691   14.1610    6.8819  H     
33   H        31.8018    9.7786    6.4812  H     
34   H        31.9615   10.7595    4.9996  H     
35   H        32.4626   15.9659    7.7204  H     
36   H        30.2750   14.6411    5.4406  H     
@<TRIPOS>BOND
     1    1    4 1
     2    1   10 1
     3    1   13 1
     4    2    3 2
     5    2    7 1
     6    3    4 1
     7    4    5 1
     8    5    6 1
     9    5    9 2
    10    6    7 1
    11    7    8 2
    12   10   11 1
    13   11   12 1
    14   11   14 1
    15   12   13 1
    16   12   17 1
    17   13   16 1
    18   14   15 1
    19   15   18 1
    20   18   19 2
    21   18   20 1
    22   18   21 1
    23   21   22 1
    24   22   23 1
    25   22   24 2
    26   22   25 1
    27    1   26 1
    28    2   27 1
    29    3   28 1
    30    6   29 1
    31   11   30 1
    32   12   31 1
    33   13   32 1
    34   14   33 1
    35   14   34 1
    36   16   35 1
    37   17   36 1
@<TRIPOS>PROPERTY_DATA
  Total_Score	| 5.1390
  Crash		| -1.8263
  Polar		| 6.6528
  FragIndex	| 1
  FragRMSD	| 0.636

