@<TRIPOS>MOLECULE
BindingDB_50292715
 53 55 0 0 0
SMALL
NO_CHARGES


@<TRIPOS>ATOM
1    C        35.2608   13.5520    9.6140  C     
2    C        34.1567   13.5705    8.8552  C     
3    N        32.9066   13.6724    9.4033  N     
4    C        32.8039   13.8561   10.7345  C     
5    N        33.9069   13.8334   11.4860  N     
6    C        35.1179   13.6777   10.9577  C     
7    O        36.0847   13.6278   11.7099  O     
8    O        31.7477   13.9986   11.3252  O     
9    C        31.7496   13.4190    8.5634  C     
10   O        31.8025   12.0173    8.2363  O     
11   C        31.3950   11.8607    6.8822  C     
12   C        31.8524   13.1338    6.1560  C     
13   C        31.6929   14.2244    7.2396  C     
14   O        30.4346   14.9119    7.1530  O     
15   O        31.0873   13.3789    4.9718  O     
16   C        31.8722   10.5052    6.2846  C     
17   N        33.3378   10.1659    6.2662  N     
18   C        33.5323    8.7106    5.9380  C     
19   C        35.0174    8.3022    5.7633  C     
20   C        35.9037    8.7373    6.9738  C     
21   C        35.6292   10.2432    7.2793  C     
22   C        34.1197   10.5343    7.4971  C     
23   C        35.7838    7.8361    8.1568  C     
24   O        35.9268    6.4907    7.9715  O     
25   O        35.6804    8.3310    9.4165  O     
26   C        35.9580    5.4531    8.9687  C     
27   C        34.5438    4.8834    9.1915  C     
28   H        36.1613   13.4269    9.2077  H     
29   H        34.2638   13.4047    7.8712  H     
30   H        33.8251   13.9419   12.4520  H     
31   H        30.8069   13.5452    9.1088  H     
32   H        30.2966   11.8413    6.8861  H     
33   H        32.9119   13.0485    5.8710  H     
34   H        32.4943   14.9639    7.1569  H     
35   H        30.6671   15.8390    6.9204  H     
36   H        31.4733   14.1936    4.5850  H     
37   H        31.3326    9.7095    6.8044  H     
38   H        31.5047   10.5104    5.2495  H     
39   H        33.7418   10.7005    5.4913  H     
40   H        33.1005    8.0798    6.7196  H     
41   H        33.0223    8.4694    4.9977  H     
42   H        35.0949    7.2230    5.6049  H     
43   H        35.3991    8.7817    4.8533  H     
44   H        36.9432    8.6673    6.6604  H     
45   H        36.2013   10.5670    8.1546  H     
46   H        35.9838   10.8374    6.4352  H     
47   H        34.0273   11.5815    7.7452  H     
48   H        33.7482    9.9782    8.3608  H     
49   H        36.6194    4.6603    8.6162  H     
50   H        36.3424    5.8210    9.9241  H     
51   H        33.8663    5.6674    9.5241  H     
52   H        34.5768    4.1035    9.9526  H     
53   H        34.1584    4.4512    8.2645  H     
@<TRIPOS>BOND
     1    1    2 2
     2    1    6 1
     3    2    3 1
     4    3    4 1
     5    9    3 1
     6    4    5 1
     7    4    8 2
     8    5    6 1
     9    6    7 2
    10    9   10 1
    11    9   13 1
    12   10   11 1
    13   11   12 1
    14   11   16 1
    15   12   13 1
    16   12   15 1
    17   13   14 1
    18   16   17 1
    19   17   18 1
    20   17   22 1
    21   18   19 1
    22   19   20 1
    23   20   21 1
    24   20   23 1
    25   21   22 1
    26   23   24 1
    27   23   25 2
    28   24   26 1
    29   26   27 1
    30    1   28 1
    31    2   29 1
    32    5   30 1
    33    9   31 1
    34   11   32 1
    35   12   33 1
    36   13   34 1
    37   14   35 1
    38   15   36 1
    39   16   37 1
    40   16   38 1
    41   17   39 1
    42   18   40 1
    43   18   41 1
    44   19   42 1
    45   19   43 1
    46   20   44 1
    47   21   45 1
    48   21   46 1
    49   22   47 1
    50   22   48 1
    51   26   49 1
    52   26   50 1
    53   27   51 1
    54   27   52 1
    55   27   53 1
@<TRIPOS>PROPERTY_DATA
  Total_Score	| 4.6526
  Crash		| -2.2302
  Polar		| 4.7645
  FragIndex	| 1
  FragRMSD	| 0.266

