@<TRIPOS>MOLECULE
BindingDB_50157954
 49 50 0 0 0
SMALL
NO_CHARGES


@<TRIPOS>ATOM
1    S        -6.1390    1.0408   16.9409  S     
2    C        -5.2816    2.2125   15.9853  C     
3    N        -0.8163    4.5387   10.1124  N     
4    O        -6.5183   -0.2614   16.1211  O     
5    O        -5.1347    0.5552   18.0726  O     
6    C        -3.3212    5.8784   12.8351  C     
7    N        -3.0997    5.1267   13.9111  N     
8    N        -7.4689    1.6002   17.7890  N     
9    O        -4.3317    5.7807   12.1553  O     
10   C        -5.9826    3.1596   15.2150  C     
11   C        -3.8715    2.2283   15.9849  C     
12   C        -3.8687    4.1705   14.4986  C     
13   C        -0.0730    3.3880   10.7138  C     
14   C        -2.2220    4.2003    9.7031  C     
15   C        -3.1735    3.2158   15.2697  C     
16   C        -5.2840    4.1313   14.4744  C     
17   C        -0.8788    2.6276   11.7907  C     
18   C        -3.0430    3.2731   10.6460  C     
19   C        -0.5403    5.8910   10.7089  C     
20   C        -2.2324    2.0930   11.2559  C     
21   C        -2.3021    6.8395   12.4624  C     
22   C        -0.8729    6.2556   12.2005  C     
23   C        -2.0813    0.8978   10.2794  C     
24   H        -0.3625    4.6438    9.2021  H     
25   H        -2.2332    5.2539   14.3321  H     
26   H        -7.5076    1.4669   18.7470  H     
27   H        -8.1238    2.1651   17.3471  H     
28   H        -7.0038    3.1679   15.2127  H     
29   H        -3.3322    1.5464   16.5292  H     
30   H         0.1668    2.6918    9.9030  H     
31   H         0.8785    3.7178   11.1400  H     
32   H        -2.8061    5.1070    9.5104  H     
33   H        -2.1448    3.6781    8.7442  H     
34   H        -2.1465    3.2325   15.3162  H     
35   H        -5.8161    4.8273   13.9512  H     
36   H        -0.2790    1.8093   12.2019  H     
37   H        -1.1012    3.3285   12.5946  H     
38   H        -3.4363    3.8608   11.4641  H     
39   H        -3.9148    2.8901   10.1094  H     
40   H         0.5430    6.0113   10.6112  H     
41   H        -0.9491    6.6597   10.0477  H     
42   H        -2.7940    1.7158   12.1202  H     
43   H        -2.6349    7.4162   11.5945  H     
44   H        -2.2422    7.5516   13.2897  H     
45   H        -0.6333    5.4253   12.8805  H     
46   H        -0.1776    7.0515   12.4955  H     
47   H        -1.7089    1.2254    9.3106  H     
48   H        -3.0471    0.4143   10.1270  H     
49   H        -1.3859    0.1653   10.6898  H     
@<TRIPOS>BOND
     1    1    2 1
     2    1    4 2
     3    1    5 2
     4    1    8 am
     5    2   10 1
     6    2   11 2
     7    3   13 1
     8    3   14 1
     9    3   19 1
    10    6    7 am
    11    6    9 2
    12    6   21 1
    13    7   12 1
    14   10   16 2
    15   11   15 1
    16   12   15 2
    17   12   16 1
    18   13   17 1
    19   14   18 1
    20   17   20 1
    21   18   20 1
    22   19   22 1
    23   20   23 1
    24   21   22 1
    25    3   24 1
    26    7   25 1
    27    8   26 1
    28    8   27 1
    29   10   28 1
    30   11   29 1
    31   13   30 1
    32   13   31 1
    33   14   32 1
    34   14   33 1
    35   15   34 1
    36   16   35 1
    37   17   36 1
    38   17   37 1
    39   18   38 1
    40   18   39 1
    41   19   40 1
    42   19   41 1
    43   20   42 1
    44   21   43 1
    45   21   44 1
    46   22   45 1
    47   22   46 1
    48   23   47 1
    49   23   48 1
    50   23   49 1
@<TRIPOS>PROPERTY_DATA
  Total_Score	| 5.0632
  Crash		| -1.9385
  Polar		| 2.5342
  FragIndex	| 1
  FragRMSD	| 1.233

