@<TRIPOS>MOLECULE
BindingDB_50345214
 42 42 0 0 0
SMALL
NO_CHARGES


@<TRIPOS>ATOM
1    C        -6.0793    3.5521   15.7009  C     
2    C        -4.2829    4.2786   14.1796  C     
3    C        -3.6746    3.0117   14.3593  C     
4    C        -4.2477    2.0401   15.1980  C     
5    C        -5.4540    2.3009   15.8769  C     
6    S        -6.1353    1.0666   16.9050  S     
7    N        -7.5736    1.4531   17.6742  N     
8    O        -6.3401   -0.2738   16.0742  O     
9    O        -5.0872    0.7673   18.0605  O     
10   N        -3.8106    5.2959   13.3886  N     
11   C        -2.6317    5.5013   12.8111  C     
12   O        -1.7214    4.6918   12.8971  O     
13   C        -2.4124    6.7511   12.0699  C     
14   C        -2.5883    8.0369   12.9555  C     
15   C        -1.0683    6.8021   11.2557  C     
16   C        -5.4986    4.5258   14.8612  C     
17   C        -1.5816    8.3009   14.1336  C     
18   C        -1.4583    9.8187   14.4577  C     
19   C        -1.0022    5.8552   10.0292  C     
20   C        -1.9378    7.5152   15.4253  C     
21   H        -6.9573    3.7679   16.1847  H     
22   H        -2.8204    2.7621   13.8700  H     
23   H        -3.7810    1.1347   15.3001  H     
24   H        -7.8070    0.9973   18.4999  H     
25   H        -8.0461    2.2608   17.4231  H     
26   H        -4.4311    6.0291   13.2686  H     
27   H        -3.2120    6.8025   11.3249  H     
28   H        -2.5426    8.8865   12.2685  H     
29   H        -3.6047    8.0578   13.3650  H     
30   H        -0.9159    7.8166   10.8686  H     
31   H        -0.2263    6.5767   11.9155  H     
32   H        -5.9706    5.4275   14.7606  H     
33   H        -0.5806    7.9733   13.8291  H     
34   H        -1.1563   10.3756   13.5683  H     
35   H        -0.7053    9.9905   15.2303  H     
36   H        -2.4138   10.2123   14.8108  H     
37   H        -1.1321    4.8125   10.3249  H     
38   H        -0.0256    5.9556    9.5489  H     
39   H        -1.7725    6.1143    9.2995  H     
40   H        -2.9191    7.8150   15.8023  H     
41   H        -1.1978    7.7092   16.2060  H     
42   H        -1.9492    6.4418   15.2352  H     
@<TRIPOS>BOND
     1    1    5 1
     2    1   16 2
     3    2    3 2
     4    2   10 1
     5    2   16 1
     6    3    4 1
     7    4    5 2
     8    5    6 1
     9    6    7 am
    10    6    8 2
    11    6    9 2
    12   10   11 am
    13   11   12 2
    14   11   13 1
    15   13   14 1
    16   13   15 1
    17   14   17 1
    18   15   19 1
    19   17   18 1
    20   17   20 1
    21    1   21 1
    22    3   22 1
    23    4   23 1
    24    7   24 1
    25    7   25 1
    26   10   26 1
    27   13   27 1
    28   14   28 1
    29   14   29 1
    30   15   30 1
    31   15   31 1
    32   16   32 1
    33   17   33 1
    34   18   34 1
    35   18   35 1
    36   18   36 1
    37   19   37 1
    38   19   38 1
    39   19   39 1
    40   20   40 1
    41   20   41 1
    42   20   42 1
@<TRIPOS>PROPERTY_DATA
  Total_Score	| 3.8576
  Crash		| -1.1443
  Polar		| 2.6839
  FragIndex	| 1
  FragRMSD	| 1.376

