@<TRIPOS>MOLECULE
BindingDB_50345216
 42 42 0 0 0
SMALL
NO_CHARGES


@<TRIPOS>ATOM
1    C        -5.9819    3.3277   15.2987  C     
2    C        -3.9113    4.3379   14.4924  C     
3    C        -3.1732    3.3137   15.1231  C     
4    C        -3.8415    2.2901   15.8215  C     
5    C        -5.2485    2.3065   15.9376  C     
6    S        -6.0474    1.1001   16.9013  S     
7    N        -7.5561    1.5929   17.4422  N     
8    O        -6.2566   -0.1940   16.0093  O     
9    O        -5.1382    0.7485   18.1528  O     
10   N        -3.2526    5.3307   13.8364  N     
11   C        -3.1024    5.4265   12.5273  C     
12   O        -3.5481    4.5657   11.7741  O     
13   C        -2.3496    6.5476   11.9603  C     
14   C        -3.0767    7.9110   12.2083  C     
15   C        -0.8785    6.6185   12.5000  C     
16   C        -5.3192    4.3321   14.5743  C     
17   C        -4.3610    8.2164   11.3762  C     
18   C        -5.6525    7.4537   11.8018  C     
19   C        -0.0800    5.2931   12.4612  C     
20   C        -6.9358    8.3024   11.6473  C     
21   H        -7.0058    3.3515   15.3609  H     
22   H        -2.1528    3.2962   15.0656  H     
23   H        -3.2940    1.5417   16.2513  H     
24   H        -8.1648    0.9412   17.8175  H     
25   H        -7.7868    2.5350   17.4409  H     
26   H        -2.7853    5.9841   14.3947  H     
27   H        -2.2763    6.4210   10.8751  H     
28   H        -3.3152    8.0215   13.2666  H     
29   H        -2.3731    8.7202   11.9675  H     
30   H        -0.3218    7.3447   11.8965  H     
31   H        -0.8776    6.9866   13.5270  H     
32   H        -5.8635    5.0677   14.1207  H     
33   H        -4.5449    9.2894   11.4695  H     
34   H        -4.1629    8.0202   10.3196  H     
35   H        -5.7542    6.5537   11.1902  H     
36   H        -5.5771    7.1482   12.8448  H     
37   H        -0.4947    4.5711   13.1686  H     
38   H         0.9592    5.4845   12.7383  H     
39   H        -0.1016    4.8624   11.4597  H     
40   H        -6.8731    9.1829   12.2887  H     
41   H        -7.8099    7.7219   11.9455  H     
42   H        -7.0634    8.6214   10.6130  H     
@<TRIPOS>BOND
     1    1    5 1
     2    1   16 2
     3    2    3 2
     4    2   10 1
     5    2   16 1
     6    3    4 1
     7    4    5 2
     8    5    6 1
     9    6    7 am
    10    6    8 2
    11    6    9 2
    12   10   11 am
    13   11   12 2
    14   11   13 1
    15   13   14 1
    16   13   15 1
    17   14   17 1
    18   15   19 1
    19   17   18 1
    20   18   20 1
    21    1   21 1
    22    3   22 1
    23    4   23 1
    24    7   24 1
    25    7   25 1
    26   10   26 1
    27   13   27 1
    28   14   28 1
    29   14   29 1
    30   15   30 1
    31   15   31 1
    32   16   32 1
    33   17   33 1
    34   17   34 1
    35   18   35 1
    36   18   36 1
    37   19   37 1
    38   19   38 1
    39   19   39 1
    40   20   40 1
    41   20   41 1
    42   20   42 1
@<TRIPOS>PROPERTY_DATA
  Total_Score	| 4.5661
  Crash		| -1.4610
  Polar		| 2.5269
  FragIndex	| 1
  FragRMSD	| 1.078

