@<TRIPOS>MOLECULE
BindingDB_50345222
 39 39 0 0 0
SMALL
NO_CHARGES


@<TRIPOS>ATOM
1    C        -5.8160    3.1494   14.9870  C     
2    C        -3.6559    4.0809   14.2807  C     
3    C        -3.0206    3.2039   15.1921  C     
4    C        -3.7642    2.3017   15.9758  C     
5    C        -5.1699    2.2837   15.8966  C     
6    S        -6.0923    1.2397   16.9427  S     
7    N        -7.5355    1.9459   17.4265  N     
8    O        -6.4792   -0.0544   16.1031  O     
9    O        -5.2519    0.8060   18.2223  O     
10   N        -2.8133    4.9148   13.5957  N     
11   C        -3.0324    5.8012   12.6309  C     
12   O        -4.1504    5.9653   12.1520  O     
13   C        -1.9593    6.6299   12.0831  C     
14   C        -1.9630    8.0757   12.6978  C     
15   C        -0.5467    5.9460   12.0446  C     
16   C        -5.0678    4.0325   14.1898  C     
17   C        -1.1701    8.3463   14.0101  C     
18   C        -1.8573    7.8957   15.3139  C     
19   C         0.5035    6.6775   11.1749  C     
20   H        -6.8374    3.1499   14.9180  H     
21   H        -2.0006    3.2164   15.2985  H     
22   H        -3.2681    1.6800   16.6191  H     
23   H        -8.3077    1.3818   17.5814  H     
24   H        -7.6346    2.9161   17.4018  H     
25   H        -1.8948    4.8492   13.8752  H     
26   H        -2.2182    6.7560   11.0231  H     
27   H        -1.5425    8.7484   11.9398  H     
28   H        -2.9941    8.4115   12.8473  H     
29   H        -0.1466    5.8429   13.0563  H     
30   H        -0.6539    4.9335   11.6403  H     
31   H        -5.5916    4.6343   13.5668  H     
32   H        -0.1830    7.8814   13.9551  H     
33   H        -1.0028    9.4286   14.0789  H     
34   H        -2.8556    8.3339   15.3910  H     
35   H        -1.2637    8.2245   16.1714  H     
36   H        -1.9319    6.8122   15.3515  H     
37   H         0.1552    6.7554   10.1402  H     
38   H         1.4482    6.1239   11.1792  H     
39   H         0.6982    7.6830   11.5586  H     
@<TRIPOS>BOND
     1    1    5 1
     2    1   16 2
     3    2    3 2
     4    2   10 1
     5    2   16 1
     6    3    4 1
     7    4    5 2
     8    5    6 1
     9    6    7 am
    10    6    8 2
    11    6    9 2
    12   10   11 am
    13   11   12 2
    14   11   13 1
    15   13   14 1
    16   13   15 1
    17   14   17 1
    18   15   19 1
    19   17   18 1
    20    1   20 1
    21    3   21 1
    22    4   22 1
    23    7   23 1
    24    7   24 1
    25   10   25 1
    26   13   26 1
    27   14   27 1
    28   14   28 1
    29   15   29 1
    30   15   30 1
    31   16   31 1
    32   17   32 1
    33   17   33 1
    34   18   34 1
    35   18   35 1
    36   18   36 1
    37   19   37 1
    38   19   38 1
    39   19   39 1
@<TRIPOS>PROPERTY_DATA
  Total_Score	| 3.7923
  Crash		| -1.3485
  Polar		| 2.4858
  FragIndex	| 1
  FragRMSD	| 1.269

