@<TRIPOS>MOLECULE
BindingDB_16413
 86 89 0 0 0
SMALL
NO_CHARGES


@<TRIPOS>ATOM
1    C        28.0541   42.8941    0.6918  C     
2    C        29.0188   43.8839    1.0522  C     
3    C        30.3577   43.5688    1.3663  C     
4    C        30.7750   42.2139    1.3320  C     
5    C        29.8731   41.1948    0.9449  C     
6    C        28.5402   41.5559    0.6185  C     
7    C        31.2489   44.5687    1.7672  C     
8    O        31.2696   45.6178    1.1234  O     
9    N        31.9518   44.3947    2.8811  N     
10   C        32.6840   45.4031    3.5960  C     
11   C        30.3138   39.8673    0.8890  C     
12   O        30.0913   39.1964   -0.1137  O     
13   N        30.8984   39.3394    1.9582  N     
14   C        31.4777   38.0270    2.0654  C     
15   C        29.2989   36.6260    2.1840  C     
16   C        32.9477   38.1347    2.5830  C     
17   C        30.5567   37.1190    2.9554  C     
18   O        31.2552   35.9556    3.4123  O     
19   N        26.7016   43.2105    0.4498  N     
20   S        25.9628   44.6436    1.0114  S     
21   O        24.3779   44.6280    0.9540  O     
22   O        26.2096   44.7186    2.5855  O     
23   C        34.1774   44.9724    3.6564  C     
24   C        33.8418   39.0712    1.8351  C     
25   C        33.7121   39.2409    0.4350  C     
26   C        34.5516   40.1185   -0.2752  C     
27   C        35.5596   40.8289    0.4013  C     
28   C        35.7202   40.6565    1.7872  C     
29   C        34.8723   39.7851    2.4944  C     
30   C        32.1443   45.6691    4.9641  C     
31   C        32.2855   46.9634    5.5256  C     
32   C        31.5588   44.6631    5.7793  C     
33   C        31.2085   44.9159    7.1191  C     
34   C        31.4541   46.1875    7.6822  C     
35   C        31.9580   47.2203    6.8691  C     
36   N        28.3780   35.8549    3.0532  N     
37   C        26.5906   46.1055    0.1300  C     
38   C        25.4787   46.6843   -0.7826  C     
39   C        27.1398   47.1591    1.1136  C     
40   C        25.8446   42.3637   -0.3538  C     
41   C        27.1778   35.3580    2.3545  C     
42   C        27.2251   33.9122    1.8349  C     
43   C        26.3926   34.2551    3.0799  C     
44   H        28.7341   44.8685    1.1224  H     
45   H        31.7540   41.9746    1.5515  H     
46   H        27.8847   40.7980    0.3695  H     
47   H        31.9012   43.5213    3.3056  H     
48   H        32.6428   46.3531    3.0413  H     
49   H        30.9493   39.8997    2.7550  H     
50   H        31.5297   37.5537    1.0811  H     
51   H        28.7450   37.4829    1.7935  H     
52   H        29.6218   36.0066    1.3411  H     
53   H        32.9208   38.4041    3.6447  H     
54   H        33.4098   37.1452    2.5196  H     
55   H        30.2366   37.6881    3.8390  H     
56   H        31.7986   36.2519    4.1673  H     
57   H        34.2922   44.0656    4.2573  H     
58   H        34.7899   45.7613    4.0987  H     
59   H        34.5572   44.7761    2.6520  H     
60   H        32.9971   38.7321   -0.0844  H     
61   H        34.4268   40.2416   -1.2823  H     
62   H        36.1754   41.4605   -0.1146  H     
63   H        36.4618   41.1643    2.2769  H     
64   H        35.0138   39.6673    3.5013  H     
65   H        32.6562   47.7302    4.9522  H     
66   H        31.4005   43.7196    5.4204  H     
67   H        30.8046   44.1768    7.6932  H     
68   H        31.2545   46.3627    8.6670  H     
69   H        32.1012   48.1525    7.2644  H     
70   H        28.8849   35.0628    3.4626  H     
71   H        28.0781   36.4731    3.8080  H     
72   H        27.4072   45.7953   -0.5170  H     
73   H        25.1306   45.9237   -1.4848  H     
74   H        25.8724   47.5280   -1.3620  H     
75   H        24.6302   47.0359   -0.1907  H     
76   H        26.3332   47.5735    1.7163  H     
77   H        27.6201   47.9792    0.5658  H     
78   H        27.8876   46.7144    1.7761  H     
79   H        26.3342   42.1328   -1.3012  H     
80   H        24.8665   42.7923   -0.6023  H     
81   H        25.6523   41.4356    0.1855  H     
82   H        26.5546   36.0474    1.7809  H     
83   H        26.6522   33.7048    0.9298  H     
84   H        28.1593   33.3753    2.0124  H     
85   H        26.7986   33.9485    4.0447  H     
86   H        25.3106   34.2823    2.9395  H     
@<TRIPOS>BOND
     1    1    2 1
     2    1    6 2
     3    1   19 1
     4    2    3 2
     5    3    4 1
     6    3    7 1
     7    4    5 2
     8    5    6 1
     9    5   11 1
    10    7    8 2
    11    7    9 am
    12    9   10 1
    13   10   23 1
    14   10   30 1
    15   11   12 2
    16   11   13 am
    17   13   14 1
    18   14   16 1
    19   14   17 1
    20   15   17 1
    21   15   36 1
    22   16   24 1
    23   17   18 1
    24   19   20 1
    25   19   40 1
    26   20   21 2
    27   20   22 2
    28   20   37 1
    29   24   25 2
    30   24   29 1
    31   25   26 1
    32   26   27 2
    33   27   28 1
    34   28   29 2
    35   30   31 1
    36   30   32 2
    37   31   35 2
    38   32   33 1
    39   33   34 2
    40   34   35 1
    41   36   41 1
    42   37   38 1
    43   37   39 1
    44   41   42 1
    45   41   43 1
    46   42   43 1
    47    2   44 1
    48    4   45 1
    49    6   46 1
    50    9   47 1
    51   10   48 1
    52   13   49 1
    53   14   50 1
    54   15   51 1
    55   15   52 1
    56   16   53 1
    57   16   54 1
    58   17   55 1
    59   18   56 1
    60   23   57 1
    61   23   58 1
    62   23   59 1
    63   25   60 1
    64   26   61 1
    65   27   62 1
    66   28   63 1
    67   29   64 1
    68   31   65 1
    69   32   66 1
    70   33   67 1
    71   34   68 1
    72   35   69 1
    73   36   70 1
    74   36   71 1
    75   37   72 1
    76   38   73 1
    77   38   74 1
    78   38   75 1
    79   39   76 1
    80   39   77 1
    81   39   78 1
    82   40   79 1
    83   40   80 1
    84   40   81 1
    85   41   82 1
    86   42   83 1
    87   42   84 1
    88   43   85 1
    89   43   86 1
@<TRIPOS>PROPERTY_DATA
  Total_Score	| 20.0387
  Crash		| -2.7109
  Polar		| 9.4673
  FragIndex	| 1
  FragRMSD	| 0.500

