@<TRIPOS>MOLECULE
BindingDB_16027
 73 76 0 0 0
SMALL
NO_CHARGES


@<TRIPOS>ATOM
1    C        27.8120   42.8710    0.6588  C     
2    C        28.1677   41.5036    0.7683  C     
3    C        29.4845   41.0887    1.0958  C     
4    C        30.4427   42.0922    1.3776  C     
5    C        30.1348   43.4684    1.2724  C     
6    C        28.8306   43.8317    0.8560  C     
7    N        26.5207   43.2873    0.3467  N     
8    C        25.7220   42.5606   -0.6072  C     
9    C        26.4995   46.2709    0.6797  C     
10   S        25.8410   44.6478    1.1121  S     
11   O        24.2633   44.6973    0.8930  O     
12   O        25.9167   44.4697    2.6887  O     
13   C        31.0785   44.4437    1.5923  C     
14   O        31.1886   45.4305    0.8691  O     
15   C        29.7978   39.6258    1.1757  C     
16   N        31.7667   44.3499    2.7284  N     
17   C        32.7944   45.2393    3.2060  C     
18   C        33.9404   45.4214    2.1599  C     
19   C        34.6099   44.0864    1.6894  C     
20   N        34.0356   43.5438    0.4343  N     
21   C        35.0309   42.9715   -0.4905  C     
22   C        35.6464   41.6133   -0.1255  C     
23   C        34.5800   41.7025   -1.2249  C     
24   O        33.4687   46.2249    1.0754  O     
25   C        33.3443   44.7343    4.5850  C     
26   C        32.6254   45.3001    5.7538  C     
27   C        32.2622   44.4937    6.8562  C     
28   C        32.3508   46.6875    5.8078  C     
29   C        31.7178   47.2562    6.9251  C     
30   C        31.3749   46.4465    8.0208  C     
31   C        31.6481   45.0661    7.9840  C     
32   C        31.2290   39.2580    1.4181  C     
33   C        33.0812   38.7776    2.9623  C     
34   C        31.7032   38.9615    2.7201  C     
35   C        32.1664   39.2926    0.3588  C     
36   C        33.5380   39.0756    0.5951  C     
37   C        33.9997   38.8524    1.9040  C     
38   H        27.4529   40.7893    0.6249  H     
39   H        31.3946   41.8245    1.6524  H     
40   H        28.6100   44.8224    0.7136  H     
41   H        26.2980   42.3665   -1.5139  H     
42   H        24.8148   43.0900   -0.9146  H     
43   H        25.4037   41.6106   -0.1789  H     
44   H        27.4826   46.4025    1.1365  H     
45   H        25.8312   47.0583    1.0429  H     
46   H        26.5819   46.3430   -0.4079  H     
47   H        29.1750   39.1961    1.9648  H     
48   H        29.4816   39.1521    0.2417  H     
49   H        31.5573   43.5937    3.3058  H     
50   H        32.3371   46.2206    3.3650  H     
51   H        34.7163   46.0404    2.6209  H     
52   H        35.6887   44.2407    1.5953  H     
53   H        34.4997   43.3108    2.4511  H     
54   H        33.3600   42.8115    0.6682  H     
55   H        33.5390   44.2823   -0.0666  H     
56   H        35.6425   43.6357   -1.1059  H     
57   H        36.6744   41.4699   -0.4573  H     
58   H        35.3204   41.1587    0.8080  H     
59   H        33.5986   41.3108   -0.9585  H     
60   H        34.9394   41.6052   -2.2505  H     
61   H        32.9584   45.6488    0.4707  H     
62   H        33.3229   43.6420    4.5964  H     
63   H        34.3910   45.0228    4.7089  H     
64   H        32.4542   43.4891    6.8543  H     
65   H        32.6202   47.3011    5.0359  H     
66   H        31.5168   48.2574    6.9444  H     
67   H        30.9254   46.8692    8.8352  H     
68   H        31.3946   44.4701    8.7738  H     
69   H        33.4166   38.5905    3.9111  H     
70   H        31.0512   38.9076    3.5081  H     
71   H        31.8549   39.4893   -0.5982  H     
72   H        34.2009   39.0881   -0.1842  H     
73   H        35.0003   38.7354    2.0811  H     
@<TRIPOS>BOND
     1    1    2 1
     2    1    6 2
     3    1    7 1
     4    2    3 2
     5    3    4 1
     6    3   15 1
     7    4    5 2
     8    5    6 1
     9    5   13 1
    10    7    8 1
    11    7   10 1
    12    9   10 1
    13   10   11 2
    14   10   12 2
    15   13   14 2
    16   13   16 am
    17   15   32 1
    18   16   17 1
    19   17   18 1
    20   17   25 1
    21   18   19 1
    22   18   24 1
    23   19   20 1
    24   20   21 1
    25   21   22 1
    26   21   23 1
    27   22   23 1
    28   25   26 1
    29   26   27 1
    30   26   28 2
    31   27   31 2
    32   28   29 1
    33   29   30 2
    34   30   31 1
    35   32   34 1
    36   32   35 2
    37   33   34 2
    38   33   37 1
    39   35   36 1
    40   36   37 2
    41    2   38 1
    42    4   39 1
    43    6   40 1
    44    8   41 1
    45    8   42 1
    46    8   43 1
    47    9   44 1
    48    9   45 1
    49    9   46 1
    50   15   47 1
    51   15   48 1
    52   16   49 1
    53   17   50 1
    54   18   51 1
    55   19   52 1
    56   19   53 1
    57   20   54 1
    58   20   55 1
    59   21   56 1
    60   22   57 1
    61   22   58 1
    62   23   59 1
    63   23   60 1
    64   24   61 1
    65   25   62 1
    66   25   63 1
    67   27   64 1
    68   28   65 1
    69   29   66 1
    70   30   67 1
    71   31   68 1
    72   33   69 1
    73   34   70 1
    74   35   71 1
    75   36   72 1
    76   37   73 1
@<TRIPOS>PROPERTY_DATA
  Total_Score	| 12.3604
  Crash		| -4.1024
  Polar		| 4.9234
  FragIndex	| 1
  FragRMSD	| 0.482

