@<TRIPOS>MOLECULE
BindingDB_16034
 80 83 0 0 0
SMALL
NO_CHARGES


@<TRIPOS>ATOM
1    C        32.1341   47.1284    5.7543  C     
2    C        31.4279   48.2595    5.3210  C     
3    C        31.3863   48.5819    3.9511  C     
4    C        32.0852   47.7881    3.0206  C     
5    C        32.7918   46.3104    4.8188  C     
6    C        32.7918   46.6342    3.4361  C     
7    C        33.4370   45.7251    2.4324  C     
8    C        34.8126   45.1920    2.9041  C     
9    N        32.5414   44.6460    2.0998  N     
10   C        31.3557   44.7744    1.4991  C     
11   O        31.0157   45.9148    1.1612  O     
12   C        30.4627   43.7145    1.2904  C     
13   C        28.1389   42.9611    0.6990  C     
14   C        29.1042   43.9711    0.9437  C     
15   C        30.8422   42.3566    1.3835  C     
16   C        29.9419   41.3070    1.1011  C     
17   C        28.5964   41.6277    0.7799  C     
18   N        26.8065   43.2663    0.3682  N     
19   C        26.0649   42.4330   -0.5480  C     
20   C        26.4635   46.1858    0.2738  C     
21   S        26.0020   44.6069    1.0164  S     
22   O        24.4017   44.5223    0.7799  O     
23   O        26.1058   44.6599    2.5961  O     
24   C        30.3734   39.9937    1.0555  C     
25   O        30.1515   39.3330    0.0459  O     
26   N        30.9811   39.4645    2.1096  N     
27   C        31.5677   38.1536    2.1928  C     
28   C        30.6164   37.2032    2.9965  C     
29   C        29.3741   36.7499    2.1774  C     
30   N        28.4647   35.9252    3.0025  N     
31   C        27.3413   35.3209    2.2530  C     
32   C        26.4867   34.3316    3.0621  C     
33   C        25.9123   35.6995    2.6720  C     
34   O        31.2991   36.0205    3.4230  O     
35   C        32.9972   38.2702    2.8101  C     
36   C        33.8071   39.4264    2.3208  C     
37   C        34.0412   40.5479    3.1434  C     
38   C        34.8144   41.6278    2.6773  C     
39   C        35.3528   41.6172    1.3796  C     
40   C        35.1072   40.5202    0.5446  C     
41   C        34.3535   39.4254    1.0138  C     
42   H        32.1536   46.8803    6.7464  H     
43   H        30.9344   48.8391    5.9991  H     
44   H        30.8428   49.3861    3.6324  H     
45   H        32.0333   48.0388    2.0288  H     
46   H        33.2597   45.4716    5.1627  H     
47   H        33.6536   46.2744    1.5081  H     
48   H        35.5012   46.0240    3.0650  H     
49   H        35.2364   44.5317    2.1449  H     
50   H        34.7248   44.6401    3.8370  H     
51   H        32.8153   43.7483    2.3519  H     
52   H        28.8254   44.9524    0.8818  H     
53   H        31.8139   42.1244    1.6004  H     
54   H        27.9556   40.8421    0.6212  H     
55   H        26.6973   42.1278   -1.3911  H     
56   H        25.1873   42.9403   -0.9684  H     
57   H        25.6939   41.5439   -0.0312  H     
58   H        27.5070   46.4274    0.4718  H     
59   H        25.8491   46.9849    0.6829  H     
60   H        26.3310   46.1259   -0.8041  H     
61   H        31.0503   40.0206    2.9044  H     
62   H        31.6978   37.7180    1.1974  H     
63   H        30.2662   37.7264    3.8916  H     
64   H        28.8236   37.6265    1.8252  H     
65   H        29.7094   36.1758    1.3075  H     
66   H        28.9989   35.1707    3.4475  H     
67   H        28.0840   36.5289    3.7374  H     
68   H        27.4816   35.0053    1.2134  H     
69   H        26.0882   33.4790    2.5089  H     
70   H        26.7726   34.2008    4.1065  H     
71   H        25.8260   36.4314    3.4785  H     
72   H        25.1722   35.6943    1.8720  H     
73   H        31.8271   36.2854    4.2053  H     
74   H        32.8907   38.3206    3.8980  H     
75   H        33.5604   37.3598    2.5818  H     
76   H        33.6549   40.5929    4.0910  H     
77   H        34.9941   42.4202    3.2882  H     
78   H        35.9194   42.4059    1.0488  H     
79   H        35.4816   40.5096   -0.4068  H     
80   H        34.1972   38.6357    0.3889  H     
@<TRIPOS>BOND
     1    1    2 2
     2    1    5 1
     3    2    3 1
     4    3    4 2
     5    4    6 1
     6    5    6 2
     7    6    7 1
     8    7    8 1
     9    7    9 1
    10    9   10 am
    11   10   11 2
    12   10   12 1
    13   12   14 2
    14   12   15 1
    15   13   14 1
    16   13   17 2
    17   13   18 1
    18   15   16 2
    19   16   17 1
    20   16   24 1
    21   18   19 1
    22   18   21 1
    23   20   21 1
    24   21   22 2
    25   21   23 2
    26   24   25 2
    27   24   26 am
    28   26   27 1
    29   27   28 1
    30   27   35 1
    31   28   29 1
    32   28   34 1
    33   29   30 1
    34   30   31 1
    35   31   32 1
    36   31   33 1
    37   32   33 1
    38   35   36 1
    39   36   37 2
    40   36   41 1
    41   37   38 1
    42   38   39 2
    43   39   40 1
    44   40   41 2
    45    1   42 1
    46    2   43 1
    47    3   44 1
    48    4   45 1
    49    5   46 1
    50    7   47 1
    51    8   48 1
    52    8   49 1
    53    8   50 1
    54    9   51 1
    55   14   52 1
    56   15   53 1
    57   17   54 1
    58   19   55 1
    59   19   56 1
    60   19   57 1
    61   20   58 1
    62   20   59 1
    63   20   60 1
    64   26   61 1
    65   27   62 1
    66   28   63 1
    67   29   64 1
    68   29   65 1
    69   30   66 1
    70   30   67 1
    71   31   68 1
    72   32   69 1
    73   32   70 1
    74   33   71 1
    75   33   72 1
    76   34   73 1
    77   35   74 1
    78   35   75 1
    79   37   76 1
    80   38   77 1
    81   39   78 1
    82   40   79 1
    83   41   80 1
@<TRIPOS>PROPERTY_DATA
  Total_Score	| 16.9149
  Crash		| -3.0877
  Polar		| 8.3485
  FragIndex	| 1
  FragRMSD	| 0.374

