@<TRIPOS>MOLECULE
BindingDB_16029
 71 73 0 0 0
SMALL
NO_CHARGES


@<TRIPOS>ATOM
1    C        27.9922   43.0078    0.5603  C     
2    C        28.9563   44.0321    0.7185  C     
3    C        30.3076   43.7657    1.0720  C     
4    C        30.6994   42.4103    1.1685  C     
5    C        29.7944   41.3501    0.9461  C     
6    C        28.4418   41.6604    0.6712  C     
7    N        26.6522   43.3027    0.3470  N     
8    C        25.7994   42.4606   -0.4614  C     
9    C        26.5886   46.2475    0.7581  C     
10   S        25.9194   44.6150    1.1578  S     
11   O        24.3570   44.6803    0.8505  O     
12   O        25.9528   44.3835    2.7329  O     
13   C        30.2541   40.0360    0.9325  C     
14   O        30.1249   39.3845   -0.0979  O     
15   C        31.2059   44.8172    1.2720  C     
16   N        30.8306   39.4997    2.0117  N     
17   C        31.4314   38.1904    2.1039  C     
18   C        30.5251   37.2541    2.9671  C     
19   C        29.2560   36.7738    2.2062  C     
20   N        28.3963   35.9280    3.0570  N     
21   C        27.1897   35.4353    2.3565  C     
22   C        27.2004   33.9887    1.8414  C     
23   C        26.3983   34.3504    3.1010  C     
24   O        31.2252   36.0765    3.3762  O     
25   C        32.8927   38.3123    2.6445  C     
26   C        33.8097   39.2149    1.8912  C     
27   C        33.6598   39.4316    0.5006  C     
28   C        34.9197   39.8165    2.5399  C     
29   C        35.8339   40.6102    1.8260  C     
30   C        35.6605   40.8203    0.4436  C     
31   C        34.5652   40.2345   -0.2139  C     
32   C        32.1066   45.0234    2.4276  C     
33   C        32.0169   44.0194    3.6125  C     
34   C        33.5826   45.1648    1.9458  C     
35   O        31.1898   45.7268    0.4511  O     
36   H        28.6654   45.0019    0.5459  H     
37   H        31.6806   42.1935    1.3316  H     
38   H        27.7807   40.8944    0.5434  H     
39   H        26.3163   42.1680   -1.3850  H     
40   H        24.8509   42.9391   -0.7581  H     
41   H        25.5450   41.5574    0.1051  H     
42   H        27.5907   46.3624    1.1987  H     
43   H        25.9308   47.0335    1.1573  H     
44   H        26.6450   46.3434   -0.3347  H     
45   H        30.8671   40.0558    2.8066  H     
46   H        31.5120   37.7308    1.1165  H     
47   H        30.2188   37.7834    3.8732  H     
48   H        28.6749   37.6422    1.8865  H     
49   H        29.5614   36.2146    1.3161  H     
50   H        28.9369   35.1307    3.4112  H     
51   H        28.0888   36.4925    3.8504  H     
52   H        26.5698   36.1353    1.7947  H     
53   H        26.6175   33.8140    0.9356  H     
54   H        28.1317   33.4416    1.9971  H     
55   H        26.8198   34.0064    4.0480  H     
56   H        25.3132   34.3940    2.9788  H     
57   H        31.7915   36.3489    4.1280  H     
58   H        32.8420   38.6111    3.6931  H     
59   H        33.3545   37.3214    2.6203  H     
60   H        32.8799   39.0163   -0.0141  H     
61   H        35.0779   39.6593    3.5385  H     
62   H        36.6377   41.0350    2.2997  H     
63   H        36.3252   41.3956   -0.0819  H     
64   H        34.4339   40.3792   -1.2217  H     
65   H        31.8324   45.9897    2.8579  H     
66   H        30.9800   43.8064    3.8556  H     
67   H        32.4912   44.4346    4.5074  H     
68   H        32.5294   43.0852    3.3742  H     
69   H        33.9261   44.2382    1.4713  H     
70   H        34.2412   45.3972    2.7899  H     
71   H        33.6660   45.9836    1.2215  H     
@<TRIPOS>BOND
     1    1    2 1
     2    1    6 2
     3    1    7 1
     4    2    3 2
     5    3    4 1
     6    3   15 1
     7    4    5 2
     8    5    6 1
     9    5   13 1
    10    7    8 1
    11    7   10 1
    12    9   10 1
    13   10   11 2
    14   10   12 2
    15   13   14 2
    16   13   16 am
    17   15   32 1
    18   15   35 2
    19   16   17 1
    20   17   18 1
    21   17   25 1
    22   18   19 1
    23   18   24 1
    24   19   20 1
    25   20   21 1
    26   21   22 1
    27   21   23 1
    28   22   23 1
    29   25   26 1
    30   26   27 1
    31   26   28 2
    32   27   31 2
    33   28   29 1
    34   29   30 2
    35   30   31 1
    36   32   33 1
    37   32   34 1
    38    2   36 1
    39    4   37 1
    40    6   38 1
    41    8   39 1
    42    8   40 1
    43    8   41 1
    44    9   42 1
    45    9   43 1
    46    9   44 1
    47   16   45 1
    48   17   46 1
    49   18   47 1
    50   19   48 1
    51   19   49 1
    52   20   50 1
    53   20   51 1
    54   21   52 1
    55   22   53 1
    56   22   54 1
    57   23   55 1
    58   23   56 1
    59   24   57 1
    60   25   58 1
    61   25   59 1
    62   27   60 1
    63   28   61 1
    64   29   62 1
    65   30   63 1
    66   31   64 1
    67   32   65 1
    68   33   66 1
    69   33   67 1
    70   33   68 1
    71   34   69 1
    72   34   70 1
    73   34   71 1
@<TRIPOS>PROPERTY_DATA
  Total_Score	| 17.5722
  Crash		| -2.0855
  Polar		| 9.1733
  FragIndex	| 1
  FragRMSD	| 0.582

