@<TRIPOS>MOLECULE
BindingDB_16025
 74 77 0 0 0
SMALL
NO_CHARGES


@<TRIPOS>ATOM
1    C        27.7829   42.9279    0.6649  C     
2    C        28.1688   41.5614    0.6691  C     
3    C        29.4744   41.1282    1.0185  C     
4    C        30.4052   42.1208    1.4032  C     
5    C        30.0754   43.4993    1.4166  C     
6    C        28.7684   43.8789    1.0209  C     
7    N        26.4917   43.3159    0.3222  N     
8    C        25.6948   42.5485   -0.6031  C     
9    C        26.2913   46.2534    0.3536  C     
10   S        25.7636   44.6757    1.0480  S     
11   O        24.1734   44.6361    0.9034  O     
12   O        25.9955   44.6539    2.6203  O     
13   C        31.0067   44.4670    1.7777  C     
14   O        31.1347   45.4644    1.0754  O     
15   C        29.8201   39.6756    0.8969  C     
16   N        31.7405   44.3254    2.8810  N     
17   C        32.8046   45.1931    3.3200  C     
18   C        33.9436   45.3242    2.2548  C     
19   C        34.5246   43.9770    1.7240  C     
20   N        33.7596   43.4472    0.5727  N     
21   C        34.3921   42.3462   -0.1829  C     
22   C        34.9294   42.7802   -1.5634  C     
23   C        35.8970   42.2695   -0.4912  C     
24   O        33.5430   46.1793    1.1745  O     
25   C        33.3623   44.6969    4.6991  C     
26   C        32.6390   45.2352    5.8797  C     
27   C        32.3620   46.6203    5.9591  C     
28   C        32.3232   44.4173    6.9939  C     
29   C        31.7707   44.9800    8.1570  C     
30   C        31.5294   46.3641    8.2308  C     
31   C        31.8107   47.1846    7.1225  C     
32   C        31.2250   39.2750    1.2139  C     
33   C        32.9375   38.5160    2.8103  C     
34   C        31.6046   38.8819    2.5207  C     
35   C        32.2182   39.2730    0.2033  C     
36   C        33.5475   38.9002    0.4863  C     
37   C        33.9015   38.5170    1.7883  C     
38   O        28.9134   38.8677    1.6515  O     
39   H        27.4729   40.8540    0.4243  H     
40   H        31.3604   41.8418    1.6448  H     
41   H        28.5287   44.8829    1.0111  H     
42   H        26.2862   42.2649   -1.4787  H     
43   H        24.8107   43.0844   -0.9657  H     
44   H        25.3483   41.6436   -0.1069  H     
45   H        27.3716   46.3655    0.5008  H     
46   H        25.7588   47.0750    0.8397  H     
47   H        26.0573   46.2584   -0.7137  H     
48   H        29.6221   39.4092   -0.1435  H     
49   H        31.5347   43.5630    3.4551  H     
50   H        32.3941   46.1985    3.4619  H     
51   H        34.7634   45.8700    2.7278  H     
52   H        35.5576   44.1579    1.4061  H     
53   H        34.5438   43.2273    2.5209  H     
54   H        32.8638   43.0891    0.9206  H     
55   H        33.5525   44.2025   -0.0787  H     
56   H        33.8410   41.4076   -0.2419  H     
57   H        34.7919   42.0886   -2.3990  H     
58   H        35.0142   43.8516   -1.7677  H     
59   H        36.5330   43.0295   -0.0283  H     
60   H        36.2865   41.2593   -0.6512  H     
61   H        33.0294   45.6249    0.5513  H     
62   H        33.3734   43.6027    4.7152  H     
63   H        34.4045   45.0077    4.8260  H     
64   H        32.5959   47.2372    5.1758  H     
65   H        32.5253   43.4150    6.9757  H     
66   H        31.5617   44.3843    8.9638  H     
67   H        31.1621   46.7855    9.0866  H     
68   H        31.6412   48.1918    7.1764  H     
69   H        33.1974   38.2316    3.7554  H     
70   H        30.9182   38.8624    3.2765  H     
71   H        31.9887   39.5738   -0.7454  H     
72   H        34.2528   38.9133   -0.2539  H     
73   H        34.8641   38.2403    1.9913  H     
74   H        28.8050   39.3097    2.5189  H     
@<TRIPOS>BOND
     1    1    2 1
     2    1    6 2
     3    1    7 1
     4    2    3 2
     5    3    4 1
     6    3   15 1
     7    4    5 2
     8    5    6 1
     9    5   13 1
    10    7    8 1
    11    7   10 1
    12    9   10 1
    13   10   11 2
    14   10   12 2
    15   13   14 2
    16   13   16 am
    17   15   32 1
    18   15   38 1
    19   16   17 1
    20   17   18 1
    21   17   25 1
    22   18   19 1
    23   18   24 1
    24   19   20 1
    25   20   21 1
    26   21   22 1
    27   21   23 1
    28   22   23 1
    29   25   26 1
    30   26   27 1
    31   26   28 2
    32   27   31 2
    33   28   29 1
    34   29   30 2
    35   30   31 1
    36   32   34 1
    37   32   35 2
    38   33   34 2
    39   33   37 1
    40   35   36 1
    41   36   37 2
    42    2   39 1
    43    4   40 1
    44    6   41 1
    45    8   42 1
    46    8   43 1
    47    8   44 1
    48    9   45 1
    49    9   46 1
    50    9   47 1
    51   15   48 1
    52   16   49 1
    53   17   50 1
    54   18   51 1
    55   19   52 1
    56   19   53 1
    57   20   54 1
    58   20   55 1
    59   21   56 1
    60   22   57 1
    61   22   58 1
    62   23   59 1
    63   23   60 1
    64   24   61 1
    65   25   62 1
    66   25   63 1
    67   27   64 1
    68   28   65 1
    69   29   66 1
    70   30   67 1
    71   31   68 1
    72   33   69 1
    73   34   70 1
    74   35   71 1
    75   36   72 1
    76   37   73 1
    77   38   74 1
@<TRIPOS>PROPERTY_DATA
  Total_Score	| 12.0486
  Crash		| -4.4842
  Polar		| 5.5716
  FragIndex	| 1
  FragRMSD	| 0.553

