@<TRIPOS>MOLECULE
BindingDB_16021
 68 70 0 0 0
SMALL
NO_CHARGES


@<TRIPOS>ATOM
1    C        28.0937   42.9933    0.5427  C     
2    C        29.1027   43.9779    0.5809  C     
3    C        30.4255   43.7156    0.9724  C     
4    C        30.7895   42.3553    1.1697  C     
5    C        29.8692   41.3069    0.9541  C     
6    C        28.5227   41.6387    0.6776  C     
7    N        26.7605   43.3189    0.3381  N     
8    C        25.9185   42.5145   -0.5154  C     
9    C        26.6257   46.2171    0.8705  C     
10   S        25.9808   44.5681    1.1958  S     
11   O        24.4219   44.6937    0.8842  O     
12   O        26.0486   44.3522    2.7689  O     
13   C        30.2966   39.9654    0.9854  C     
14   O        30.1392   39.2916   -0.0289  O     
15   C        31.3485   44.7465    1.1819  C     
16   O        31.2407   45.7656    0.5087  O     
17   N        30.8692   39.4497    2.0731  N     
18   C        31.4874   38.1505    2.2258  C     
19   C        30.5488   37.2035    3.0443  C     
20   C        29.3178   36.7274    2.2225  C     
21   N        28.3902   35.8973    3.0233  N     
22   C        27.2475   35.3576    2.2514  C     
23   C        26.4358   34.2849    2.9904  C     
24   C        27.2892   33.8986    1.7761  C     
25   O        31.2327   36.0286    3.4860  O     
26   C        32.8927   38.3262    2.8833  C     
27   C        33.7265   39.4025    2.2746  C     
28   C        34.0971   40.5489    3.0207  C     
29   C        34.1339   39.3216    0.9210  C     
30   C        34.8767   40.3603    0.3270  C     
31   C        35.2461   41.4856    1.0861  C     
32   C        34.8611   41.5768    2.4350  C     
33   C        32.9889   46.0825    2.6475  C     
34   C        32.3410   44.7192    2.2524  C     
35   H        28.8263   44.9871    0.3655  H     
36   H        31.7546   42.1078    1.3936  H     
37   H        27.8486   40.8779    0.5798  H     
38   H        26.4927   42.1359   -1.3803  H     
39   H        25.0503   43.0713   -0.9210  H     
40   H        25.5192   41.6557    0.0541  H     
41   H        27.6290   46.2560    1.3592  H     
42   H        25.9751   46.9907    1.2863  H     
43   H        26.7380   46.3676   -0.2081  H     
44   H        30.8932   40.0296    2.8486  H     
45   H        31.6567   37.6870    1.2510  H     
46   H        30.1953   37.7295    3.9357  H     
47   H        28.7664   37.5979    1.8614  H     
48   H        29.6672   36.1539    1.3592  H     
49   H        28.9083   35.1174    3.4476  H     
50   H        28.0168   36.4827    3.7739  H     
51   H        26.6251   36.0419    1.6672  H     
52   H        26.8205   33.9763    3.9654  H     
53   H        25.3570   34.3088    2.8272  H     
54   H        26.7341   33.6768    0.8625  H     
55   H        28.2048   33.3454    1.9925  H     
56   H        31.8143   36.3099    4.2239  H     
57   H        32.7583   38.5189    3.9506  H     
58   H        33.4573   37.3932    2.8042  H     
59   H        33.8014   40.6502    3.9960  H     
60   H        33.8793   38.5094    0.3527  H     
61   H        35.1471   40.2970   -0.6585  H     
62   H        35.7901   42.2369    0.6577  H     
63   H        35.1268   42.3964    2.9885  H     
64   H        33.5529   46.4922    1.8086  H     
65   H        33.6738   45.9423    3.4896  H     
66   H        32.2179   46.7933    2.9441  H     
67   H        31.8752   44.3210    3.1571  H     
68   H        33.1529   44.0466    1.9712  H     
@<TRIPOS>BOND
     1    1    2 1
     2    1    6 2
     3    1    7 1
     4    2    3 2
     5    3    4 1
     6    3   15 1
     7    4    5 2
     8    5    6 1
     9    5   13 1
    10    7    8 1
    11    7   10 1
    12    9   10 1
    13   10   11 2
    14   10   12 2
    15   13   14 2
    16   13   17 am
    17   15   16 2
    18   15   34 1
    19   17   18 1
    20   18   19 1
    21   18   26 1
    22   19   20 1
    23   19   25 1
    24   20   21 1
    25   21   22 1
    26   22   23 1
    27   22   24 1
    28   23   24 1
    29   26   27 1
    30   27   28 1
    31   27   29 2
    32   28   32 2
    33   29   30 1
    34   30   31 2
    35   31   32 1
    36   33   34 1
    37    2   35 1
    38    4   36 1
    39    6   37 1
    40    8   38 1
    41    8   39 1
    42    8   40 1
    43    9   41 1
    44    9   42 1
    45    9   43 1
    46   17   44 1
    47   18   45 1
    48   19   46 1
    49   20   47 1
    50   20   48 1
    51   21   49 1
    52   21   50 1
    53   22   51 1
    54   23   52 1
    55   23   53 1
    56   24   54 1
    57   24   55 1
    58   25   56 1
    59   26   57 1
    60   26   58 1
    61   28   59 1
    62   29   60 1
    63   30   61 1
    64   31   62 1
    65   32   63 1
    66   33   64 1
    67   33   65 1
    68   33   66 1
    69   34   67 1
    70   34   68 1
@<TRIPOS>PROPERTY_DATA
  Total_Score	| 17.0113
  Crash		| -1.2270
  Polar		| 9.3947
  FragIndex	| 1
  FragRMSD	| 0.181

