@<TRIPOS>MOLECULE
BindingDB_16028
 78 81 0 0 0
SMALL
NO_CHARGES


@<TRIPOS>ATOM
1    C        28.0610   42.9662    0.4957  C     
2    C        29.0764   43.9469    0.5370  C     
3    C        30.4205   43.6926    0.8911  C     
4    C        30.7639   42.3250    1.0426  C     
5    C        29.8324   41.2800    0.8756  C     
6    C        28.4867   41.6164    0.6150  C     
7    N        26.7177   43.2887    0.3413  N     
8    C        25.8489   42.5079   -0.5022  C     
9    C        26.7523   46.1881    0.8388  C     
10   S        26.0244   44.5830    1.2032  S     
11   O        24.4687   44.7618    0.9225  O     
12   O        26.0910   44.3533    2.7752  O     
13   C        30.2635   39.9519    0.9212  C     
14   O        30.0903   39.2539   -0.0685  O     
15   C        31.3500   44.7376    1.1141  C     
16   N        30.8347   39.4689    2.0210  N     
17   C        31.4687   38.1796    2.1683  C     
18   C        30.5653   37.2151    3.0135  C     
19   C        29.3219   36.7347    2.2112  C     
20   N        28.4120   35.8923    3.0178  N     
21   C        27.2935   35.3146    2.2374  C     
22   C        26.4419   34.3133    3.0317  C     
23   C        25.8473   35.6617    2.6180  C     
24   O        31.2805   36.0435    3.4183  O     
25   C        32.9011   38.3793    2.7582  C     
26   C        33.7574   39.3881    2.0631  C     
27   C        33.9764   39.3156    0.6667  C     
28   C        34.4130   40.4154    2.7879  C     
29   C        35.2592   41.3323    2.1375  C     
30   C        35.4411   41.2588    0.7442  C     
31   C        34.7908   40.2528    0.0084  C     
32   C        32.5647   44.6501    1.9626  C     
33   C        34.2579   45.2007    4.4492  C     
34   C        34.5839   45.8634    3.0911  C     
35   C        33.3135   46.0097    2.2113  C     
36   C        32.2470   44.0194    3.3608  C     
37   C        33.4870   43.8728    4.2810  C     
38   O        31.0988   45.8157    0.5715  O     
39   H        28.7690   44.9586    0.3594  H     
40   H        31.7299   42.0742    1.2313  H     
41   H        27.7930   40.8675    0.5776  H     
42   H        26.3578   42.2766   -1.4441  H     
43   H        24.9230   43.0359   -0.7653  H     
44   H        25.5739   41.5764    0.0057  H     
45   H        27.7924   46.1795    1.2655  H     
46   H        26.1694   46.9855    1.2940  H     
47   H        26.7996   46.3239   -0.2453  H     
48   H        30.8382   40.0516    2.7984  H     
49   H        31.6093   37.7036    1.1944  H     
50   H        30.2312   37.7230    3.9248  H     
51   H        28.7664   37.6053    1.8581  H     
52   H        29.6627   36.1621    1.3424  H     
53   H        28.9441   35.1214    3.4367  H     
54   H        28.0298   36.4741    3.7652  H     
55   H        27.4648   34.9917    1.2047  H     
56   H        26.1025   33.4407    2.4681  H     
57   H        26.7025   34.1974    4.0859  H     
58   H        25.7265   36.4038    3.4103  H     
59   H        25.1206   35.6262    1.8029  H     
60   H        31.8414   36.3102    4.1791  H     
61   H        32.7992   38.6280    3.8182  H     
62   H        33.4366   37.4263    2.7143  H     
63   H        33.5383   38.5833    0.1095  H     
64   H        34.2879   40.4883    3.7983  H     
65   H        35.7489   42.0569    2.6694  H     
66   H        36.0515   41.9292    0.2679  H     
67   H        34.9192   40.1968   -1.0046  H     
68   H        33.2729   44.0036    1.4390  H     
69   H        35.1937   45.0081    4.9784  H     
70   H        33.6627   45.8888    5.0537  H     
71   H        35.0166   46.8501    3.2666  H     
72   H        35.3272   45.2644    2.5602  H     
73   H        33.6028   46.4428    1.2519  H     
74   H        32.6295   46.7141    2.6962  H     
75   H        31.5039   44.6354    3.8748  H     
76   H        31.8189   43.0263    3.2398  H     
77   H        34.1649   43.1199    3.8775  H     
78   H        33.1647   43.5219    5.2629  H     
@<TRIPOS>BOND
     1    1    2 1
     2    1    6 2
     3    1    7 1
     4    2    3 2
     5    3    4 1
     6    3   15 1
     7    4    5 2
     8    5    6 1
     9    5   13 1
    10    7    8 1
    11    7   10 1
    12    9   10 1
    13   10   11 2
    14   10   12 2
    15   13   14 2
    16   13   16 am
    17   15   32 1
    18   15   38 2
    19   16   17 1
    20   17   18 1
    21   17   25 1
    22   18   19 1
    23   18   24 1
    24   19   20 1
    25   20   21 1
    26   21   22 1
    27   21   23 1
    28   22   23 1
    29   25   26 1
    30   26   27 1
    31   26   28 2
    32   27   31 2
    33   28   29 1
    34   29   30 2
    35   30   31 1
    36   32   35 1
    37   32   36 1
    38   33   34 1
    39   33   37 1
    40   34   35 1
    41   36   37 1
    42    2   39 1
    43    4   40 1
    44    6   41 1
    45    8   42 1
    46    8   43 1
    47    8   44 1
    48    9   45 1
    49    9   46 1
    50    9   47 1
    51   16   48 1
    52   17   49 1
    53   18   50 1
    54   19   51 1
    55   19   52 1
    56   20   53 1
    57   20   54 1
    58   21   55 1
    59   22   56 1
    60   22   57 1
    61   23   58 1
    62   23   59 1
    63   24   60 1
    64   25   61 1
    65   25   62 1
    66   27   63 1
    67   28   64 1
    68   29   65 1
    69   30   66 1
    70   31   67 1
    71   32   68 1
    72   33   69 1
    73   33   70 1
    74   34   71 1
    75   34   72 1
    76   35   73 1
    77   35   74 1
    78   36   75 1
    79   36   76 1
    80   37   77 1
    81   37   78 1
@<TRIPOS>PROPERTY_DATA
  Total_Score	| 18.5487
  Crash		| -2.3624
  Polar		| 9.2944
  FragIndex	| 1
  FragRMSD	| 0.212

