@<TRIPOS>MOLECULE
BindingDB_16033
 73 76 0 0 0
SMALL
NO_CHARGES


@<TRIPOS>ATOM
1    C        27.6758   42.9685    0.5918  C     
2    C        27.9505   41.5821    0.6920  C     
3    C        29.2356   41.0975    1.0448  C     
4    C        30.2631   42.0336    1.3016  C     
5    C        30.0161   43.4279    1.2459  C     
6    C        28.7366   43.8679    0.8437  C     
7    N        26.4198   43.4423    0.2532  N     
8    C        25.6260   42.7803   -0.7550  C     
9    C        26.3722   46.3941    0.5708  C     
10   S        25.7440   44.7785    1.0579  S     
11   O        24.1643   44.7969    0.8773  O     
12   O        25.8858   44.5899    2.6293  O     
13   C        31.0008   44.3479    1.5897  C     
14   O        31.1364   45.3650    0.9191  O     
15   N        31.7113   44.1575    2.6994  N     
16   C        32.8722   44.8961    3.1196  C     
17   C        34.0038   44.8759    2.0385  C     
18   C        34.3679   43.4656    1.4533  C     
19   N        34.6127   43.4948   -0.0085  N     
20   C        34.2494   42.2667   -0.7319  C     
21   C        34.9729   42.1571   -2.0820  C     
22   C        35.3032   41.1761   -0.9520  C     
23   O        33.6674   45.8276    1.0214  O     
24   C        33.3636   44.3457    4.4985  C     
25   C        32.6638   44.9638    5.6634  C     
26   C        32.1085   44.1783    6.6941  C     
27   C        32.5961   46.3720    5.7656  C     
28   C        32.0093   46.9847    6.8866  C     
29   C        31.4791   46.1930    7.9173  C     
30   C        31.5268   44.7865    7.8215  C     
31   C        29.5186   39.6304    1.0670  C     
32   C        30.4790   39.1629    2.2034  C     
33   C        30.5239   37.6164    2.2851  C     
34   C        30.4955   36.9636    3.6736  C     
35   C        29.2759   36.8474    2.7465  C     
36   H        27.1985   40.9130    0.5023  H     
37   H        31.2014   41.6918    1.5138  H     
38   H        28.5684   44.8737    0.7460  H     
39   H        26.2365   42.5276   -1.6325  H     
40   H        24.7994   43.3986   -1.1137  H     
41   H        25.1917   41.8584   -0.3499  H     
42   H        27.4270   46.4622    0.8135  H     
43   H        25.8322   47.1696    1.1130  H     
44   H        26.2268   46.5247   -0.5037  H     
45   H        31.4652   43.3893    3.2422  H     
46   H        32.5796   45.9397    3.2589  H     
47   H        34.9088   45.2980    2.4898  H     
48   H        35.2754   43.0981    1.9370  H     
49   H        33.5819   42.7431    1.6874  H     
50   H        34.0584   44.2379   -0.4365  H     
51   H        35.6064   43.6920   -0.1638  H     
52   H        33.1979   41.9647   -0.7921  H     
53   H        34.3926   41.7524   -2.9097  H     
54   H        35.7172   42.9315   -2.2843  H     
55   H        36.2464   41.3335   -0.4245  H     
56   H        34.8906   40.1674   -1.0429  H     
57   H        33.1209   45.3533    0.3595  H     
58   H        33.2518   43.2558    4.5045  H     
59   H        34.4351   44.5475    4.6299  H     
60   H        32.1406   43.1579    6.6495  H     
61   H        32.9971   46.9676    5.0389  H     
62   H        31.9776   48.0027    6.9572  H     
63   H        31.0668   46.6439    8.7305  H     
64   H        31.1400   44.2070    8.5665  H     
65   H        28.5777   39.0658    1.1840  H     
66   H        29.9499   39.3525    0.0917  H     
67   H        31.4895   39.5209    1.9898  H     
68   H        30.1544   39.6040    3.1552  H     
69   H        31.1346   37.0860    1.5490  H     
70   H        31.0999   36.0614    3.7764  H     
71   H        30.3893   37.6376    4.5269  H     
72   H        28.4058   37.4634    2.9856  H     
73   H        29.1268   35.8694    2.2872  H     
@<TRIPOS>BOND
     1    1    2 1
     2    1    6 2
     3    1    7 1
     4    2    3 2
     5    3    4 1
     6    3   31 1
     7    4    5 2
     8    5    6 1
     9    5   13 1
    10    7    8 1
    11    7   10 1
    12    9   10 1
    13   10   11 2
    14   10   12 2
    15   13   14 2
    16   13   15 am
    17   15   16 1
    18   16   17 1
    19   16   24 1
    20   17   18 1
    21   17   23 1
    22   18   19 1
    23   19   20 1
    24   20   21 1
    25   20   22 1
    26   21   22 1
    27   24   25 1
    28   25   26 1
    29   25   27 2
    30   26   30 2
    31   27   28 1
    32   28   29 2
    33   29   30 1
    34   31   32 1
    35   32   33 1
    36   33   34 1
    37   33   35 1
    38   34   35 1
    39    2   36 1
    40    4   37 1
    41    6   38 1
    42    8   39 1
    43    8   40 1
    44    8   41 1
    45    9   42 1
    46    9   43 1
    47    9   44 1
    48   15   45 1
    49   16   46 1
    50   17   47 1
    51   18   48 1
    52   18   49 1
    53   19   50 1
    54   19   51 1
    55   20   52 1
    56   21   53 1
    57   21   54 1
    58   22   55 1
    59   22   56 1
    60   23   57 1
    61   24   58 1
    62   24   59 1
    63   26   60 1
    64   27   61 1
    65   28   62 1
    66   29   63 1
    67   30   64 1
    68   31   65 1
    69   31   66 1
    70   32   67 1
    71   32   68 1
    72   33   69 1
    73   34   70 1
    74   34   71 1
    75   35   72 1
    76   35   73 1
@<TRIPOS>PROPERTY_DATA
  Total_Score	| 12.2774
  Crash		| -4.0638
  Polar		| 5.5507
  FragIndex	| 1
  FragRMSD	| 0.580

