@<TRIPOS>MOLECULE
BindingDB_16030
 75 78 0 0 0
SMALL
NO_CHARGES


@<TRIPOS>ATOM
1    C        28.0776   43.0025    0.6035  C     
2    C        29.0567   43.9926    0.8030  C     
3    C        30.4147   43.7391    1.0208  C     
4    C        30.8379   42.3943    0.9762  C     
5    C        29.9140   41.3411    0.7923  C     
6    C        28.5403   41.6610    0.6053  C     
7    N        26.7295   43.3043    0.4012  N     
8    C        25.8930   42.4608   -0.4286  C     
9    C        26.4867   46.2582    0.6879  C     
10   S        25.9818   44.6022    1.1995  S     
11   O        24.3928   44.6249    0.9842  O     
12   O        26.1290   44.4500    2.7702  O     
13   C        30.3536   40.0190    0.8141  C     
14   O        30.1701   39.3189   -0.1738  O     
15   C        31.3308   44.7750    1.2074  C     
16   N        30.9268   39.5474    1.9194  N     
17   C        31.5241   38.2521    2.1036  C     
18   C        30.6086   37.3602    3.0097  C     
19   C        29.3118   36.9139    2.2745  C     
20   N        28.4828   35.9739    3.0652  N     
21   C        27.3716   35.3653    2.2957  C     
22   C        26.5459   34.3457    3.0919  C     
23   C        25.9185   35.6830    2.6777  C     
24   O        31.2857   36.1724    3.4216  O     
25   C        32.9745   38.4297    2.6537  C     
26   C        33.8880   39.3113    1.8574  C     
27   C        34.8541   40.1309    2.4960  C     
28   C        33.8495   39.3117    0.4455  C     
29   C        34.7101   40.1336   -0.3103  C     
30   C        35.6575   40.9385    0.3393  C     
31   C        35.7336   40.9353    1.7431  C     
32   O        31.2436   45.7294    0.4428  O     
33   C        32.1920   44.9702    2.3769  C     
34   C        32.2858   43.8987    3.4942  C     
35   C        33.5235   44.2931    4.3227  C     
36   C        34.4409   45.0818    3.3649  C     
37   C        33.6830   45.2006    2.0274  C     
38   H        28.7565   45.0095    0.7816  H     
39   H        31.8316   42.1623    1.0266  H     
40   H        27.8835   40.8903    0.4919  H     
41   H        26.4340   42.1347   -1.3300  H     
42   H        24.9665   42.9602   -0.7752  H     
43   H        25.5760   41.5670    0.1330  H     
44   H        27.5264   46.4474    1.0344  H     
45   H        25.8296   47.0086    1.1199  H     
46   H        26.4622   46.3269   -0.4000  H     
47   H        30.9634   40.1573    2.6707  H     
48   H        31.6156   37.7358    1.1464  H     
49   H        30.3366   37.9116    3.9116  H     
50   H        28.7072   37.7957    2.0461  H     
51   H        29.5952   36.4336    1.3333  H     
52   H        29.0776   35.2181    3.4243  H     
53   H        28.0968   36.4895    3.8598  H     
54   H        27.5454   35.0456    1.2652  H     
55   H        26.2104   33.4699    2.5328  H     
56   H        26.7960   34.2388    4.1493  H     
57   H        25.7785   36.4184    3.4726  H     
58   H        25.1902   35.6254    1.8668  H     
59   H        31.8570   36.4238    4.1761  H     
60   H        32.9075   38.7896    3.6839  H     
61   H        33.4515   37.4474    2.6904  H     
62   H        34.9295   40.1385    3.5167  H     
63   H        33.1829   38.7277   -0.0597  H     
64   H        34.6408   40.1347   -1.3287  H     
65   H        36.2903   41.5220   -0.2085  H     
66   H        36.4300   41.5169    2.2147  H     
67   H        31.8315   45.8851    2.8724  H     
68   H        31.3730   43.8693    4.0991  H     
69   H        32.4622   42.9056    3.0738  H     
70   H        33.2211   44.9205    5.1628  H     
71   H        34.0263   43.4063    4.7179  H     
72   H        34.6407   46.0746    3.7707  H     
73   H        35.3931   44.5716    3.2171  H     
74   H        34.0287   44.4337    1.3269  H     
75   H        33.8285   46.1845    1.5727  H     
@<TRIPOS>BOND
     1    1    2 1
     2    1    6 2
     3    1    7 1
     4    2    3 2
     5    3    4 1
     6    3   15 1
     7    4    5 2
     8    5    6 1
     9    5   13 1
    10    7    8 1
    11    7   10 1
    12    9   10 1
    13   10   11 2
    14   10   12 2
    15   13   14 2
    16   13   16 am
    17   15   32 2
    18   15   33 1
    19   16   17 1
    20   17   18 1
    21   17   25 1
    22   18   19 1
    23   18   24 1
    24   19   20 1
    25   20   21 1
    26   21   22 1
    27   21   23 1
    28   22   23 1
    29   25   26 1
    30   26   27 1
    31   26   28 2
    32   27   31 2
    33   28   29 1
    34   29   30 2
    35   30   31 1
    36   33   34 1
    37   33   37 1
    38   34   35 1
    39   35   36 1
    40   36   37 1
    41    2   38 1
    42    4   39 1
    43    6   40 1
    44    8   41 1
    45    8   42 1
    46    8   43 1
    47    9   44 1
    48    9   45 1
    49    9   46 1
    50   16   47 1
    51   17   48 1
    52   18   49 1
    53   19   50 1
    54   19   51 1
    55   20   52 1
    56   20   53 1
    57   21   54 1
    58   22   55 1
    59   22   56 1
    60   23   57 1
    61   23   58 1
    62   24   59 1
    63   25   60 1
    64   25   61 1
    65   27   62 1
    66   28   63 1
    67   29   64 1
    68   30   65 1
    69   31   66 1
    70   33   67 1
    71   34   68 1
    72   34   69 1
    73   35   70 1
    74   35   71 1
    75   36   72 1
    76   36   73 1
    77   37   74 1
    78   37   75 1
@<TRIPOS>PROPERTY_DATA
  Total_Score	| 18.1836
  Crash		| -2.0971
  Polar		| 9.2290
  FragIndex	| 1
  FragRMSD	| 0.226

