@<TRIPOS>MOLECULE
BindingDB_16023
 77 80 0 0 0
SMALL
NO_CHARGES


@<TRIPOS>ATOM
1    C        27.9567   43.0014    0.6066  C     
2    C        28.9094   44.0342    0.8129  C     
3    C        30.2822   43.7781    1.0485  C     
4    C        30.7204   42.4349    1.0127  C     
5    C        29.8030   41.3679    0.8382  C     
6    C        28.4333   41.6634    0.6306  C     
7    N        26.6140   43.2971    0.3738  N     
8    C        25.7861   42.4382   -0.4403  C     
9    C        26.3800   46.2712    0.4887  C     
10   S        25.8785   44.6491    1.0984  S     
11   O        24.2902   44.6123    0.9683  O     
12   O        26.0975   44.5800    2.6708  O     
13   C        30.2546   40.0569    0.8743  C     
14   O        30.1544   39.3693   -0.1362  O     
15   C        31.1857   44.9409    1.3195  C     
16   N        30.7758   39.5745    1.9984  N     
17   C        31.4340   38.3024    2.1793  C     
18   C        30.5360   37.3172    3.0036  C     
19   C        29.2959   36.8388    2.1982  C     
20   N        28.4361   35.9403    2.9989  N     
21   C        27.3226   35.3360    2.2366  C     
22   C        26.4904   34.3244    3.0394  C     
23   C        25.8770   35.6710    2.6348  C     
24   O        31.2648   36.1437    3.3792  O     
25   C        32.8348   38.5402    2.8288  C     
26   C        33.7087   39.5234    2.1238  C     
27   C        33.9761   39.3807    0.7419  C     
28   C        34.3318   40.5855    2.8224  C     
29   C        35.2133   41.4621    2.1605  C     
30   C        35.4607   41.3115    0.7847  C     
31   C        34.8293   40.2778    0.0734  C     
32   C        32.6832   44.6600    1.6579  C     
33   C        33.0745   44.4337    3.0771  C     
34   C        34.4438   44.5494    3.4244  C     
35   C        34.8856   44.2854    4.7319  C     
36   C        33.9630   43.8880    5.7141  C     
37   C        32.6043   43.7511    5.3879  C     
38   C        32.1614   44.0223    4.0785  C     
39   O        31.1038   45.8171    0.1945  O     
40   H        28.6077   45.0169    0.7720  H     
41   H        31.7296   42.2293    1.0802  H     
42   H        27.7703   40.8883    0.5141  H     
43   H        26.3141   42.1501   -1.3524  H     
44   H        24.8485   42.9095   -0.7505  H     
45   H        25.5345   41.5335    0.1166  H     
46   H        27.3879   46.4887    0.8469  H     
47   H        25.6894   47.0400    0.8439  H     
48   H        26.3730   46.2715   -0.6018  H     
49   H        30.7602   45.5031    2.1524  H     
50   H        30.7518   40.1618    2.7724  H     
51   H        31.6188   37.8299    1.2097  H     
52   H        30.1997   37.8077    3.9226  H     
53   H        28.7049   37.7057    1.8938  H     
54   H        29.6380   36.3144    1.3006  H     
55   H        29.0089   35.1842    3.3889  H     
56   H        28.0527   36.4886    3.7704  H     
57   H        27.4850   35.0177    1.2034  H     
58   H        26.1343   33.4553    2.4824  H     
59   H        26.7502   34.2121    4.0935  H     
60   H        25.7596   36.4096    3.4299  H     
61   H        25.1435   35.6314    1.8275  H     
62   H        31.8268   36.3970    4.1412  H     
63   H        32.6900   38.8341    3.8726  H     
64   H        33.3792   37.5926    2.8374  H     
65   H        33.5530   38.6200    0.2062  H     
66   H        34.1596   40.7191    3.8228  H     
67   H        35.6812   42.2074    2.6798  H     
68   H        36.0989   41.9498    0.3033  H     
69   H        34.9971   40.1679   -0.9285  H     
70   H        33.0136   43.7793    1.1095  H     
71   H        33.2622   45.5130    1.2920  H     
72   H        35.1401   44.8149    2.7201  H     
73   H        35.8787   44.3664    4.9584  H     
74   H        34.2782   43.6827    6.6634  H     
75   H        31.9388   43.4407    6.0978  H     
76   H        31.1717   43.8914    3.8620  H     
77   H        31.6487   46.6025    0.4180  H     
@<TRIPOS>BOND
     1    1    2 1
     2    1    6 2
     3    1    7 1
     4    2    3 2
     5    3    4 1
     6    3   15 1
     7    4    5 2
     8    5    6 1
     9    5   13 1
    10    7    8 1
    11    7   10 1
    12    9   10 1
    13   10   11 2
    14   10   12 2
    15   13   14 2
    16   13   16 am
    17   15   32 1
    18   15   39 1
    19   16   17 1
    20   17   18 1
    21   17   25 1
    22   18   19 1
    23   18   24 1
    24   19   20 1
    25   20   21 1
    26   21   22 1
    27   21   23 1
    28   22   23 1
    29   25   26 1
    30   26   27 1
    31   26   28 2
    32   27   31 2
    33   28   29 1
    34   29   30 2
    35   30   31 1
    36   32   33 1
    37   33   34 2
    38   33   38 1
    39   34   35 1
    40   35   36 2
    41   36   37 1
    42   37   38 2
    43    2   40 1
    44    4   41 1
    45    6   42 1
    46    8   43 1
    47    8   44 1
    48    8   45 1
    49    9   46 1
    50    9   47 1
    51    9   48 1
    52   15   49 1
    53   16   50 1
    54   17   51 1
    55   18   52 1
    56   19   53 1
    57   19   54 1
    58   20   55 1
    59   20   56 1
    60   21   57 1
    61   22   58 1
    62   22   59 1
    63   23   60 1
    64   23   61 1
    65   24   62 1
    66   25   63 1
    67   25   64 1
    68   27   65 1
    69   28   66 1
    70   29   67 1
    71   30   68 1
    72   31   69 1
    73   32   70 1
    74   32   71 1
    75   34   72 1
    76   35   73 1
    77   36   74 1
    78   37   75 1
    79   38   76 1
    80   39   77 1
@<TRIPOS>PROPERTY_DATA
  Total_Score	| 16.8105
  Crash		| -3.0722
  Polar		| 9.0502
  FragIndex	| 1
  FragRMSD	| 0.701

