@<TRIPOS>MOLECULE
BindingDB_16409
 80 83 0 0 0
SMALL
NO_CHARGES


@<TRIPOS>ATOM
1    C        28.0179   42.9533    0.4864  C     
2    C        29.0094   43.9588    0.5112  C     
3    C        30.3622   43.6917    0.8384  C     
4    C        30.7465   42.3253    1.0047  C     
5    C        29.8124   41.2735    0.8570  C     
6    C        28.4526   41.6027    0.6343  C     
7    C        31.2967   44.7239    0.9971  C     
8    O        32.4961   44.4803    1.0809  O     
9    N        30.8904   45.9848    1.0759  N     
10   C        31.5976   47.2038    1.3554  C     
11   C        30.2490   39.9483    0.9031  C     
12   O        30.0997   39.2456   -0.0928  O     
13   N        30.8458   39.4853    1.9953  N     
14   C        31.5298   38.2272    2.1687  C     
15   C        29.3693   36.7922    2.1659  C     
16   C        32.9067   38.4850    2.8661  C     
17   C        30.6331   37.2214    2.9640  C     
18   O        31.3364   36.0129    3.2951  O     
19   N        26.6846   43.2542    0.2903  N     
20   C        26.5681   46.1395    0.8840  C     
21   S        25.9121   44.4895    1.1684  S     
22   O        24.3698   44.6336    0.7959  O     
23   O        25.9358   44.2888    2.7513  O     
24   C        32.8586   47.4606    0.4910  C     
25   C        33.7390   39.5505    2.2321  C     
26   C        34.1537   39.4319    0.8834  C     
27   C        34.9029   40.4510    0.2672  C     
28   C        35.2709   41.5963    0.9969  C     
29   C        34.8881   41.7206    2.3457  C     
30   C        34.1177   40.7122    2.9521  C     
31   N        28.4852   35.9318    2.9796  N     
32   C        27.3566   35.3311    2.2359  C     
33   C        26.5365   34.3683    3.1126  C     
34   C        25.9074   35.6776    2.6245  C     
35   C        31.8443   47.3739    2.8203  C     
36   C        31.1891   48.4179    3.5132  C     
37   C        32.6474   46.4726    3.5647  C     
38   C        32.7104   46.5585    4.9663  C     
39   C        32.0105   47.5726    5.6424  C     
40   C        31.2684   48.5124    4.9088  C     
41   F        32.0337   47.6379    6.9461  F     
42   C        25.8355   42.4149   -0.5152  C     
43   H        28.7147   44.9085    0.2472  H     
44   H        31.7260   42.0702    1.1997  H     
45   H        27.7718   40.8434    0.5971  H     
46   H        29.9367   46.1184    1.0059  H     
47   H        30.8865   47.9663    1.0181  H     
48   H        30.8572   40.0736    2.7600  H     
49   H        31.7548   37.7638    1.2095  H     
50   H        28.8017   37.6772    1.8616  H     
51   H        29.6826   36.2503    1.2689  H     
52   H        32.7276   38.7280    3.9208  H     
53   H        33.5093   37.5661    2.8574  H     
54   H        30.3102   37.6840    3.9081  H     
55   H        31.8568   36.2190    4.0992  H     
56   H        27.5798   46.1886    1.3126  H     
57   H        25.9382   46.9010    1.3579  H     
58   H        26.6081   46.3313   -0.1955  H     
59   H        33.6060   46.7089    0.7044  H     
60   H        33.2546   48.4571    0.7013  H     
61   H        32.6046   47.4209   -0.5694  H     
62   H        33.9067   38.6036    0.3399  H     
63   H        35.1807   40.3638   -0.7143  H     
64   H        35.8265   42.3347    0.5503  H     
65   H        35.1668   42.5484    2.8780  H     
66   H        33.8313   40.8316    3.9254  H     
67   H        29.0382   35.1688    3.3874  H     
68   H        28.1091   36.5021    3.7387  H     
69   H        27.5226   34.9299    1.2307  H     
70   H        26.1938   33.4572    2.6185  H     
71   H        26.8089   34.3309    4.1679  H     
72   H        25.7830   36.4592    3.3756  H     
73   H        25.1607   35.5682    1.8360  H     
74   H        30.6174   49.1012    3.0080  H     
75   H        33.1690   45.7273    3.1057  H     
76   H        33.2553   45.8727    5.4966  H     
77   H        30.7522   49.2484    5.3841  H     
78   H        26.3912   41.9743   -1.3465  H     
79   H        24.9820   42.9531   -0.9599  H     
80   H        25.4509   41.6043    0.1126  H     
@<TRIPOS>BOND
     1    1    2 1
     2    1    6 2
     3    1   19 1
     4    2    3 2
     5    3    4 1
     6    3    7 1
     7    4    5 2
     8    5    6 1
     9    5   11 1
    10    7    8 2
    11    7    9 am
    12    9   10 1
    13   10   24 1
    14   10   35 1
    15   11   12 2
    16   11   13 am
    17   13   14 1
    18   14   16 1
    19   14   17 1
    20   15   17 1
    21   15   31 1
    22   16   25 1
    23   17   18 1
    24   19   21 1
    25   19   42 1
    26   20   21 1
    27   21   22 2
    28   21   23 2
    29   25   26 2
    30   25   30 1
    31   26   27 1
    32   27   28 2
    33   28   29 1
    34   29   30 2
    35   31   32 1
    36   32   33 1
    37   32   34 1
    38   33   34 1
    39   35   36 1
    40   35   37 2
    41   36   40 2
    42   37   38 1
    43   38   39 2
    44   39   40 1
    45   39   41 1
    46    2   43 1
    47    4   44 1
    48    6   45 1
    49    9   46 1
    50   10   47 1
    51   13   48 1
    52   14   49 1
    53   15   50 1
    54   15   51 1
    55   16   52 1
    56   16   53 1
    57   17   54 1
    58   18   55 1
    59   20   56 1
    60   20   57 1
    61   20   58 1
    62   24   59 1
    63   24   60 1
    64   24   61 1
    65   26   62 1
    66   27   63 1
    67   28   64 1
    68   29   65 1
    69   30   66 1
    70   31   67 1
    71   31   68 1
    72   32   69 1
    73   33   70 1
    74   33   71 1
    75   34   72 1
    76   34   73 1
    77   36   74 1
    78   37   75 1
    79   38   76 1
    80   40   77 1
    81   42   78 1
    82   42   79 1
    83   42   80 1
@<TRIPOS>PROPERTY_DATA
  Total_Score	| 16.4758
  Crash		| -3.4053
  Polar		| 8.4647
  FragIndex	| 1
  FragRMSD	| 0.428

