@<TRIPOS>MOLECULE
BindingDB_16020
 67 69 0 0 0
SMALL
NO_CHARGES


@<TRIPOS>ATOM
1    C        28.0630   42.9513    0.6756  C     
2    C        29.0338   43.9582    0.9286  C     
3    C        30.3903   43.6788    1.2465  C     
4    C        30.7617   42.3130    1.3071  C     
5    C        29.8527   41.2726    1.0112  C     
6    C        28.5164   41.6082    0.7040  C     
7    N        26.7289   43.2606    0.3912  N     
8    C        25.9302   42.4349   -0.4869  C     
9    C        26.5030   46.2155    0.5462  C     
10   S        25.9498   44.5920    1.1127  S     
11   O        24.3738   44.5633    0.8664  O     
12   O        26.0366   44.4912    2.6987  O     
13   C        30.2812   39.9508    0.9973  C     
14   O        30.1181   39.2869   -0.0176  O     
15   C        31.3141   44.7059    1.4921  C     
16   O        30.9312   45.8714    1.5378  O     
17   N        30.8551   39.4409    2.0792  N     
18   C        31.4564   38.1362    2.2091  C     
19   C        30.5016   37.2073    3.0282  C     
20   C        29.2686   36.7387    2.2075  C     
21   N        28.3693   35.9084    3.0361  N     
22   C        27.2052   35.3720    2.3051  C     
23   C        27.2712   33.9127    1.8216  C     
24   C        26.4188   34.2778    3.0465  C     
25   O        31.1853   36.0368    3.4830  O     
26   C        32.8730   38.2944    2.8460  C     
27   C        33.7034   39.3909    2.2627  C     
28   C        34.1337   39.3288    0.9152  C     
29   C        34.0638   40.5179    3.0337  C     
30   C        34.8511   41.5517    2.4795  C     
31   C        35.2680   41.4737    1.1407  C     
32   C        34.8969   40.3666    0.3533  C     
33   N        32.6127   44.4750    1.6706  N     
34   C        33.6083   45.4542    1.9549  C     
35   H        28.7447   44.9324    0.8601  H     
36   H        31.7224   42.0609    1.5392  H     
37   H        27.8518   40.8496    0.5331  H     
38   H        26.4988   42.1715   -1.3842  H     
39   H        25.0135   42.9291   -0.8297  H     
40   H        25.6318   41.5221    0.0387  H     
41   H        27.5576   46.3465    0.7894  H     
42   H        25.9185   46.9972    1.0412  H     
43   H        26.3623   46.2790   -0.5369  H     
44   H        30.8924   40.0120    2.8667  H     
45   H        31.6014   37.6808    1.2244  H     
46   H        30.1473   37.7448    3.9116  H     
47   H        28.7109   37.6080    1.8582  H     
48   H        29.6062   36.1662    1.3378  H     
49   H        28.9020   35.1265    3.4344  H     
50   H        28.0216   36.4879    3.7995  H     
51   H        26.5696   36.0468    1.7260  H     
52   H        26.7228   33.7015    0.9030  H     
53   H        28.2050   33.3897    2.0266  H     
54   H        26.8185   33.9703    4.0143  H     
55   H        25.3387   34.2718    2.8851  H     
56   H        31.7615   36.3304    4.2191  H     
57   H        32.7459   38.4451    3.9208  H     
58   H        33.4249   37.3597    2.7193  H     
59   H        33.8815   38.5337    0.3275  H     
60   H        33.7564   40.6049    4.0047  H     
61   H        35.1142   42.3583    3.0509  H     
62   H        35.8358   42.2223    0.7342  H     
63   H        35.1826   40.3188   -0.6263  H     
64   H        32.9202   43.5574    1.6014  H     
65   H        33.6356   46.2073    1.1659  H     
66   H        34.5846   44.9690    2.0131  H     
67   H        33.3988   45.9410    2.9090  H     
@<TRIPOS>BOND
     1    1    2 1
     2    1    6 2
     3    1    7 1
     4    2    3 2
     5    3    4 1
     6    3   15 1
     7    4    5 2
     8    5    6 1
     9    5   13 1
    10    7    8 1
    11    7   10 1
    12    9   10 1
    13   10   11 2
    14   10   12 2
    15   13   14 2
    16   13   17 am
    17   15   16 2
    18   15   33 am
    19   17   18 1
    20   18   19 1
    21   18   26 1
    22   19   20 1
    23   19   25 1
    24   20   21 1
    25   21   22 1
    26   22   23 1
    27   22   24 1
    28   23   24 1
    29   26   27 1
    30   27   28 1
    31   27   29 2
    32   28   32 2
    33   29   30 1
    34   30   31 2
    35   31   32 1
    36   33   34 1
    37    2   35 1
    38    4   36 1
    39    6   37 1
    40    8   38 1
    41    8   39 1
    42    8   40 1
    43    9   41 1
    44    9   42 1
    45    9   43 1
    46   17   44 1
    47   18   45 1
    48   19   46 1
    49   20   47 1
    50   20   48 1
    51   21   49 1
    52   21   50 1
    53   22   51 1
    54   23   52 1
    55   23   53 1
    56   24   54 1
    57   24   55 1
    58   25   56 1
    59   26   57 1
    60   26   58 1
    61   28   59 1
    62   29   60 1
    63   30   61 1
    64   31   62 1
    65   32   63 1
    66   33   64 1
    67   34   65 1
    68   34   66 1
    69   34   67 1
@<TRIPOS>PROPERTY_DATA
  Total_Score	| 15.6572
  Crash		| -1.5333
  Polar		| 8.3024
  FragIndex	| 1
  FragRMSD	| 0.391

