@<TRIPOS>MOLECULE
BindingDB_16024
 72 75 0 0 0
SMALL
NO_CHARGES


@<TRIPOS>ATOM
1    C        27.9831   42.9605    0.5458  C     
2    C        28.9637   43.9568    0.6848  C     
3    C        30.2960   43.6615    1.0338  C     
4    C        30.6644   42.2962    1.1258  C     
5    C        29.7425   41.2504    0.8788  C     
6    C        28.3917   41.6021    0.6066  C     
7    N        26.6719   43.3174    0.3185  N     
8    C        25.8227   42.5019   -0.5091  C     
9    C        26.6149   46.2538    0.8773  C     
10   S        25.9554   44.6001    1.1790  S     
11   O        24.3875   44.7277    0.9162  O     
12   O        26.0555   44.3965    2.7586  O     
13   C        30.1633   39.9179    0.9090  C     
14   O        30.0832   39.2410   -0.1167  O     
15   C        31.2349   44.6749    1.2585  C     
16   N        30.6848   39.3924    2.0198  N     
17   C        31.2896   38.0999    2.1652  C     
18   C        30.3910   37.1858    3.0688  C     
19   C        29.1048   36.6881    2.3201  C     
20   N        28.2481   35.8369    3.1745  N     
21   C        27.0055   35.3026    2.5664  C     
22   C        26.7513   35.0778    1.0598  C     
23   C        27.2541   33.9264    1.9214  C     
24   O        31.1082   36.0366    3.5441  O     
25   C        32.7540   38.2862    2.6841  C     
26   C        33.6782   39.1852    1.9178  C     
27   C        34.8361   39.6834    2.5684  C     
28   C        33.5216   39.4927    0.5394  C     
29   C        34.4564   40.3008   -0.1397  C     
30   C        35.5794   40.8039    0.5409  C     
31   C        35.7739   40.4872    1.8935  C     
32   O        31.1649   45.6655    0.5431  O     
33   C        32.1865   44.7080    2.2950  C     
34   C        34.3223   45.5591    3.2168  C     
35   C        33.3780   45.4817    2.1735  C     
36   C        31.9788   44.0465    3.5355  C     
37   C        32.9283   44.1091    4.5734  C     
38   C        34.1066   44.8579    4.4131  C     
39   H        28.7004   44.9313    0.5215  H     
40   H        31.6405   42.0489    1.3153  H     
41   H        27.6999   40.8597    0.4800  H     
42   H        26.3592   42.1537   -1.4015  H     
43   H        24.9337   43.0463   -0.8666  H     
44   H        25.4805   41.6299    0.0623  H     
45   H        27.6447   46.2822    1.2580  H     
46   H        26.0279   46.9960    1.4203  H     
47   H        26.5958   46.4841   -0.1944  H     
48   H        30.6909   39.9673    2.8000  H     
49   H        31.3819   37.5876    1.2043  H     
50   H        30.0807   37.7480    3.9546  H     
51   H        28.5087   37.5465    1.9967  H     
52   H        29.3965   36.1224    1.4289  H     
53   H        28.8026   35.0519    3.5229  H     
54   H        27.9642   36.4096    3.9702  H     
55   H        26.1165   35.2978    3.1982  H     
56   H        25.7166   34.9555    0.7385  H     
57   H        27.4782   35.4978    0.3670  H     
58   H        28.2792   33.6332    1.6823  H     
59   H        26.5174   33.1543    2.1519  H     
60   H        31.7260   36.3542    4.2469  H     
61   H        32.6922   38.6410    3.7212  H     
62   H        33.2415   37.3085    2.7150  H     
63   H        35.0131   39.4513    3.5439  H     
64   H        32.7290   39.1231    0.0140  H     
65   H        34.3318   40.5112   -1.1336  H     
66   H        36.2673   41.3808    0.0446  H     
67   H        36.6077   40.8296    2.3752  H     
68   H        35.1635   46.1326    3.1060  H     
69   H        33.5672   46.0099    1.3127  H     
70   H        31.1106   43.5383    3.7111  H     
71   H        32.7578   43.6167    5.4596  H     
72   H        34.7978   44.9019    5.1597  H     
@<TRIPOS>BOND
     1    1    2 1
     2    1    6 2
     3    1    7 1
     4    2    3 2
     5    3    4 1
     6    3   15 1
     7    4    5 2
     8    5    6 1
     9    5   13 1
    10    7    8 1
    11    7   10 1
    12    9   10 1
    13   10   11 2
    14   10   12 2
    15   13   14 2
    16   13   16 am
    17   15   32 2
    18   15   33 1
    19   16   17 1
    20   17   18 1
    21   17   25 1
    22   18   19 1
    23   18   24 1
    24   19   20 1
    25   20   21 1
    26   21   22 1
    27   21   23 1
    28   22   23 1
    29   25   26 1
    30   26   27 1
    31   26   28 2
    32   27   31 2
    33   28   29 1
    34   29   30 2
    35   30   31 1
    36   33   35 1
    37   33   36 2
    38   34   35 2
    39   34   38 1
    40   36   37 1
    41   37   38 2
    42    2   39 1
    43    4   40 1
    44    6   41 1
    45    8   42 1
    46    8   43 1
    47    8   44 1
    48    9   45 1
    49    9   46 1
    50    9   47 1
    51   16   48 1
    52   17   49 1
    53   18   50 1
    54   19   51 1
    55   19   52 1
    56   20   53 1
    57   20   54 1
    58   21   55 1
    59   22   56 1
    60   22   57 1
    61   23   58 1
    62   23   59 1
    63   24   60 1
    64   25   61 1
    65   25   62 1
    66   27   63 1
    67   28   64 1
    68   29   65 1
    69   30   66 1
    70   31   67 1
    71   34   68 1
    72   35   69 1
    73   36   70 1
    74   37   71 1
    75   38   72 1
@<TRIPOS>PROPERTY_DATA
  Total_Score	| 17.7421
  Crash		| -2.0254
  Polar		| 9.3183
  FragIndex	| 1
  FragRMSD	| 0.227

