@<TRIPOS>MOLECULE
BindingDB_16022
 75 78 0 0 0
SMALL
NO_CHARGES


@<TRIPOS>ATOM
1    C        28.0042   42.9114    0.5369  C     
2    C        29.0016   43.9100    0.6142  C     
3    C        30.3667   43.6230    0.8780  C     
4    C        30.7129   42.2548    1.0558  C     
5    C        29.7652   41.2092    0.9068  C     
6    C        28.4155   41.5591    0.6480  C     
7    N        26.6751   43.2567    0.3223  N     
8    C        25.8111   42.4614   -0.5202  C     
9    C        26.6349   46.2553    0.7214  C     
10   S        26.0057   44.6088    1.1230  S     
11   O        24.4433   44.7049    0.8351  O     
12   O        26.0215   44.4028    2.6985  O     
13   C        30.1599   39.8818    1.0168  C     
14   O        29.6524   39.0139    0.3000  O     
15   C        31.3145   44.6714    0.9604  C     
16   O        30.9511   45.8236    0.7645  O     
17   N        31.0153   39.5223    1.9736  N     
18   C        31.5709   38.2146    2.1973  C     
19   C        30.6129   37.3159    3.0583  C     
20   C        29.3389   36.8981    2.2739  C     
21   N        28.4917   35.9627    3.0471  N     
22   C        27.4161   35.3402    2.2506  C     
23   C        26.5581   34.3217    3.0132  C     
24   C        25.9633   35.6795    2.6085  C     
25   O        31.2693   36.1141    3.4825  O     
26   C        32.9950   38.3633    2.8227  C     
27   C        33.8546   39.4049    2.1895  C     
28   C        34.3275   40.5086    2.9414  C     
29   C        34.2091   39.3279    0.8224  C     
30   C        34.9681   40.3414    0.2088  C     
31   C        35.4256   41.4336    0.9708  C     
32   C        35.1161   41.5055    2.3388  C     
33   C        32.7310   44.5429    1.3283  C     
34   C        33.0467   44.3699    2.7797  C     
35   C        32.0917   44.0218    3.7694  C     
36   C        32.4668   43.8587    5.1173  C     
37   C        33.8029   44.0519    5.5054  C     
38   C        34.7694   44.4037    4.5458  C     
39   C        34.3911   44.5590    3.1962  C     
40   H        28.7104   44.8783    0.4641  H     
41   H        31.6871   41.9954    1.2499  H     
42   H        27.7095   40.8174    0.5818  H     
43   H        26.3539   42.0986   -1.3970  H     
44   H        24.9502   43.0266   -0.8864  H     
45   H        25.4337   41.6033    0.0431  H     
46   H        27.6344   46.3852    1.1291  H     
47   H        25.9734   47.0070    1.1536  H     
48   H        26.6557   46.3783   -0.3620  H     
49   H        31.3308   40.2309    2.5560  H     
50   H        31.7256   37.7228    1.2327  H     
51   H        30.3143   37.8671    3.9539  H     
52   H        28.7540   37.7979    2.0212  H     
53   H        29.6457   36.4099    1.3421  H     
54   H        29.0739   35.2176    3.4456  H     
55   H        28.0766   36.4910    3.8164  H     
56   H        27.6198   35.0263    1.2210  H     
57   H        26.2187   33.4632    2.4277  H     
58   H        26.8045   34.1877    4.0705  H     
59   H        25.8404   36.4212    3.4012  H     
60   H        25.2745   35.6750    1.7651  H     
61   H        31.8239   36.3680    4.2519  H     
62   H        32.8830   38.5703    3.8919  H     
63   H        33.5252   37.4116    2.7374  H     
64   H        34.0969   40.5954    3.9352  H     
65   H        33.8958   38.5384    0.2516  H     
66   H        35.1909   40.2800   -0.7872  H     
67   H        35.9802   42.1690    0.5267  H     
68   H        35.4704   42.2853    2.8963  H     
69   H        33.1888   43.7279    0.7652  H     
70   H        33.2506   45.4515    0.9985  H     
71   H        31.1140   43.8672    3.5279  H     
72   H        31.7597   43.5947    5.8133  H     
73   H        34.0662   43.9224    6.4860  H     
74   H        35.7428   44.5416    4.8275  H     
75   H        35.1183   44.8121    2.5161  H     
@<TRIPOS>BOND
     1    1    2 1
     2    1    6 2
     3    1    7 1
     4    2    3 2
     5    3    4 1
     6    3   15 1
     7    4    5 2
     8    5    6 1
     9    5   13 1
    10    7    8 1
    11    7   10 1
    12    9   10 1
    13   10   11 2
    14   10   12 2
    15   13   14 2
    16   13   17 am
    17   15   16 2
    18   15   33 1
    19   17   18 1
    20   18   19 1
    21   18   26 1
    22   19   20 1
    23   19   25 1
    24   20   21 1
    25   21   22 1
    26   22   23 1
    27   22   24 1
    28   23   24 1
    29   26   27 1
    30   27   28 1
    31   27   29 2
    32   28   32 2
    33   29   30 1
    34   30   31 2
    35   31   32 1
    36   33   34 1
    37   34   35 2
    38   34   39 1
    39   35   36 1
    40   36   37 2
    41   37   38 1
    42   38   39 2
    43    2   40 1
    44    4   41 1
    45    6   42 1
    46    8   43 1
    47    8   44 1
    48    8   45 1
    49    9   46 1
    50    9   47 1
    51    9   48 1
    52   17   49 1
    53   18   50 1
    54   19   51 1
    55   20   52 1
    56   20   53 1
    57   21   54 1
    58   21   55 1
    59   22   56 1
    60   23   57 1
    61   23   58 1
    62   24   59 1
    63   24   60 1
    64   25   61 1
    65   26   62 1
    66   26   63 1
    67   28   64 1
    68   29   65 1
    69   30   66 1
    70   31   67 1
    71   32   68 1
    72   33   69 1
    73   33   70 1
    74   35   71 1
    75   36   72 1
    76   37   73 1
    77   38   74 1
    78   39   75 1
@<TRIPOS>PROPERTY_DATA
  Total_Score	| 17.4716
  Crash		| -2.0929
  Polar		| 7.8144
  FragIndex	| 1
  FragRMSD	| 0.666

