@<TRIPOS>MOLECULE
BindingDB_16026
 74 77 0 0 0
SMALL
NO_CHARGES


@<TRIPOS>ATOM
1    C        28.0229   43.0035    0.7851  C     
2    C        28.9429   44.0165    1.1740  C     
3    C        30.3171   43.7664    1.4795  C     
4    C        30.7595   42.4216    1.4101  C     
5    C        29.9041   41.3729    1.0126  C     
6    C        28.5567   41.6885    0.6993  C     
7    N        26.6834   43.2710    0.4806  N     
8    C        25.9049   42.3897   -0.3424  C     
9    C        26.3679   46.1527    0.2010  C     
10   S        25.8782   44.6442    1.0492  S     
11   O        24.2964   44.5506    0.9207  O     
12   O        26.0801   44.7990    2.6161  O     
13   C        30.3700   40.0673    0.9464  C     
14   O        30.1977   39.4179   -0.0772  O     
15   C        31.2329   44.8098    1.7912  C     
16   N        30.9115   39.5228    2.0267  N     
17   C        31.4978   38.2126    2.1532  C     
18   C        30.5608   37.2815    2.9928  C     
19   C        29.3104   36.8314    2.1927  C     
20   N        28.4420   35.9643    3.0218  N     
21   C        27.3243   35.3623    2.2756  C     
22   C        26.5239   34.3520    3.1018  C     
23   C        25.8876   35.6925    2.6923  C     
24   O        31.2409   36.0930    3.4266  O     
25   C        32.9230   38.3273    2.7804  C     
26   C        33.7841   39.3916    2.1835  C     
27   C        34.2402   40.4770    2.9700  C     
28   C        34.1565   39.3453    0.8178  C     
29   C        34.9411   40.3669    0.2512  C     
30   C        35.3759   41.4434    1.0452  C     
31   C        35.0379   41.4899    2.4084  C     
32   C        32.3162   44.6050    2.6660  C     
33   C        33.1759   43.9936    4.8907  C     
34   C        32.1087   44.1152    3.9785  C     
35   C        33.6463   44.9306    2.2931  C     
36   C        34.7142   44.8211    3.2046  C     
37   C        34.4779   44.3576    4.5060  C     
38   C        31.0890   46.0299    1.2319  C     
39   H        28.6035   44.9798    1.2290  H     
40   H        31.7381   42.2149    1.6076  H     
41   H        27.9347   40.9214    0.4369  H     
42   H        26.4808   42.0875   -1.2276  H     
43   H        24.9810   42.8275   -0.7298  H     
44   H        25.6354   41.4897    0.2281  H     
45   H        27.4437   46.3173    0.3435  H     
46   H        25.8085   47.0025    0.6079  H     
47   H        26.1545   46.0605   -0.8705  H     
48   H        30.9215   40.0809    2.8288  H     
49   H        31.6241   37.7566    1.1796  H     
50   H        30.2203   37.8064    3.8944  H     
51   H        28.7415   37.7101    1.8791  H     
52   H        29.6261   36.2769    1.3006  H     
53   H        29.0136   35.2098    3.4215  H     
54   H        28.0695   36.5298    3.7846  H     
55   H        27.4806   35.0447    1.2403  H     
56   H        26.1877   33.4721    2.5546  H     
57   H        26.8009   34.2588    4.1529  H     
58   H        25.7784   36.4344    3.4851  H     
59   H        25.1401   35.6332    1.9022  H     
60   H        31.8036   36.3676    4.1988  H     
61   H        32.8191   38.4909    3.8609  H     
62   H        33.4512   37.3730    2.6581  H     
63   H        33.9934   40.5322    3.9617  H     
64   H        33.8512   38.5680    0.2244  H     
65   H        35.2006   40.3245   -0.7361  H     
66   H        35.9441   42.1863    0.6360  H     
67   H        35.3787   42.2546    2.9923  H     
68   H        32.9997   43.6513    5.8385  H     
69   H        31.1640   43.8646    4.2992  H     
70   H        33.8541   45.2624    1.3446  H     
71   H        35.6619   45.0760    2.9125  H     
72   H        35.2484   44.2743    5.1635  H     
73   H        31.7069   46.7769    1.4512  H     
74   H        30.3723   46.2243    0.5776  H     
@<TRIPOS>BOND
     1    1    2 1
     2    1    6 2
     3    1    7 1
     4    2    3 2
     5    3    4 1
     6    3   15 1
     7    4    5 2
     8    5    6 1
     9    5   13 1
    10    7    8 1
    11    7   10 1
    12    9   10 1
    13   10   11 2
    14   10   12 2
    15   13   14 2
    16   13   16 am
    17   15   32 1
    18   15   38 2
    19   16   17 1
    20   17   18 1
    21   17   25 1
    22   18   19 1
    23   18   24 1
    24   19   20 1
    25   20   21 1
    26   21   22 1
    27   21   23 1
    28   22   23 1
    29   25   26 1
    30   26   27 1
    31   26   28 2
    32   27   31 2
    33   28   29 1
    34   29   30 2
    35   30   31 1
    36   32   34 1
    37   32   35 2
    38   33   34 2
    39   33   37 1
    40   35   36 1
    41   36   37 2
    42    2   39 1
    43    4   40 1
    44    6   41 1
    45    8   42 1
    46    8   43 1
    47    8   44 1
    48    9   45 1
    49    9   46 1
    50    9   47 1
    51   16   48 1
    52   17   49 1
    53   18   50 1
    54   19   51 1
    55   19   52 1
    56   20   53 1
    57   20   54 1
    58   21   55 1
    59   22   56 1
    60   22   57 1
    61   23   58 1
    62   23   59 1
    63   24   60 1
    64   25   61 1
    65   25   62 1
    66   27   63 1
    67   28   64 1
    68   29   65 1
    69   30   66 1
    70   31   67 1
    71   33   68 1
    72   34   69 1
    73   35   70 1
    74   36   71 1
    75   37   72 1
    76   38   73 1
    77   38   74 1
@<TRIPOS>PROPERTY_DATA
  Total_Score	| 16.6873
  Crash		| -2.1097
  Polar		| 8.1288
  FragIndex	| 1
  FragRMSD	| 0.408

