@<TRIPOS>MOLECULE
BindingDB_14754
 46 48 0 0 0
SMALL
NO_CHARGES


@<TRIPOS>ATOM
1    C        -2.8453  -26.2198   32.5096  C     
2    C        -4.5019  -28.4655   32.2069  C     
3    C        -3.4741  -26.5102   31.2857  C     
4    C        -3.8706  -28.2331   33.4657  C     
5    C        -3.0574  -27.0724   33.6116  C     
6    C        -2.4762  -26.7773   34.8596  C     
7    C        -2.7078  -27.5921   35.9817  C     
8    C        -4.0292  -29.0940   34.5803  C     
9    C        -3.4733  -28.7690   35.8388  C     
10   O        -2.1518  -27.2933   37.2018  O     
11   C        -2.8733  -26.3020   37.9552  C     
12   O        -3.6405  -29.6121   36.9095  O     
13   C        -4.9283  -29.5176   37.5495  C     
14   N        -4.2731  -27.5996   31.1876  N     
15   C        -5.3686  -29.6245   31.8773  C     
16   C        -6.6093  -29.8204   32.6848  C     
17   C        -7.2746  -28.7848   33.3799  C     
18   C        -7.1141  -31.1356   32.8380  C     
19   C        -8.1599  -31.4213   33.7421  C     
20   C        -8.7328  -30.3967   34.5309  C     
21   C        -8.3098  -29.0628   34.3103  C     
22   O        -8.8243  -28.0489   35.0795  O     
23   C       -10.0704  -27.5270   34.5874  C     
24   C        -9.3546  -31.2440   36.7279  C     
25   O        -9.7040  -30.5837   35.4889  O     
26   H        -2.2359  -25.4019   32.5841  H     
27   H        -3.3280  -25.9024   30.4817  H     
28   H        -1.8938  -25.9444   34.9710  H     
29   H        -4.5612  -29.9607   34.5016  H     
30   H        -2.8551  -25.3315   37.4545  H     
31   H        -2.3862  -26.1895   38.9231  H     
32   H        -3.9091  -26.6005   38.1284  H     
33   H        -5.1187  -28.5004   37.9012  H     
34   H        -4.9455  -30.1873   38.4107  H     
35   H        -5.7295  -29.8231   36.8719  H     
36   H        -5.6780  -29.6230   30.8282  H     
37   H        -4.7541  -30.5144   32.0159  H     
38   H        -6.9718  -27.8233   33.2642  H     
39   H        -6.6765  -31.9245   32.3371  H     
40   H        -8.4875  -32.3999   33.8458  H     
41   H        -9.9370  -27.0462   33.6120  H     
42   H       -10.4174  -26.7777   35.3002  H     
43   H       -10.8390  -28.3041   34.5085  H     
44   H        -9.1791  -32.3106   36.5462  H     
45   H       -10.1853  -31.1393   37.4217  H     
46   H        -8.4584  -30.7945   37.1826  H     
@<TRIPOS>BOND
     1    1    3 2
     2    1    5 1
     3    2    4 1
     4    2   14 2
     5    2   15 1
     6    3   14 1
     7    4    5 2
     8    4    8 1
     9    5    6 1
    10    6    7 2
    11    7    9 1
    12    7   10 1
    13    8    9 2
    14    9   12 1
    15   10   11 1
    16   12   13 1
    17   15   16 1
    18   16   17 1
    19   16   18 2
    20   17   21 2
    21   18   19 1
    22   19   20 2
    23   20   21 1
    24   20   25 1
    25   21   22 1
    26   22   23 1
    27   24   25 1
    28    1   26 1
    29    3   27 1
    30    6   28 1
    31    8   29 1
    32   11   30 1
    33   11   31 1
    34   11   32 1
    35   13   33 1
    36   13   34 1
    37   13   35 1
    38   15   36 1
    39   15   37 1
    40   17   38 1
    41   18   39 1
    42   19   40 1
    43   23   41 1
    44   23   42 1
    45   23   43 1
    46   24   44 1
    47   24   45 1
    48   24   46 1
@<TRIPOS>PROPERTY_DATA
  Total_Score	| 5.7445
  Crash		| -0.6659
  Polar		| 0.0028
  FragIndex	| 1
  FragRMSD	| 0.444

