@<TRIPOS>MOLECULE
BindingDB_50351903
 49 51 0 0 0
SMALL
NO_CHARGES


@<TRIPOS>ATOM
1    C        -2.9436  -27.6298   36.0567  C     
2    C        -3.7267  -28.7890   35.8972  C     
3    C        -4.2182  -29.1327   34.6213  C     
4    C        -2.5845  -26.8627   34.9288  C     
5    C        -3.1023  -27.1874   33.6543  C     
6    C        -3.9582  -28.3198   33.4919  C     
7    C        -4.5101  -28.5340   32.2023  C     
8    N        -4.1868  -27.7144   31.2520  N     
9    C        -3.3890  -26.6829   31.3590  C     
10   C        -2.8171  -26.3833   32.5436  C     
11   C        -5.3726  -29.6541   31.8278  C     
12   C        -6.5734  -29.9245   32.6850  C     
13   C        -7.2180  -28.8780   33.3915  C     
14   C        -8.2804  -29.1359   34.2809  C     
15   C        -8.7514  -30.4519   34.4336  C     
16   C        -8.1701  -31.4964   33.7021  C     
17   C        -7.0767  -31.2469   32.8461  C     
18   O        -4.1074  -29.4788   37.0170  O     
19   C        -3.7618  -30.8778   37.0696  C     
20   O        -2.5174  -27.2433   37.3046  O     
21   C        -3.4376  -26.3377   37.9487  C     
22   C        -2.9142  -31.1492   38.3127  C     
23   F        -2.2821  -29.9997   38.7423  F     
24   O        -8.7724  -28.1346   35.0776  O     
25   C       -10.0184  -27.5757   34.6264  C     
26   O        -6.5313  -32.3047   32.1517  O     
27   C        -5.5652  -33.0676   32.8949  C     
28   H        -4.7962  -29.9653   34.5360  H     
29   H        -1.9717  -26.0445   35.0527  H     
30   H        -3.1933  -26.1305   30.5558  H     
31   H        -2.2105  -25.5973   32.6185  H     
32   H        -5.7438  -29.5491   30.8021  H     
33   H        -4.7223  -30.5306   31.8199  H     
34   H        -6.8817  -27.9165   33.2961  H     
35   H        -9.4994  -30.6547   35.0992  H     
36   H        -8.5351  -32.4468   33.8015  H     
37   H        -4.6863  -31.4627   37.1346  H     
38   H        -3.2202  -31.2147   36.1785  H     
39   H        -3.5048  -25.3908   37.4053  H     
40   H        -3.0611  -26.1262   38.9515  H     
41   H        -4.4368  -26.7731   38.0468  H     
42   H        -3.5392  -31.5196   39.1333  H     
43   H        -2.1409  -31.8921   38.0926  H     
44   H        -9.9019  -27.1047   33.6479  H     
45   H       -10.3290  -26.8076   35.3384  H     
46   H       -10.8071  -28.3313   34.5788  H     
47   H        -4.7405  -32.4349   33.2350  H     
48   H        -5.1564  -33.8329   32.2375  H     
49   H        -6.0317  -33.5593   33.7495  H     
@<TRIPOS>BOND
     1    1    2 2
     2    1    4 1
     3    1   20 1
     4    2    3 1
     5    2   18 1
     6    3    6 2
     7    4    5 2
     8    5    6 1
     9    5   10 1
    10    6    7 1
    11    7    8 2
    12    7   11 1
    13    8    9 1
    14    9   10 2
    15   11   12 1
    16   12   13 2
    17   12   17 1
    18   13   14 1
    19   14   15 2
    20   14   24 1
    21   15   16 1
    22   16   17 2
    23   17   26 1
    24   18   19 1
    25   19   22 1
    26   20   21 1
    27   22   23 1
    28   24   25 1
    29   26   27 1
    30    3   28 1
    31    4   29 1
    32    9   30 1
    33   10   31 1
    34   11   32 1
    35   11   33 1
    36   13   34 1
    37   15   35 1
    38   16   36 1
    39   19   37 1
    40   19   38 1
    41   21   39 1
    42   21   40 1
    43   21   41 1
    44   22   42 1
    45   22   43 1
    46   25   44 1
    47   25   45 1
    48   25   46 1
    49   27   47 1
    50   27   48 1
    51   27   49 1
@<TRIPOS>PROPERTY_DATA
  Total_Score	| 7.2657
  Crash		| -0.8010
  Polar		| 0.0019
  FragIndex	| 1
  FragRMSD	| 0.150

