@<TRIPOS>MOLECULE
BindingDB_50351891
 56 58 0 0 0
SMALL
NO_CHARGES


@<TRIPOS>ATOM
1    C        -2.9082  -27.8218   36.0759  C     
2    C        -3.5715  -29.0483   35.8558  C     
3    C        -4.0613  -29.3468   34.5657  C     
4    C        -2.7475  -26.9093   35.0111  C     
5    C        -3.2932  -27.1783   33.7388  C     
6    C        -3.9958  -28.3998   33.5136  C     
7    C        -4.5975  -28.5775   32.2415  C     
8    N        -4.4052  -27.6656   31.3354  N     
9    C        -3.7129  -26.5661   31.4895  C     
10   C        -3.1641  -26.2692   32.6816  C     
11   C        -5.4713  -29.6988   31.8952  C     
12   C        -6.6453  -29.9111   32.8033  C     
13   C        -7.2828  -28.8509   33.4927  C     
14   C        -8.2924  -29.0978   34.4526  C     
15   C        -8.7009  -30.4189   34.7338  C     
16   C        -8.1440  -31.4702   33.9710  C     
17   C        -7.1291  -31.2221   33.0316  C     
18   O        -3.6157  -29.9744   36.8722  O     
19   C        -4.8662  -30.6640   37.0623  C     
20   O        -2.3078  -27.5795   37.2841  O     
21   C        -2.9424  -26.5689   38.0847  C     
22   O        -8.8257  -28.0598   35.1645  O     
23   C       -10.0358  -27.5290   34.5944  C     
24   O        -9.6333  -30.6040   35.7317  O     
25   C        -9.6053  -31.8251   36.4976  C     
26   C       -10.4560  -31.7218   37.7929  C     
27   O       -11.8496  -31.4794   37.5058  O     
28   C       -12.3162  -30.1166   37.4318  C     
29   C       -13.0600  -29.6909   38.7169  C     
30   F       -12.2146  -29.6470   39.8003  F     
31   H        -4.4646  -30.2701   34.4030  H     
32   H        -2.2242  -26.0445   35.1694  H     
33   H        -3.6386  -25.9332   30.7277  H     
34   H        -2.6841  -25.4057   32.8012  H     
35   H        -5.8580  -29.5878   30.8781  H     
36   H        -4.8336  -30.5888   31.8813  H     
37   H        -6.9868  -27.8897   33.3278  H     
38   H        -8.4619  -32.4289   34.1127  H     
39   H        -6.7250  -32.0190   32.5307  H     
40   H        -5.6894  -29.9668   37.2375  H     
41   H        -4.7656  -31.3067   37.9377  H     
42   H        -5.1038  -31.3000   36.2072  H     
43   H        -2.9491  -25.5985   37.5822  H     
44   H        -2.3674  -26.4666   39.0046  H     
45   H        -3.9644  -26.8514   38.3467  H     
46   H        -9.8640  -27.1661   33.5771  H     
47   H       -10.3478  -26.6843   35.2091  H     
48   H       -10.8455  -28.2656   34.5904  H     
49   H       -10.0155  -32.6369   35.8931  H     
50   H        -8.5742  -32.0774   36.7690  H     
51   H       -10.3941  -32.6798   38.3177  H     
52   H       -10.0365  -30.9621   38.4553  H     
53   H       -11.4983  -29.4230   37.2174  H     
54   H       -13.0223  -30.0564   36.5991  H     
55   H       -13.5002  -28.6978   38.5825  H     
56   H       -13.8667  -30.4010   38.9252  H     
@<TRIPOS>BOND
     1    1    2 2
     2    1    4 1
     3    1   20 1
     4    2    3 1
     5    2   18 1
     6    3    6 2
     7    4    5 2
     8    5    6 1
     9    5   10 1
    10    6    7 1
    11    7    8 2
    12    7   11 1
    13    8    9 1
    14    9   10 2
    15   11   12 1
    16   12   13 2
    17   12   17 1
    18   13   14 1
    19   14   15 2
    20   14   22 1
    21   15   16 1
    22   15   24 1
    23   16   17 2
    24   18   19 1
    25   20   21 1
    26   22   23 1
    27   24   25 1
    28   25   26 1
    29   26   27 1
    30   27   28 1
    31   28   29 1
    32   29   30 1
    33    3   31 1
    34    4   32 1
    35    9   33 1
    36   10   34 1
    37   11   35 1
    38   11   36 1
    39   13   37 1
    40   16   38 1
    41   17   39 1
    42   19   40 1
    43   19   41 1
    44   19   42 1
    45   21   43 1
    46   21   44 1
    47   21   45 1
    48   23   46 1
    49   23   47 1
    50   23   48 1
    51   25   49 1
    52   25   50 1
    53   26   51 1
    54   26   52 1
    55   28   53 1
    56   28   54 1
    57   29   55 1
    58   29   56 1
@<TRIPOS>PROPERTY_DATA
  Total_Score	| 7.5065
  Crash		| -1.0743
  Polar		| 0.0009
  FragIndex	| 1
  FragRMSD	| 0.316

