@<TRIPOS>MOLECULE
BindingDB_50351890
 49 51 0 0 0
SMALL
NO_CHARGES


@<TRIPOS>ATOM
1    C        -2.7784  -27.4010   36.1006  C     
2    C        -3.4466  -28.6451   35.9543  C     
3    C        -4.0045  -28.9942   34.6981  C     
4    C        -2.6619  -26.5473   34.9839  C     
5    C        -3.2279  -26.8760   33.7257  C     
6    C        -3.9475  -28.1046   33.5797  C     
7    C        -4.5178  -28.3474   32.2956  C     
8    N        -4.2731  -27.5334   31.3243  N     
9    C        -3.5591  -26.4382   31.4272  C     
10   C        -3.0624  -26.0501   32.6041  C     
11   C        -5.3339  -29.5291   31.9506  C     
12   C        -6.3754  -29.9378   32.9444  C     
13   C        -7.5627  -29.1892   33.1745  C     
14   C        -8.5153  -29.5966   34.1343  C     
15   C        -8.2906  -30.7632   34.8998  C     
16   C        -7.1385  -31.5360   34.6566  C     
17   C        -6.1958  -31.1326   33.6874  C     
18   O        -3.4892  -29.4985   37.0600  O     
19   C        -3.8753  -30.8795   36.9712  C     
20   O        -2.2055  -27.1459   37.3387  O     
21   C        -2.0425  -25.8005   37.8199  C     
22   O        -9.7367  -28.9893   34.2442  O     
23   O        -9.2382  -31.1477   35.8253  O     
24   C        -8.7808  -31.3187   37.1906  C     
25   C        -9.8038  -27.7248   34.9155  C     
26   C       -11.1665  -27.6034   35.6348  C     
27   F       -11.4306  -28.7474   36.3476  F     
28   H        -4.4228  -29.9224   34.5606  H     
29   H        -2.1459  -25.6645   35.0893  H     
30   H        -3.4283  -25.8852   30.6251  H     
31   H        -2.5437  -25.1933   32.6826  H     
32   H        -5.8562  -29.3708   31.0061  H     
33   H        -4.6364  -30.3483   31.7715  H     
34   H        -7.7205  -28.3469   32.6132  H     
35   H        -6.9757  -32.3946   35.1962  H     
36   H        -5.3568  -31.7129   33.5515  H     
37   H        -4.8607  -30.9674   36.5132  H     
38   H        -3.9057  -31.2963   37.9683  H     
39   H        -3.1425  -31.4303   36.3815  H     
40   H        -1.2842  -25.2782   37.2249  H     
41   H        -1.7037  -25.8225   38.8540  H     
42   H        -2.9850  -25.2435   37.7645  H     
43   H        -8.1552  -32.2256   37.2736  H     
44   H        -9.6406  -31.4337   37.8459  H     
45   H        -8.1965  -30.4499   37.5289  H     
46   H        -9.0093  -27.6037   35.6565  H     
47   H        -9.7285  -26.9232   34.1736  H     
48   H       -11.1534  -26.7603   36.3320  H     
49   H       -11.9701  -27.4424   34.9111  H     
@<TRIPOS>BOND
     1    1    2 2
     2    1    4 1
     3    1   20 1
     4    2    3 1
     5    2   18 1
     6    3    6 2
     7    4    5 2
     8    5    6 1
     9    5   10 1
    10    6    7 1
    11    7    8 2
    12    7   11 1
    13    8    9 1
    14    9   10 2
    15   11   12 1
    16   12   13 2
    17   12   17 1
    18   13   14 1
    19   14   15 2
    20   14   22 1
    21   15   16 1
    22   15   23 1
    23   16   17 2
    24   18   19 1
    25   20   21 1
    26   22   25 1
    27   23   24 1
    28   25   26 1
    29   26   27 1
    30    3   28 1
    31    4   29 1
    32    9   30 1
    33   10   31 1
    34   11   32 1
    35   11   33 1
    36   13   34 1
    37   16   35 1
    38   17   36 1
    39   19   37 1
    40   19   38 1
    41   19   39 1
    42   21   40 1
    43   21   41 1
    44   21   42 1
    45   24   43 1
    46   24   44 1
    47   24   45 1
    48   25   46 1
    49   25   47 1
    50   26   48 1
    51   26   49 1
@<TRIPOS>PROPERTY_DATA
  Total_Score	| 6.9371
  Crash		| -1.3134
  Polar		| 0.0010
  FragIndex	| 1
  FragRMSD	| 0.704

