@<TRIPOS>MOLECULE
BindingDB_50351900
 48 50 0 0 0
SMALL
NO_CHARGES


@<TRIPOS>ATOM
1    C        -2.7073  -27.5084   35.8815  C     
2    C        -3.5587  -28.6295   35.8006  C     
3    C        -4.1293  -28.9971   34.5654  C     
4    C        -2.3783  -26.8023   34.7070  C     
5    C        -2.9938  -27.1312   33.4691  C     
6    C        -3.8971  -28.2354   33.3976  C     
7    C        -4.5300  -28.4876   32.1523  C     
8    N        -4.2577  -27.6889   31.1668  N     
9    C        -3.4357  -26.6765   31.1898  C     
10   C        -2.7687  -26.3781   32.3232  C     
11   C        -5.3835  -29.6495   31.8831  C     
12   C        -6.6090  -29.8364   32.7170  C     
13   C        -7.1666  -31.1345   32.8604  C     
14   C        -8.2239  -31.4137   33.7663  C     
15   C        -8.7357  -30.3554   34.5542  C     
16   C        -8.2729  -29.0408   34.3384  C     
17   C        -7.2161  -28.7811   33.4388  C     
18   C        -8.7345  -32.8027   33.8773  C     
19   O        -9.6619  -30.5572   35.5517  O     
20   C        -9.0774  -31.0920   36.7554  C     
21   O        -3.9195  -29.2867   36.9563  O     
22   C        -3.7372  -30.7130   36.9883  C     
23   O        -2.1874  -27.2072   37.1201  O     
24   C        -1.9314  -25.8003   37.3615  C     
25   C        -2.9858  -31.1072   38.2732  C     
26   F        -2.2646  -30.0484   38.7636  F     
27   H        -4.7481  -29.8066   34.5517  H     
28   H        -1.6952  -26.0348   34.7871  H     
29   H        -3.2928  -26.1434   30.3626  H     
30   H        -2.1233  -25.6375   32.3077  H     
31   H        -5.6929  -29.6873   30.8290  H     
32   H        -4.7499  -30.5237   32.0517  H     
33   H        -6.7690  -31.9036   32.3262  H     
34   H        -8.6738  -28.2696   34.8901  H     
35   H        -6.8774  -27.8184   33.3376  H     
36   H        -9.0920  -33.1307   32.8979  H     
37   H        -9.5579  -32.8853   34.5945  H     
38   H        -7.9378  -33.4734   34.2053  H     
39   H        -8.6759  -32.0950   36.5910  H     
40   H        -9.8611  -31.1528   37.5060  H     
41   H        -8.2933  -30.4461   37.1560  H     
42   H        -4.7198  -31.1868   36.9918  H     
43   H        -3.1965  -31.0848   36.1153  H     
44   H        -1.1134  -25.4329   36.7238  H     
45   H        -1.6208  -25.7134   38.3895  H     
46   H        -2.8290  -25.1752   37.2047  H     
47   H        -3.6958  -31.4314   39.0391  H     
48   H        -2.2935  -31.9213   38.0568  H     
@<TRIPOS>BOND
     1    1    2 2
     2    1    4 1
     3    1   23 1
     4    2    3 1
     5    2   21 1
     6    3    6 2
     7    4    5 2
     8    5    6 1
     9    5   10 1
    10    6    7 1
    11    7    8 2
    12    7   11 1
    13    8    9 1
    14    9   10 2
    15   11   12 1
    16   12   13 2
    17   12   17 1
    18   13   14 1
    19   14   15 2
    20   14   18 1
    21   15   16 1
    22   15   19 1
    23   16   17 2
    24   19   20 1
    25   21   22 1
    26   22   25 1
    27   23   24 1
    28   25   26 1
    29    3   27 1
    30    4   28 1
    31    9   29 1
    32   10   30 1
    33   11   31 1
    34   11   32 1
    35   13   33 1
    36   16   34 1
    37   17   35 1
    38   18   36 1
    39   18   37 1
    40   18   38 1
    41   20   39 1
    42   20   40 1
    43   20   41 1
    44   22   42 1
    45   22   43 1
    46   24   44 1
    47   24   45 1
    48   24   46 1
    49   25   47 1
    50   25   48 1
@<TRIPOS>PROPERTY_DATA
  Total_Score	| 5.8820
  Crash		| -0.8063
  Polar		| 0.0030
  FragIndex	| 1
  FragRMSD	| 0.258

