@<TRIPOS>MOLECULE
BindingDB_50351901
 52 54 0 0 0
SMALL
NO_CHARGES


@<TRIPOS>ATOM
1    C        -2.8407  -27.6141   36.0581  C     
2    C        -3.6417  -28.7680   35.9170  C     
3    C        -4.1486  -29.1220   34.6517  C     
4    C        -2.4919  -26.8711   34.9065  C     
5    C        -3.0246  -27.1959   33.6356  C     
6    C        -3.9027  -28.3112   33.5118  C     
7    C        -4.5147  -28.5289   32.2505  C     
8    N        -4.2283  -27.7106   31.2827  N     
9    C        -3.4048  -26.6967   31.3545  C     
10   C        -2.7880  -26.4001   32.5128  C     
11   C        -5.4187  -29.6367   31.8861  C     
12   C        -6.6441  -29.8749   32.7211  C     
13   C        -7.2924  -28.8276   33.4354  C     
14   C        -8.3231  -29.0965   34.3593  C     
15   C        -8.6918  -30.4387   34.5994  C     
16   C        -8.1443  -31.4754   33.8211  C     
17   C        -7.1100  -31.1960   32.9191  C     
18   O        -4.0616  -29.4499   37.0381  O     
19   C        -3.6968  -30.8416   37.1573  C     
20   O        -2.4204  -27.2030   37.2821  O     
21   C        -3.4078  -26.4045   37.9622  C     
22   C        -2.7726  -31.0885   38.3605  C     
23   F        -3.4972  -31.3848   39.4953  F     
24   O        -8.8232  -28.0846   35.1451  O     
25   C       -10.0761  -27.5456   34.6778  C     
26   O        -9.6181  -30.7278   35.5700  O     
27   C        -9.0086  -31.2189   36.7888  C     
28   C       -10.1064  -31.5341   37.8204  C     
29   F       -10.5839  -32.8278   37.6611  F     
30   H        -4.7427  -29.9518   34.6094  H     
31   H        -1.8833  -26.0588   34.9994  H     
32   H        -3.2537  -26.1444   30.5451  H     
33   H        -2.1617  -25.6297   32.5552  H     
34   H        -5.7867  -29.5185   30.8620  H     
35   H        -4.8018  -30.5407   31.8874  H     
36   H        -6.9847  -27.8592   33.2916  H     
37   H        -8.4506  -32.4391   33.9790  H     
38   H        -6.7004  -31.9732   32.3962  H     
39   H        -4.6177  -31.4232   37.3123  H     
40   H        -3.2405  -31.2314   36.2495  H     
41   H        -3.6121  -25.4794   37.4137  H     
42   H        -3.0081  -26.1310   38.9353  H     
43   H        -4.3404  -26.9527   38.1161  H     
44   H        -2.0888  -31.9191   38.1466  H     
45   H        -2.1781  -30.1987   38.5500  H     
46   H        -9.9554  -27.0572   33.7096  H     
47   H       -10.4132  -26.7983   35.3949  H     
48   H       -10.8524  -28.3128   34.6050  H     
49   H        -8.4091  -32.1178   36.6111  H     
50   H        -8.3344  -30.4633   37.2265  H     
51   H        -9.6956  -31.4472   38.8397  H     
52   H       -10.9365  -30.8325   37.7199  H     
@<TRIPOS>BOND
     1    1    2 2
     2    1    4 1
     3    1   20 1
     4    2    3 1
     5    2   18 1
     6    3    6 2
     7    4    5 2
     8    5    6 1
     9    5   10 1
    10    6    7 1
    11    7    8 2
    12    7   11 1
    13    8    9 1
    14    9   10 2
    15   11   12 1
    16   12   13 2
    17   12   17 1
    18   13   14 1
    19   14   15 2
    20   14   24 1
    21   15   16 1
    22   15   26 1
    23   16   17 2
    24   18   19 1
    25   19   22 1
    26   20   21 1
    27   22   23 1
    28   24   25 1
    29   26   27 1
    30   27   28 1
    31   28   29 1
    32    3   30 1
    33    4   31 1
    34    9   32 1
    35   10   33 1
    36   11   34 1
    37   11   35 1
    38   13   36 1
    39   16   37 1
    40   17   38 1
    41   19   39 1
    42   19   40 1
    43   21   41 1
    44   21   42 1
    45   21   43 1
    46   22   44 1
    47   22   45 1
    48   25   46 1
    49   25   47 1
    50   25   48 1
    51   27   49 1
    52   27   50 1
    53   28   51 1
    54   28   52 1
@<TRIPOS>PROPERTY_DATA
  Total_Score	| 6.6299
  Crash		| -0.7304
  Polar		| 0.0014
  FragIndex	| 1
  FragRMSD	| 0.153

