@<TRIPOS>MOLECULE
BindingDB_50351894
 49 51 0 0 0
SMALL
NO_CHARGES


@<TRIPOS>ATOM
1    C        -2.8695  -27.6499   36.0069  C     
2    C        -3.6579  -28.8110   35.8523  C     
3    C        -4.1521  -29.1509   34.5685  C     
4    C        -2.5287  -26.8729   34.8864  C     
5    C        -3.0605  -27.1828   33.6162  C     
6    C        -3.9054  -28.3195   33.4470  C     
7    C        -4.4780  -28.5164   32.1605  C     
8    N        -4.1637  -27.6770   31.2195  N     
9    C        -3.3673  -26.6450   31.3336  C     
10   C        -2.7947  -26.3619   32.5182  C     
11   C        -5.4013  -29.5943   31.8023  C     
12   C        -6.5748  -29.8249   32.6974  C     
13   C        -7.2180  -28.7812   33.4119  C     
14   C        -8.2476  -29.0615   34.3433  C     
15   C        -8.6580  -30.3968   34.5513  C     
16   C        -8.1043  -31.4260   33.7602  C     
17   C        -7.0619  -31.1455   32.8552  C     
18   O        -3.9839  -29.4772   37.0181  O     
19   C        -4.0624  -30.9005   37.0153  C     
20   O        -2.4294  -27.2600   37.2464  O     
21   C        -3.4257  -26.5111   37.9725  C     
22   O        -8.7700  -28.0581   35.1109  O     
23   C       -10.0215  -27.5455   34.6229  C     
24   O        -9.5946  -30.6847   35.5030  O     
25   C        -9.0497  -31.1880   36.7431  C     
26   C       -10.1674  -31.5502   37.7262  C     
27   F       -10.6834  -32.8078   37.4691  F     
28   H        -4.7126  -29.9906   34.4720  H     
29   H        -1.9280  -26.0477   35.0170  H     
30   H        -3.2014  -26.0730   30.5421  H     
31   H        -2.1924  -25.5716   32.5964  H     
32   H        -5.7993  -29.4455   30.7889  H     
33   H        -4.7917  -30.5029   31.7539  H     
34   H        -6.9103  -27.8151   33.2973  H     
35   H        -8.4231  -32.3871   33.8749  H     
36   H        -6.6407  -31.9143   32.3447  H     
37   H        -4.8898  -31.2380   36.3823  H     
38   H        -4.2451  -31.2490   38.0327  H     
39   H        -3.1297  -31.3456   36.6631  H     
40   H        -3.6999  -25.5974   37.4409  H     
41   H        -3.0121  -26.2297   38.9386  H     
42   H        -4.3223  -27.1085   38.1494  H     
43   H        -9.8916  -27.0548   33.6561  H     
44   H       -10.3953  -26.8048   35.3311  H     
45   H       -10.7734  -28.3339   34.5342  H     
46   H        -8.4383  -32.0774   36.5600  H     
47   H        -8.4152  -30.4265   37.2105  H     
48   H        -9.7895  -31.5393   38.7562  H     
49   H       -10.9820  -30.8274   37.6459  H     
@<TRIPOS>BOND
     1    1    2 2
     2    1    4 1
     3    1   20 1
     4    2    3 1
     5    2   18 1
     6    3    6 2
     7    4    5 2
     8    5    6 1
     9    5   10 1
    10    6    7 1
    11    7    8 2
    12    7   11 1
    13    8    9 1
    14    9   10 2
    15   11   12 1
    16   12   13 2
    17   12   17 1
    18   13   14 1
    19   14   15 2
    20   14   22 1
    21   15   16 1
    22   15   24 1
    23   16   17 2
    24   18   19 1
    25   20   21 1
    26   22   23 1
    27   24   25 1
    28   25   26 1
    29   26   27 1
    30    3   28 1
    31    4   29 1
    32    9   30 1
    33   10   31 1
    34   11   32 1
    35   11   33 1
    36   13   34 1
    37   16   35 1
    38   17   36 1
    39   19   37 1
    40   19   38 1
    41   19   39 1
    42   21   40 1
    43   21   41 1
    44   21   42 1
    45   23   43 1
    46   23   44 1
    47   23   45 1
    48   25   46 1
    49   25   47 1
    50   26   48 1
    51   26   49 1
@<TRIPOS>PROPERTY_DATA
  Total_Score	| 6.3167
  Crash		| -0.8307
  Polar		| 0.0025
  FragIndex	| 1
  FragRMSD	| 0.200

