@<TRIPOS>MOLECULE
BindingDB_50351908
 45 47 0 0 0
SMALL
NO_CHARGES


@<TRIPOS>ATOM
1    C        -2.8174  -27.4671   35.9517  C     
2    C        -3.4422  -28.7227   35.7815  C     
3    C        -3.9206  -29.0881   34.4985  C     
4    C        -2.5888  -26.6334   34.8413  C     
5    C        -3.0816  -26.9882   33.5675  C     
6    C        -3.8005  -28.2102   33.3864  C     
7    C        -4.3829  -28.4378   32.1105  C     
8    N        -4.1626  -27.5603   31.1796  N     
9    C        -3.4474  -26.4716   31.2910  C     
10   C        -2.9010  -26.1374   32.4724  C     
11   C        -5.2703  -29.5573   31.7590  C     
12   C        -6.4497  -29.7622   32.6475  C     
13   C        -6.8152  -31.0595   33.0753  C     
14   C        -7.8634  -31.2510   33.9950  C     
15   C        -8.5821  -30.1515   34.5064  C     
16   C        -8.2749  -28.8587   34.0232  C     
17   C        -7.2289  -28.6693   33.0936  C     
18   F        -8.1494  -32.4645   34.3855  F     
19   O        -9.4980  -30.4106   35.5042  O     
20   C       -10.4575  -29.4079   35.8630  C     
21   O        -3.6162  -29.4696   36.9242  O     
22   C        -3.9747  -30.8494   36.8101  C     
23   O        -2.3771  -27.0610   37.1843  O     
24   C        -3.3823  -26.4958   38.0587  C     
25   C        -3.8121  -25.0552   37.6950  C     
26   F        -4.6197  -25.0320   36.5855  F     
27   H        -4.3792  -29.9963   34.3985  H     
28   H        -2.0986  -25.7439   34.9796  H     
29   H        -3.3273  -25.8898   30.4964  H     
30   H        -2.3808  -25.2928   32.5516  H     
31   H        -5.6605  -29.4306   30.7444  H     
32   H        -4.6456  -30.4529   31.7361  H     
33   H        -6.2988  -31.8764   32.7343  H     
34   H        -8.7922  -28.0459   34.3518  H     
35   H        -7.0104  -27.7225   32.7807  H     
36   H        -9.9800  -28.4970   36.2209  H     
37   H       -11.0962  -29.8005   36.6702  H     
38   H       -11.1044  -29.1711   35.0160  H     
39   H        -4.9023  -30.9600   36.2473  H     
40   H        -4.1179  -31.2643   37.8205  H     
41   H        -3.1766  -31.4132   36.3229  H     
42   H        -4.2681  -27.1383   38.1214  H     
43   H        -2.9374  -26.4690   39.0536  H     
44   H        -4.3675  -24.6170   38.5276  H     
45   H        -2.9284  -24.4422   37.5045  H     
@<TRIPOS>BOND
     1    1    2 2
     2    1    4 1
     3    1   23 1
     4    2    3 1
     5    2   21 1
     6    3    6 2
     7    4    5 2
     8    5    6 1
     9    5   10 1
    10    6    7 1
    11    7    8 2
    12    7   11 1
    13    8    9 1
    14    9   10 2
    15   11   12 1
    16   12   13 2
    17   12   17 1
    18   13   14 1
    19   14   15 2
    20   14   18 1
    21   15   16 1
    22   15   19 1
    23   16   17 2
    24   19   20 1
    25   21   22 1
    26   23   24 1
    27   24   25 1
    28   25   26 1
    29    3   27 1
    30    4   28 1
    31    9   29 1
    32   10   30 1
    33   11   31 1
    34   11   32 1
    35   13   33 1
    36   16   34 1
    37   17   35 1
    38   20   36 1
    39   20   37 1
    40   20   38 1
    41   22   39 1
    42   22   40 1
    43   22   41 1
    44   24   42 1
    45   24   43 1
    46   25   44 1
    47   25   45 1
@<TRIPOS>PROPERTY_DATA
  Total_Score	| 5.7125
  Crash		| -0.9628
  Polar		| 0.0033
  FragIndex	| 1
  FragRMSD	| 0.634

