@<TRIPOS>MOLECULE
BindingDB_50351899
 45 47 0 0 0
SMALL
NO_CHARGES


@<TRIPOS>ATOM
1    C        -8.7792  -30.4583   34.6987  C     
2    C        -8.2662  -29.1595   34.5105  C     
3    C        -7.2294  -28.9323   33.5826  C     
4    C        -8.3466  -31.5029   33.8641  C     
5    C        -7.3271  -31.2848   32.9095  C     
6    C        -6.7073  -29.9965   32.8094  C     
7    C        -5.5740  -29.8829   31.9651  C     
8    N        -5.2429  -30.9173   31.2579  N     
9    C        -5.8477  -32.0776   31.2509  C     
10   C        -6.8800  -32.3157   32.0827  C     
11   C        -4.6786  -28.7225   31.9256  C     
12   C        -4.0800  -28.3237   33.2375  C     
13   C        -3.9415  -29.2304   34.3142  C     
14   C        -3.4552  -28.7986   35.5645  C     
15   C        -3.0445  -27.4631   35.7564  C     
16   C        -3.1517  -26.5631   34.6781  C     
17   C        -3.6281  -26.9972   33.4271  C     
18   S        -2.5215  -26.9927   37.3579  S     
19   C        -1.7027  -25.4146   37.0139  C     
20   O        -8.7979  -28.1196   35.2209  O     
21   C       -10.1311  -27.7453   34.8053  C     
22   O        -9.7090  -30.6872   35.6731  O     
23   C        -9.1222  -31.1896   36.8876  C     
24   C       -10.9080  -27.1353   35.9818  C     
25   F       -11.5128  -28.1209   36.7336  F     
26   H        -6.8582  -27.9863   33.4908  H     
27   H        -8.7737  -32.4277   33.9645  H     
28   H        -5.5145  -32.8069   30.6621  H     
29   H        -7.3191  -33.2152   32.0964  H     
30   H        -3.8409  -28.8989   31.2467  H     
31   H        -5.2494  -27.8929   31.5060  H     
32   H        -4.2219  -30.2073   34.2068  H     
33   H        -3.4127  -29.4667   36.3339  H     
34   H        -2.8939  -25.5788   34.8019  H     
35   H        -3.6695  -26.3280   32.6600  H     
36   H        -0.9895  -25.5267   36.1974  H     
37   H        -1.1773  -25.0867   37.9185  H     
38   H        -2.4479  -24.6657   36.7529  H     
39   H       -10.0399  -27.0008   34.0077  H     
40   H       -10.7260  -28.5717   34.4011  H     
41   H        -8.6463  -32.1553   36.7313  H     
42   H        -9.9161  -31.3186   37.6209  H     
43   H        -8.3910  -30.4878   37.3037  H     
44   H       -10.2314  -26.5640   36.6239  H     
45   H       -11.6781  -26.4715   35.5892  H     
@<TRIPOS>BOND
     1    1    2 2
     2    1    4 1
     3    1   22 1
     4    2    3 1
     5    2   20 1
     6    3    6 2
     7    4    5 2
     8    5    6 1
     9    5   10 1
    10    6    7 1
    11    7    8 2
    12    7   11 1
    13    8    9 1
    14    9   10 2
    15   11   12 1
    16   12   13 2
    17   12   17 1
    18   13   14 1
    19   14   15 2
    20   15   16 1
    21   15   18 1
    22   16   17 2
    23   18   19 1
    24   20   21 1
    25   21   24 1
    26   22   23 1
    27   24   25 1
    28    3   26 1
    29    4   27 1
    30    9   28 1
    31   10   29 1
    32   11   30 1
    33   11   31 1
    34   13   32 1
    35   14   33 1
    36   16   34 1
    37   17   35 1
    38   19   36 1
    39   19   37 1
    40   19   38 1
    41   21   39 1
    42   21   40 1
    43   23   41 1
    44   23   42 1
    45   23   43 1
    46   24   44 1
    47   24   45 1
@<TRIPOS>PROPERTY_DATA
  Total_Score	| 6.4780
  Crash		| -1.8274
  Polar		| 0.0000
  FragIndex	| 1
  FragRMSD	| 0.375

