@<TRIPOS>MOLECULE
BindingDB_50351892
 42 44 0 0 0
SMALL
NO_CHARGES


@<TRIPOS>ATOM
1    C        -2.8790  -27.6408   36.0194  C     
2    C        -3.6763  -28.7931   35.8637  C     
3    C        -4.1463  -29.1351   34.5738  C     
4    C        -2.5247  -26.8651   34.8982  C     
5    C        -3.0265  -27.1816   33.6176  C     
6    C        -3.8756  -28.3179   33.4445  C     
7    C        -4.4496  -28.5182   32.1559  C     
8    N        -4.1303  -27.6839   31.2166  N     
9    C        -3.3190  -26.6653   31.3281  C     
10   C        -2.7387  -26.3828   32.5088  C     
11   C        -5.3901  -29.5843   31.7868  C     
12   C        -6.6009  -29.7616   32.6444  C     
13   C        -7.1289  -31.0588   32.8362  C     
14   C        -8.1536  -31.2982   33.7735  C     
15   C        -8.6687  -30.2372   34.5427  C     
16   C        -8.2222  -28.9251   34.2938  C     
17   C        -7.2058  -28.6880   33.3496  C     
18   O        -4.0857  -29.4442   37.0051  O     
19   C        -4.1116  -30.8745   36.9973  C     
20   O        -2.4365  -27.2632   37.2623  O     
21   C        -3.3643  -26.3981   37.9445  C     
22   O        -9.6403  -30.4486   35.4780  O     
23   C        -9.1600  -31.0301   36.7025  C     
24   H        -4.7164  -29.9713   34.4806  H     
25   H        -1.9343  -26.0403   35.0331  H     
26   H        -3.1181  -26.1171   30.5288  H     
27   H        -2.1115  -25.6204   32.5831  H     
28   H        -5.7557  -29.4487   30.7659  H     
29   H        -4.8100  -30.5098   31.7847  H     
30   H        -6.7477  -31.8569   32.3159  H     
31   H        -8.4975  -32.2502   33.9126  H     
32   H        -8.6200  -28.1415   34.8212  H     
33   H        -6.8725  -27.7315   33.2155  H     
34   H        -4.9087  -31.2495   36.3486  H     
35   H        -4.3118  -31.2317   38.0186  H     
36   H        -3.1539  -31.2890   36.6747  H     
37   H        -3.5178  -25.4660   37.3949  H     
38   H        -2.9497  -26.1536   38.9214  H     
39   H        -4.3273  -26.8901   38.0979  H     
40   H        -8.7607  -32.0340   36.5403  H     
41   H       -10.0057  -31.1101   37.3885  H     
42   H        -8.3949  -30.4063   37.1731  H     
@<TRIPOS>BOND
     1    1    2 2
     2    1    4 1
     3    1   20 1
     4    2    3 1
     5    2   18 1
     6    3    6 2
     7    4    5 2
     8    5    6 1
     9    5   10 1
    10    6    7 1
    11    7    8 2
    12    7   11 1
    13    8    9 1
    14    9   10 2
    15   11   12 1
    16   12   13 2
    17   12   17 1
    18   13   14 1
    19   14   15 2
    20   15   16 1
    21   15   22 1
    22   16   17 2
    23   18   19 1
    24   20   21 1
    25   22   23 1
    26    3   24 1
    27    4   25 1
    28    9   26 1
    29   10   27 1
    30   11   28 1
    31   11   29 1
    32   13   30 1
    33   14   31 1
    34   16   32 1
    35   17   33 1
    36   19   34 1
    37   19   35 1
    38   19   36 1
    39   21   37 1
    40   21   38 1
    41   21   39 1
    42   23   40 1
    43   23   41 1
    44   23   42 1
@<TRIPOS>PROPERTY_DATA
  Total_Score	| 4.7874
  Crash		| -0.5501
  Polar		| 0.0026
  FragIndex	| 1
  FragRMSD	| 0.241

