@<TRIPOS>MOLECULE
BindingDB_50351906
 45 47 0 0 0
SMALL
NO_CHARGES


@<TRIPOS>ATOM
1    C        -2.8211  -27.6061   36.0099  C     
2    C        -3.6486  -28.7394   35.8527  C     
3    C        -4.1703  -29.0641   34.5784  C     
4    C        -2.4666  -26.8400   34.8802  C     
5    C        -3.0115  -27.1411   33.6116  C     
6    C        -3.8917  -28.2550   33.4507  C     
7    C        -4.4567  -28.4697   32.1666  C     
8    N        -4.1312  -27.6464   31.2148  N     
9    C        -3.3242  -26.6241   31.3128  C     
10   C        -2.7364  -26.3397   32.4917  C     
11   C        -5.3589  -29.5721   31.7885  C     
12   C        -6.5316  -29.8155   32.6820  C     
13   C        -7.3359  -28.7345   33.1102  C     
14   C        -8.3757  -28.9226   34.0387  C     
15   C        -8.6649  -30.2135   34.5281  C     
16   C        -7.9446  -31.3167   34.0260  C     
17   C        -6.8750  -31.1198   33.1280  C     
18   O        -9.6558  -30.3791   35.4585  O     
19   C        -9.2174  -30.9832   36.6879  C     
20   O        -4.0468  -29.4305   36.9698  O     
21   C        -3.7452  -30.8324   37.0257  C     
22   O        -2.3497  -27.2533   37.2371  O     
23   C        -3.2836  -26.4528   37.9810  C     
24   C        -2.9110  -31.1709   38.2788  C     
25   F        -2.2597  -30.0614   38.7702  F     
26   F        -6.2366  -32.1802   32.7139  F     
27   H        -4.7738  -29.8864   34.4950  H     
28   H        -1.8319  -26.0433   34.9850  H     
29   H        -3.1622  -26.0617   30.5091  H     
30   H        -2.1174  -25.5620   32.5529  H     
31   H        -5.7652  -29.4016   30.7814  H     
32   H        -4.7323  -30.4647   31.7126  H     
33   H        -7.1475  -27.7920   32.7669  H     
34   H        -8.8965  -28.1146   34.3834  H     
35   H        -8.1825  -32.2546   34.3596  H     
36   H        -8.8954  -32.0122   36.5111  H     
37   H       -10.0616  -30.9954   37.3788  H     
38   H        -8.3912  -30.4173   37.1311  H     
39   H        -4.6881  -31.3804   37.0785  H     
40   H        -3.2192  -31.1767   36.1353  H     
41   H        -3.4673  -25.4946   37.4841  H     
42   H        -2.8378  -26.2457   38.9584  H     
43   H        -4.2320  -26.9770   38.1410  H     
44   H        -3.5691  -31.5565   39.0676  H     
45   H        -2.1636  -31.9400   38.0327  H     
@<TRIPOS>BOND
     1    1    2 2
     2    1    4 1
     3    1   22 1
     4    2    3 1
     5    2   20 1
     6    3    6 2
     7    4    5 2
     8    5    6 1
     9    5   10 1
    10    6    7 1
    11    7    8 2
    12    7   11 1
    13    8    9 1
    14    9   10 2
    15   11   12 1
    16   12   13 2
    17   12   17 1
    18   13   14 1
    19   14   15 2
    20   15   16 1
    21   15   18 1
    22   16   17 2
    23   17   26 1
    24   18   19 1
    25   20   21 1
    26   21   24 1
    27   22   23 1
    28   24   25 1
    29    3   27 1
    30    4   28 1
    31    9   29 1
    32   10   30 1
    33   11   31 1
    34   11   32 1
    35   13   33 1
    36   14   34 1
    37   16   35 1
    38   19   36 1
    39   19   37 1
    40   19   38 1
    41   21   39 1
    42   21   40 1
    43   23   41 1
    44   23   42 1
    45   23   43 1
    46   24   44 1
    47   24   45 1
@<TRIPOS>PROPERTY_DATA
  Total_Score	| 4.9424
  Crash		| -0.6792
  Polar		| 0.0026
  FragIndex	| 1
  FragRMSD	| 0.270

