@<TRIPOS>MOLECULE
BindingDB_50351898
 52 54 0 0 0
SMALL
NO_CHARGES


@<TRIPOS>ATOM
1    C        -2.8037  -27.6548   36.0340  C     
2    C        -3.5017  -28.8586   35.7917  C     
3    C        -3.9503  -29.1504   34.4883  C     
4    C        -2.5621  -26.7696   34.9665  C     
5    C        -3.0938  -27.0190   33.6840  C     
6    C        -3.8440  -28.2110   33.4368  C     
7    C        -4.4418  -28.3597   32.1555  C     
8    N        -4.2170  -27.4302   31.2777  N     
9    C        -3.4833  -26.3585   31.4414  C     
10   C        -2.9056  -26.1149   32.6330  C     
11   C        -5.2797  -29.4855   31.7160  C     
12   C        -6.4259  -29.8839   32.5951  C     
13   C        -7.2570  -28.9235   33.2230  C     
14   C        -8.2225  -29.3017   34.1812  C     
15   C        -8.3893  -30.6708   34.5178  C     
16   C        -7.6247  -31.6326   33.8273  C     
17   C        -6.6568  -31.2455   32.8685  C     
18   O        -3.6284  -29.7875   36.7940  O     
19   C        -4.9654  -30.0301   37.2901  C     
20   O        -2.2754  -27.4159   37.2792  O     
21   C        -2.9296  -26.3753   38.0295  C     
22   C        -5.1935  -29.3589   38.6591  C     
23   F        -6.3251  -29.8633   39.2533  F     
24   O        -8.8889  -28.2753   34.8054  O     
25   O        -9.2793  -30.9457   35.5433  O     
26   C        -9.4995  -32.2795   36.0114  C     
27   C       -10.2585  -28.5274   35.1914  C     
28   C       -11.0469  -27.2019   35.1786  C     
29   F       -11.0294  -26.6071   36.4199  F     
30   H        -4.3680  -30.0637   34.3355  H     
31   H        -2.0012  -25.9262   35.1243  H     
32   H        -3.3629  -25.7300   30.6786  H     
33   H        -2.3617  -25.2919   32.7514  H     
34   H        -5.7047  -29.2628   30.7340  H     
35   H        -4.6015  -30.3305   31.5655  H     
36   H        -7.1189  -27.9280   33.0356  H     
37   H        -7.7039  -32.6224   34.0095  H     
38   H        -6.1041  -31.9816   32.4332  H     
39   H        -5.7606  -29.7151   36.6008  H     
40   H        -5.0590  -31.1116   37.4185  H     
41   H        -2.8199  -25.4035   37.5423  H     
42   H        -2.4584  -26.3155   39.0110  H     
43   H        -3.9908  -26.5874   38.1708  H     
44   H        -4.3393  -29.5487   39.3130  H     
45   H        -5.3180  -28.2831   38.5351  H     
46   H        -9.9536  -32.8913   35.2346  H     
47   H       -10.2179  -32.2588   36.8501  H     
48   H        -8.5732  -32.7252   36.3693  H     
49   H       -10.7591  -29.2308   34.5108  H     
50   H       -10.2931  -28.9473   36.2046  H     
51   H       -10.6022  -26.5207   34.4492  H     
52   H       -12.0821  -27.3968   34.8897  H     
@<TRIPOS>BOND
     1    1    2 2
     2    1    4 1
     3    1   20 1
     4    2    3 1
     5    2   18 1
     6    3    6 2
     7    4    5 2
     8    5    6 1
     9    5   10 1
    10    6    7 1
    11    7    8 2
    12    7   11 1
    13    8    9 1
    14    9   10 2
    15   11   12 1
    16   12   13 2
    17   12   17 1
    18   13   14 1
    19   14   15 2
    20   14   24 1
    21   15   16 1
    22   15   25 1
    23   16   17 2
    24   18   19 1
    25   19   22 1
    26   20   21 1
    27   22   23 1
    28   24   27 1
    29   25   26 1
    30   27   28 1
    31   28   29 1
    32    3   30 1
    33    4   31 1
    34    9   32 1
    35   10   33 1
    36   11   34 1
    37   11   35 1
    38   13   36 1
    39   16   37 1
    40   17   38 1
    41   19   39 1
    42   19   40 1
    43   21   41 1
    44   21   42 1
    45   21   43 1
    46   22   44 1
    47   22   45 1
    48   26   46 1
    49   26   47 1
    50   26   48 1
    51   27   49 1
    52   27   50 1
    53   28   51 1
    54   28   52 1
@<TRIPOS>PROPERTY_DATA
  Total_Score	| 6.4056
  Crash		| -1.1815
  Polar		| 0.0016
  FragIndex	| 1
  FragRMSD	| 0.590

