@<TRIPOS>MOLECULE
BindingDB_22426
 63 65 0 0 0
SMALL
NO_CHARGES


@<TRIPOS>ATOM
1    C       -14.4724   59.4764  -11.7217  C     
2    C       -15.0420   58.6734  -12.7358  C     
3    C       -16.2177   57.9307  -12.4902  C     
4    C       -16.8496   57.9809  -11.2238  C     
5    C       -16.2805   58.8046  -10.2199  C     
6    C       -15.1046   59.5327  -10.4647  C     
7    O       -13.2576   60.0944  -11.8835  O     
8    C       -13.3303   61.5111  -12.1569  C     
9    C       -11.8915   62.1050  -12.2401  C     
10   N       -11.4356   62.9467  -11.0732  N     
11   C       -11.6524   62.3238   -9.7238  C     
12   C       -10.0308   63.4296  -11.2519  C     
13   C       -17.9982   57.2262  -10.9432  C     
14   C       -18.0353   55.8644  -11.1075  C     
15   C       -16.8638   55.1154  -11.4011  C     
16   C       -14.5279   54.5419  -10.8644  C     
17   C       -15.7034   55.2616  -10.5938  C     
18   C       -16.8004   54.1946  -12.4807  C     
19   C       -15.6330   53.4512  -12.7365  C     
20   C       -14.4903   53.6342  -11.9377  C     
21   C       -19.2896   55.0713  -10.9905  C     
22   C       -19.0726   57.9861  -10.4421  C     
23   C       -19.5634   57.7874   -9.1275  C     
24   C       -20.6172   58.5698   -8.6134  C     
25   C       -21.1774   59.6007   -9.3894  C     
26   C       -20.6680   59.8521  -10.6766  C     
27   C       -19.6318   59.0529  -11.1954  C     
28   O       -22.2128   60.3272   -8.8976  O     
29   C       -19.4597   54.1210   -9.7614  C     
30   C       -18.3021   54.0933   -8.7244  C     
31   C       -18.4789   53.1781   -7.7163  C     
32   N       -18.6217   52.4147   -6.8730  N     
33   H       -14.5832   58.6231  -13.6556  H     
34   H       -16.5926   57.3514  -13.2427  H     
35   H       -16.6997   58.8421   -9.2813  H     
36   H       -14.6961   60.0902   -9.7093  H     
37   H       -13.8272   61.6675  -13.1266  H     
38   H       -13.8887   62.0582  -11.3750  H     
39   H       -11.1699   61.3077  -12.4208  H     
40   H       -11.8735   62.7605  -13.1191  H     
41   H       -12.0164   63.7984  -11.1114  H     
42   H       -12.7298   62.1891   -9.5409  H     
43   H       -11.2692   62.9798   -8.9276  H     
44   H       -11.1547   61.3457   -9.6657  H     
45   H        -9.3250   62.6009  -11.2086  H     
46   H        -9.7764   64.1532  -10.4756  H     
47   H        -9.9247   63.9340  -12.2154  H     
48   H       -13.7018   54.6729  -10.2803  H     
49   H       -15.7066   55.8850   -9.7839  H     
50   H       -17.5968   54.0649  -13.1047  H     
51   H       -15.6085   52.7884  -13.5147  H     
52   H       -13.6341   53.1034  -12.1365  H     
53   H       -20.1565   55.7341  -11.0162  H     
54   H       -19.4199   54.4583  -11.8795  H     
55   H       -19.1429   57.0908   -8.5121  H     
56   H       -20.9707   58.4040   -7.6649  H     
57   H       -21.0531   60.6123  -11.2448  H     
58   H       -19.2765   59.2588  -12.1358  H     
59   H       -21.9642   61.2772   -9.0186  H     
60   H       -20.3810   54.3829   -9.2271  H     
61   H       -19.6049   53.1136  -10.1464  H     
62   H       -17.3683   53.8482   -9.2165  H     
63   H       -18.2072   55.0810   -8.2540  H     
@<TRIPOS>BOND
     1    1    2 2
     2    1    6 1
     3    1    7 1
     4    2    3 1
     5    3    4 2
     6    4    5 1
     7    4   13 1
     8    5    6 2
     9    7    8 1
    10    8    9 1
    11    9   10 1
    12   10   11 1
    13   10   12 1
    14   13   14 2
    15   13   22 1
    16   14   15 1
    17   14   21 1
    18   15   17 2
    19   15   18 1
    20   16   17 1
    21   16   20 2
    22   18   19 2
    23   19   20 1
    24   21   29 1
    25   22   23 1
    26   22   27 2
    27   23   24 2
    28   24   25 1
    29   25   26 2
    30   25   28 1
    31   26   27 1
    32   29   30 1
    33   30   31 1
    34   31   32 3
    35    2   33 1
    36    3   34 1
    37    5   35 1
    38    6   36 1
    39    8   37 1
    40    8   38 1
    41    9   39 1
    42    9   40 1
    43   10   41 1
    44   11   42 1
    45   11   43 1
    46   11   44 1
    47   12   45 1
    48   12   46 1
    49   12   47 1
    50   16   48 1
    51   17   49 1
    52   18   50 1
    53   19   51 1
    54   20   52 1
    55   21   53 1
    56   21   54 1
    57   23   55 1
    58   24   56 1
    59   26   57 1
    60   27   58 1
    61   28   59 1
    62   29   60 1
    63   29   61 1
    64   30   62 1
    65   30   63 1
@<TRIPOS>PROPERTY_DATA
  Total_Score	| 10.2515
  Crash		| -2.9946
  Polar		| 3.4436
  FragIndex	| 1
  FragRMSD	| 0.190

