@<TRIPOS>MOLECULE
BindingDB_22435
 63 65 0 0 0
SMALL
NO_CHARGES


@<TRIPOS>ATOM
1    C       -14.4178   59.4117  -11.5536  C     
2    C       -14.9928   58.6843  -12.6202  C     
3    C       -16.2284   58.0407  -12.4610  C     
4    C       -16.8928   58.0244  -11.2079  C     
5    C       -16.3187   58.7789  -10.1535  C     
6    C       -15.1019   59.4612  -10.3273  C     
7    O       -13.1350   59.8897  -11.5839  O     
8    C       -12.5776   60.4109  -12.8118  C     
9    C       -12.8853   61.9242  -13.0087  C     
10   N       -11.7208   62.8000  -13.3752  N     
11   C       -10.6432   62.8399  -12.3396  C     
12   C       -11.1918   62.5908  -14.7618  C     
13   C       -18.0473   57.2482  -10.9874  C     
14   C       -18.0734   55.8830  -11.1645  C     
15   C       -16.9090   55.1538  -11.4575  C     
16   C       -15.6398   53.5867  -12.8882  C     
17   C       -16.8143   54.3111  -12.5969  C     
18   C       -15.7626   55.2440  -10.6203  C     
19   C       -14.5871   54.5476  -10.9273  C     
20   C       -14.5216   53.7012  -12.0494  C     
21   C       -19.3225   55.0875  -11.0572  C     
22   C       -19.1580   57.9836  -10.5434  C     
23   C       -19.6534   59.0677  -11.3086  C     
24   C       -20.6613   59.9094  -10.8076  C     
25   C       -21.2103   59.6766   -9.5315  C     
26   C       -20.7363   58.6011   -8.7610  C     
27   C       -19.7165   57.7668   -9.2598  C     
28   O       -22.2127   60.4525   -9.0479  O     
29   C       -19.5170   54.1699   -9.7969  C     
30   C       -18.4112   54.1796   -8.7079  C     
31   O       -18.6518   53.2080   -7.6874  O     
32   H       -14.4944   58.5951  -13.5072  H     
33   H       -16.6206   57.5236  -13.2582  H     
34   H       -16.7471   58.7855   -9.2244  H     
35   H       -14.6913   59.9634   -9.5297  H     
36   H       -11.4996   60.2692  -12.7239  H     
37   H       -12.8927   59.8547  -13.7079  H     
38   H       -13.6451   62.0311  -13.7880  H     
39   H       -13.3416   62.3241  -12.0975  H     
40   H       -12.1095   63.7433  -13.3931  H     
41   H       -11.0669   63.1610  -11.3805  H     
42   H        -9.8667   63.5634  -12.6129  H     
43   H       -10.1673   61.8616  -12.1998  H     
44   H       -10.5945   61.6778  -14.8343  H     
45   H       -10.5594   63.4402  -15.0475  H     
46   H       -12.0135   62.5363  -15.4853  H     
47   H       -15.5982   52.9881  -13.7166  H     
48   H       -17.5957   54.2356  -13.2633  H     
49   H       -15.7747   55.8346   -9.7912  H     
50   H       -13.7578   54.6443  -10.3179  H     
51   H       -13.6612   53.1933  -12.2664  H     
52   H       -20.2014   55.7295  -11.1292  H     
53   H       -19.4241   54.4479  -11.9399  H     
54   H       -19.2676   59.2647  -12.2336  H     
55   H       -21.0036   60.6855  -11.3809  H     
56   H       -21.1247   58.4285   -7.8291  H     
57   H       -19.3610   57.0199   -8.6554  H     
58   H       -21.9692   61.3841   -9.2691  H     
59   H       -20.4496   54.4552   -9.2967  H     
60   H       -19.6398   53.1370  -10.1257  H     
61   H       -17.4363   53.9685   -9.1563  H     
62   H       -18.3710   55.1683   -8.2328  H     
63   H       -18.0603   52.4578   -7.9260  H     
@<TRIPOS>BOND
     1    1    2 2
     2    1    6 1
     3    1    7 1
     4    2    3 1
     5    3    4 2
     6    4    5 1
     7    4   13 1
     8    5    6 2
     9    7    8 1
    10    8    9 1
    11    9   10 1
    12   10   11 1
    13   10   12 1
    14   13   14 2
    15   13   22 1
    16   14   15 1
    17   14   21 1
    18   15   17 2
    19   15   18 1
    20   16   17 1
    21   16   20 2
    22   18   19 2
    23   19   20 1
    24   21   29 1
    25   22   23 1
    26   22   27 2
    27   23   24 2
    28   24   25 1
    29   25   26 2
    30   25   28 1
    31   26   27 1
    32   29   30 1
    33   30   31 1
    34    2   32 1
    35    3   33 1
    36    5   34 1
    37    6   35 1
    38    8   36 1
    39    8   37 1
    40    9   38 1
    41    9   39 1
    42   10   40 1
    43   11   41 1
    44   11   42 1
    45   11   43 1
    46   12   44 1
    47   12   45 1
    48   12   46 1
    49   16   47 1
    50   17   48 1
    51   18   49 1
    52   19   50 1
    53   20   51 1
    54   21   52 1
    55   21   53 1
    56   23   54 1
    57   24   55 1
    58   26   56 1
    59   27   57 1
    60   28   58 1
    61   29   59 1
    62   29   60 1
    63   30   61 1
    64   30   62 1
    65   31   63 1
@<TRIPOS>PROPERTY_DATA
  Total_Score	| 10.0920
  Crash		| -3.0429
  Polar		| 4.2257
  FragIndex	| 1
  FragRMSD	| 0.237

