@<TRIPOS>MOLECULE
BindingDB_20608
 59 61 0 0 0
SMALL
NO_CHARGES


@<TRIPOS>ATOM
1    C       -18.0405   55.8836  -11.0830  C     
2    C       -16.8881   55.0869  -11.2492  C     
3    C       -16.7779   54.1477  -12.3053  C     
4    C       -15.6218   53.3591  -12.4553  C     
5    C       -14.5521   53.5082  -11.5573  C     
6    C       -14.6399   54.4358  -10.5044  C     
7    C       -15.8086   55.2035  -10.3388  C     
8    C       -19.3267   55.1484  -11.0613  C     
9    C       -19.5481   54.3194   -9.7742  C     
10   C       -17.9380   57.2340  -10.8861  C     
11   C       -16.7695   57.9612  -11.1933  C     
12   C       -16.1311   58.7719  -10.2159  C     
13   C       -16.2038   57.9111  -12.4909  C     
14   C       -15.0294   58.6195  -12.7905  C     
15   C       -14.4001   59.4100  -11.8099  C     
16   C       -14.9571   59.4827  -10.5221  C     
17   O       -13.2361   60.0595  -12.1258  O     
18   C       -13.3638   61.4697  -12.4132  C     
19   C       -12.4223   61.8471  -13.6023  C     
20   N       -11.4337   62.9736  -13.4508  N     
21   C       -10.5955   62.9148  -12.2189  C     
22   C       -10.5897   63.1156  -14.6825  C     
23   C       -18.9904   58.0010  -10.3570  C     
24   C       -20.4445   58.5956   -8.4727  C     
25   C       -19.4343   57.7930   -9.0295  C     
26   C       -19.5755   59.0559  -11.1079  C     
27   C       -20.5731   59.8647  -10.5426  C     
28   C       -21.0197   59.6340   -9.2266  C     
29   O       -21.9992   60.3873   -8.6658  O     
30   H       -17.5279   54.0321  -12.9892  H     
31   H       -15.5583   52.6939  -13.2275  H     
32   H       -13.7063   52.9468  -11.6749  H     
33   H       -13.8672   54.5516   -9.8494  H     
34   H       -15.8547   55.8553   -9.5505  H     
35   H       -20.1760   55.8145  -11.1845  H     
36   H       -19.3849   54.4746  -11.9148  H     
37   H       -18.8007   53.5313   -9.6836  H     
38   H       -20.5309   53.8573   -9.7985  H     
39   H       -19.4929   54.9533   -8.8921  H     
40   H       -16.4993   58.8243   -9.2632  H     
41   H       -16.6448   57.3540  -13.2279  H     
42   H       -14.6251   58.5563  -13.7260  H     
43   H       -14.5085   60.0506   -9.8030  H     
44   H       -14.3913   61.7453  -12.6824  H     
45   H       -13.1278   62.0221  -11.5067  H     
46   H       -11.8851   60.9441  -13.9206  H     
47   H       -13.0797   62.1244  -14.4371  H     
48   H       -11.9948   63.8244  -13.3858  H     
49   H       -11.1890   63.2639  -11.3656  H     
50   H        -9.7288   63.5815  -12.2781  H     
51   H       -10.2366   61.8936  -12.0130  H     
52   H        -9.9027   62.2603  -14.7749  H     
53   H        -9.9952   64.0332  -14.6377  H     
54   H       -11.2046   63.1713  -15.5929  H     
55   H       -20.7546   58.4215   -7.5147  H     
56   H       -18.9926   57.0791   -8.4465  H     
57   H       -19.2705   59.2375  -12.0701  H     
58   H       -20.9864   60.6192  -11.0964  H     
59   H       -21.8701   61.3014   -8.9995  H     
@<TRIPOS>BOND
     1    1    2 1
     2    1    8 1
     3    1   10 2
     4    2    3 2
     5    2    7 1
     6    3    4 1
     7    4    5 2
     8    5    6 1
     9    6    7 2
    10    8    9 1
    11   10   11 1
    12   10   23 1
    13   11   12 2
    14   11   13 1
    15   12   16 1
    16   13   14 2
    17   14   15 1
    18   15   16 2
    19   15   17 1
    20   17   18 1
    21   18   19 1
    22   19   20 1
    23   20   21 1
    24   20   22 1
    25   23   25 2
    26   23   26 1
    27   24   25 1
    28   24   28 2
    29   26   27 2
    30   27   28 1
    31   28   29 1
    32    3   30 1
    33    4   31 1
    34    5   32 1
    35    6   33 1
    36    7   34 1
    37    8   35 1
    38    8   36 1
    39    9   37 1
    40    9   38 1
    41    9   39 1
    42   12   40 1
    43   13   41 1
    44   14   42 1
    45   16   43 1
    46   18   44 1
    47   18   45 1
    48   19   46 1
    49   19   47 1
    50   20   48 1
    51   21   49 1
    52   21   50 1
    53   21   51 1
    54   22   52 1
    55   22   53 1
    56   22   54 1
    57   24   55 1
    58   25   56 1
    59   26   57 1
    60   27   58 1
    61   29   59 1
@<TRIPOS>PROPERTY_DATA
  Total_Score	| 10.6700
  Crash		| -1.9403
  Polar		| 4.5445
  FragIndex	| 1
  FragRMSD	| 0.432

