@<TRIPOS>MOLECULE
BindingDB_22425
 60 62 0 0 0
SMALL
NO_CHARGES


@<TRIPOS>ATOM
1    C       -14.5375   59.5790  -11.2288  C     
2    C       -15.1346   59.0410  -12.3867  C     
3    C       -16.3153   58.2753  -12.2943  C     
4    C       -16.9055   58.0067  -11.0346  C     
5    C       -16.3097   58.5702   -9.8821  C     
6    C       -15.1309   59.3225   -9.9765  C     
7    O       -13.3395   60.2451  -11.2991  O     
8    C       -13.3818   61.6318  -10.8827  C     
9    C       -11.9384   62.1821  -10.7610  C     
10   N       -11.2998   62.6129  -12.0534  N     
11   C        -9.9609   63.2276  -11.8137  C     
12   C       -11.2328   61.5335  -13.0874  C     
13   C       -18.0932   57.2593  -10.9310  C     
14   C       -18.1093   55.9181  -11.1856  C     
15   C       -16.9159   55.1880  -11.3428  C     
16   C       -15.5361   53.5241  -12.5304  C     
17   C       -16.7263   54.2740  -12.4143  C     
18   C       -15.8674   55.3269  -10.3969  C     
19   C       -14.6676   54.6052  -10.5273  C     
20   C       -14.5002   53.6985  -11.5903  C     
21   C       -19.3423   55.1048  -11.2570  C     
22   C       -19.1911   57.9685  -10.4242  C     
23   C       -19.6950   57.6871   -9.1316  C     
24   C       -20.6882   58.4955   -8.5502  C     
25   C       -21.1766   59.6194   -9.2390  C     
26   C       -20.6728   59.9264  -10.5191  C     
27   C       -19.6860   59.1114  -11.1004  C     
28   O       -22.1065   60.4099   -8.6407  O     
29   C       -19.4981   54.0959  -10.0761  C     
30   C       -20.0103   52.8830  -10.4572  C     
31   N       -20.4275   51.8622  -10.7836  N     
32   H       -14.6956   59.1997  -13.2987  H     
33   H       -16.7199   57.8958  -13.1519  H     
34   H       -16.6997   58.3880   -8.9546  H     
35   H       -14.7018   59.6838   -9.1198  H     
36   H       -13.9445   62.2317  -11.6107  H     
37   H       -13.8790   61.7303   -9.9060  H     
38   H       -11.9919   63.0583  -10.1030  H     
39   H       -11.3046   61.4493  -10.2431  H     
40   H       -11.8984   63.3635  -12.4112  H     
41   H       -10.0374   64.0574  -11.1016  H     
42   H        -9.5657   63.6392  -12.7463  H     
43   H        -9.2555   62.4919  -11.4204  H     
44   H       -10.6358   60.6847  -12.7310  H     
45   H       -10.7804   61.9284  -14.0036  H     
46   H       -12.2425   61.1812  -13.3407  H     
47   H       -15.4162   52.8691  -13.3068  H     
48   H       -17.4458   54.1391  -13.1273  H     
49   H       -15.9643   55.9473   -9.5940  H     
50   H       -13.9147   54.7413   -9.8450  H     
51   H       -13.6338   53.1639  -11.6798  H     
52   H       -20.2359   55.7386  -11.2887  H     
53   H       -19.3638   54.5736  -12.2146  H     
54   H       -19.3106   56.9129   -8.5809  H     
55   H       -21.0331   58.2812   -7.6081  H     
56   H       -21.0098   60.7527  -11.0175  H     
57   H       -19.3118   59.3728  -12.0141  H     
58   H       -21.9693   61.3231   -8.9731  H     
59   H       -18.5379   53.8875   -9.5995  H     
60   H       -20.1620   54.5112   -9.3153  H     
@<TRIPOS>BOND
     1    1    2 2
     2    1    6 1
     3    1    7 1
     4    2    3 1
     5    3    4 2
     6    4    5 1
     7    4   13 1
     8    5    6 2
     9    7    8 1
    10    8    9 1
    11    9   10 1
    12   10   11 1
    13   10   12 1
    14   13   14 2
    15   13   22 1
    16   14   15 1
    17   14   21 1
    18   15   17 2
    19   15   18 1
    20   16   17 1
    21   16   20 2
    22   18   19 2
    23   19   20 1
    24   21   29 1
    25   22   23 1
    26   22   27 2
    27   23   24 2
    28   24   25 1
    29   25   26 2
    30   25   28 1
    31   26   27 1
    32   29   30 1
    33   30   31 3
    34    2   32 1
    35    3   33 1
    36    5   34 1
    37    6   35 1
    38    8   36 1
    39    8   37 1
    40    9   38 1
    41    9   39 1
    42   10   40 1
    43   11   41 1
    44   11   42 1
    45   11   43 1
    46   12   44 1
    47   12   45 1
    48   12   46 1
    49   16   47 1
    50   17   48 1
    51   18   49 1
    52   19   50 1
    53   20   51 1
    54   21   52 1
    55   21   53 1
    56   23   54 1
    57   24   55 1
    58   26   56 1
    59   27   57 1
    60   28   58 1
    61   29   59 1
    62   29   60 1
@<TRIPOS>PROPERTY_DATA
  Total_Score	| 11.2152
  Crash		| -1.7719
  Polar		| 3.6377
  FragIndex	| 1
  FragRMSD	| 0.309

