@<TRIPOS>MOLECULE
BindingDB_22427
 62 64 0 0 0
SMALL
NO_CHARGES


@<TRIPOS>ATOM
1    C       -14.4113   59.3624  -11.9048  C     
2    C       -15.1522   58.6583  -12.8761  C     
3    C       -16.3500   58.0073  -12.5239  C     
4    C       -16.8238   58.0158  -11.1881  C     
5    C       -16.0704   58.7281  -10.2217  C     
6    C       -14.8782   59.3908  -10.5738  C     
7    O       -13.1802   59.8993  -12.2130  O     
8    C       -13.1806   61.3099  -12.5248  C     
9    C       -11.7281   61.8423  -12.2808  C     
10   N       -11.3096   62.9718  -13.1757  N     
11   C       -10.1678   63.7496  -12.6087  C     
12   C       -10.9938   62.5385  -14.5713  C     
13   C       -17.9783   57.3064  -10.8052  C     
14   C       -18.0788   55.9401  -10.9102  C     
15   C       -16.9424   55.1433  -11.1421  C     
16   C       -14.6631   54.4624  -10.5285  C     
17   C       -15.8059   55.2480  -10.3029  C     
18   C       -16.8920   54.2307  -12.2320  C     
19   C       -15.7549   53.4258  -12.4465  C     
20   C       -14.6373   53.5472  -11.6005  C     
21   C       -19.3553   55.1945  -10.7264  C     
22   C       -19.0225   58.1108  -10.3194  C     
23   C       -19.6814   59.0238  -11.1833  C     
24   C       -20.7541   59.8115  -10.7193  C     
25   C       -21.2023   59.6825   -9.3928  C     
26   C       -20.5432   58.7979   -8.5152  C     
27   C       -19.4456   58.0397   -8.9715  C     
28   O       -22.3021   60.3611   -8.9594  O     
29   C       -19.5586   54.6244   -9.2974  C     
30   N       -18.5462   53.7452   -8.9280  N     
31   N       -18.5237   53.1762   -7.9087  N     
32   N       -18.4774   52.6084   -6.8940  N     
33   H       -14.8099   58.6165  -13.8393  H     
34   H       -16.8748   57.5279  -13.2652  H     
35   H       -16.3759   58.7569   -9.2464  H     
36   H       -14.3386   59.8810   -9.8541  H     
37   H       -13.4970   61.4825  -13.5441  H     
38   H       -13.8690   61.8612  -11.8555  H     
39   H       -11.6769   62.1755  -11.2376  H     
40   H       -11.0093   61.0111  -12.3803  H     
41   H       -12.1007   63.6178  -13.2255  H     
42   H       -10.4209   64.1803  -11.6354  H     
43   H        -9.9004   64.5800  -13.2656  H     
44   H        -9.2868   63.1124  -12.4818  H     
45   H       -10.1575   61.8272  -14.5764  H     
46   H       -10.7346   63.3856  -15.2146  H     
47   H       -11.8479   62.0338  -15.0176  H     
48   H       -13.8395   54.5714   -9.9409  H     
49   H       -15.8024   55.8958   -9.5191  H     
50   H       -17.6670   54.1593  -12.8914  H     
51   H       -15.7288   52.7741  -13.2366  H     
52   H       -13.7995   52.9789  -11.7731  H     
53   H       -20.2068   55.8279  -10.9680  H     
54   H       -19.4147   54.3578  -11.4311  H     
55   H       -19.3925   59.1119  -12.1642  H     
56   H       -21.2336   60.4436  -11.3550  H     
57   H       -20.8599   58.7073   -7.5444  H     
58   H       -18.9427   57.4486   -8.2968  H     
59   H       -22.1568   61.2883   -9.2329  H     
60   H       -19.5941   55.4487   -8.5725  H     
61   H       -20.5142   54.1004   -9.2421  H     
62   H       -19.2258   52.6281   -6.3261  H     
@<TRIPOS>BOND
     1    1    2 2
     2    1    6 1
     3    1    7 1
     4    2    3 1
     5    3    4 2
     6    4    5 1
     7    4   13 1
     8    5    6 2
     9    7    8 1
    10    8    9 1
    11    9   10 1
    12   10   11 1
    13   10   12 1
    14   13   14 2
    15   13   22 1
    16   14   15 1
    17   14   21 1
    18   15   17 2
    19   15   18 1
    20   16   17 1
    21   16   20 2
    22   18   19 2
    23   19   20 1
    24   21   29 1
    25   22   23 1
    26   22   27 2
    27   23   24 2
    28   24   25 1
    29   25   26 2
    30   25   28 1
    31   26   27 1
    32   29   30 1
    33   30   31 2
    34   31   32 2
    35    2   33 1
    36    3   34 1
    37    5   35 1
    38    6   36 1
    39    8   37 1
    40    8   38 1
    41    9   39 1
    42    9   40 1
    43   10   41 1
    44   11   42 1
    45   11   43 1
    46   11   44 1
    47   12   45 1
    48   12   46 1
    49   12   47 1
    50   16   48 1
    51   17   49 1
    52   18   50 1
    53   19   51 1
    54   20   52 1
    55   21   53 1
    56   21   54 1
    57   23   55 1
    58   24   56 1
    59   26   57 1
    60   27   58 1
    61   28   59 1
    62   29   60 1
    63   29   61 1
    64   32   62 1
@<TRIPOS>PROPERTY_DATA
  Total_Score	| 10.7259
  Crash		| -2.8304
  Polar		| 4.1739
  FragIndex	| 1
  FragRMSD	| 0.304

