@<TRIPOS>MOLECULE
BindingDB_22423
 59 61 0 0 0
SMALL
NO_CHARGES


@<TRIPOS>ATOM
1    C       -14.4756   59.3990  -11.8358  C     
2    C       -15.0737   59.4691  -10.5591  C     
3    C       -16.2806   58.7951  -10.2916  C     
4    C       -16.9170   58.0192  -11.2979  C     
5    C       -16.3362   58.0014  -12.5916  C     
6    C       -15.1290   58.6715  -12.8565  C     
7    O       -13.2186   59.8862  -12.0665  O     
8    C       -13.1044   61.2887  -12.4338  C     
9    C       -11.7620   61.5106  -13.1809  C     
10   N       -11.2486   62.9296  -13.1539  N     
11   C       -10.5752   63.2743  -11.8651  C     
12   C       -10.3631   63.2549  -14.3115  C     
13   C       -18.0824   57.2710  -11.0288  C     
14   C       -18.1384   55.9193  -11.2449  C     
15   C       -16.9549   55.1721  -11.4026  C     
16   C       -14.7052   54.5947  -10.5921  C     
17   C       -15.8903   55.3463  -10.4805  C     
18   C       -16.7948   54.2044  -12.4303  C     
19   C       -15.6110   53.4451  -12.5329  C     
20   C       -14.5637   53.6412  -11.6158  C     
21   C       -19.3931   55.1416  -11.3527  C     
22   C       -19.1502   57.9956  -10.4720  C     
23   C       -19.6518   57.6888   -9.1795  C     
24   C       -20.6485   58.4830   -8.5770  C     
25   C       -21.1687   59.6044   -9.2581  C     
26   C       -20.6871   59.9191  -10.5427  C     
27   C       -19.7006   59.1226  -11.1466  C     
28   O       -22.1101   60.3782   -8.6673  O     
29   C       -19.5711   54.0619  -10.2404  C     
30   Cl      -20.2528   52.5730  -10.8947  Cl    
31   H       -14.6027   59.9768   -9.8103  H     
32   H       -16.6572   58.8208   -9.3396  H     
33   H       -16.7827   57.4712  -13.3508  H     
34   H       -14.7133   58.5943  -13.7821  H     
35   H       -13.9314   61.6047  -13.0823  H     
36   H       -13.1446   61.8832  -11.5185  H     
37   H       -10.9882   60.8342  -12.7932  H     
38   H       -11.9451   61.1746  -14.2111  H     
39   H       -12.0474   63.5726  -13.2240  H     
40   H       -11.2643   63.1692  -11.0243  H     
41   H       -10.2276   64.3136  -11.8760  H     
42   H        -9.7102   62.6169  -11.6904  H     
43   H        -9.4618   62.6337  -14.2946  H     
44   H       -10.0645   64.3044  -14.2976  H     
45   H       -10.8852   63.0826  -15.2581  H     
46   H       -13.9442   54.7455   -9.9235  H     
47   H       -15.9644   56.0251   -9.7203  H     
48   H       -17.5263   54.0612  -13.1309  H     
49   H       -15.5147   52.7550  -13.2800  H     
50   H       -13.7087   53.0884  -11.6845  H     
51   H       -20.2672   55.7904  -11.3404  H     
52   H       -19.4157   54.6639  -12.3361  H     
53   H       -19.2638   56.9083   -8.6463  H     
54   H       -20.9924   58.2485   -7.6411  H     
55   H       -21.0589   60.7299  -11.0455  H     
56   H       -19.3507   59.3885  -12.0682  H     
57   H       -21.9148   61.3070   -8.9386  H     
58   H       -18.6275   53.7830   -9.7751  H     
59   H       -20.2367   54.4289   -9.4618  H     
@<TRIPOS>BOND
     1    1    2 2
     2    1    6 1
     3    1    7 1
     4    2    3 1
     5    3    4 2
     6    4    5 1
     7    4   13 1
     8    5    6 2
     9    7    8 1
    10    8    9 1
    11    9   10 1
    12   10   11 1
    13   10   12 1
    14   13   14 2
    15   13   22 1
    16   14   15 1
    17   14   21 1
    18   15   17 2
    19   15   18 1
    20   16   17 1
    21   16   20 2
    22   18   19 2
    23   19   20 1
    24   21   29 1
    25   22   23 1
    26   22   27 2
    27   23   24 2
    28   24   25 1
    29   25   26 2
    30   25   28 1
    31   26   27 1
    32   29   30 1
    33    2   31 1
    34    3   32 1
    35    5   33 1
    36    6   34 1
    37    8   35 1
    38    8   36 1
    39    9   37 1
    40    9   38 1
    41   10   39 1
    42   11   40 1
    43   11   41 1
    44   11   42 1
    45   12   43 1
    46   12   44 1
    47   12   45 1
    48   16   46 1
    49   17   47 1
    50   18   48 1
    51   19   49 1
    52   20   50 1
    53   21   51 1
    54   21   52 1
    55   23   53 1
    56   24   54 1
    57   26   55 1
    58   27   56 1
    59   28   57 1
    60   29   58 1
    61   29   59 1
@<TRIPOS>PROPERTY_DATA
  Total_Score	| 10.2938
  Crash		| -2.0825
  Polar		| 4.0980
  FragIndex	| 1
  FragRMSD	| 0.446

