@<TRIPOS>MOLECULE
BindingDB_22434
 60 62 0 0 0
SMALL
NO_CHARGES


@<TRIPOS>ATOM
1    C       -14.3646   59.2587  -11.9307  C     
2    C       -14.9128   59.3415  -10.6369  C     
3    C       -16.1385   58.7218  -10.3450  C     
4    C       -16.8293   57.9810  -11.3354  C     
5    C       -16.2872   57.9404  -12.6440  C     
6    C       -15.0592   58.5589  -12.9351  C     
7    O       -13.1140   59.7365  -12.1879  O     
8    C       -13.0504   61.1475  -12.4256  C     
9    C       -11.5417   61.5289  -12.5293  C     
10   N       -11.2728   62.8517  -13.1725  N     
11   C        -9.8719   63.3199  -12.9408  C     
12   C       -11.6170   62.8734  -14.6309  C     
13   C       -17.9843   57.2411  -11.0082  C     
14   C       -18.0265   55.8818  -11.1607  C     
15   C       -16.8409   55.1224  -11.3146  C     
16   C       -14.5592   54.6029  -10.5500  C     
17   C       -15.7642   55.3162  -10.4107  C     
18   C       -16.6815   54.1541  -12.3407  C     
19   C       -15.4769   53.4286  -12.4718  C     
20   C       -14.4128   53.6539  -11.5812  C     
21   C       -19.2816   55.1003  -11.1390  C     
22   C       -19.0484   57.9897  -10.4645  C     
23   C       -19.5460   57.6975   -9.1697  C     
24   C       -20.5565   58.4900   -8.5847  C     
25   C       -21.0860   59.5942   -9.2792  C     
26   C       -20.5922   59.9062  -10.5607  C     
27   C       -19.5868   59.1122  -11.1455  C     
28   O       -22.0431   60.3444   -8.6820  O     
29   C       -19.3922   54.0810   -9.9684  C     
30   O       -20.3078   54.5151   -8.9724  O     
31   H       -14.4003   59.8248   -9.8912  H     
32   H       -16.4867   58.7643   -9.3821  H     
33   H       -16.7623   57.4197  -13.3885  H     
34   H       -14.6499   58.4594  -13.8687  H     
35   H       -13.5613   61.3923  -13.3606  H     
36   H       -13.5026   61.7136  -11.6033  H     
37   H       -11.1511   61.5042  -11.5009  H     
38   H       -11.0224   60.7278  -13.0778  H     
39   H       -11.8800   63.5298  -12.7167  H     
40   H        -9.6600   63.3855  -11.8722  H     
41   H        -9.7333   64.3112  -13.3644  H     
42   H        -9.1541   62.6386  -13.4004  H     
43   H       -11.0281   62.1378  -15.1824  H     
44   H       -11.4287   63.8591  -15.0533  H     
45   H       -12.6763   62.6512  -14.7821  H     
46   H       -13.7779   54.7873   -9.9080  H     
47   H       -15.8413   55.9847   -9.6416  H     
48   H       -17.4211   53.9990  -13.0270  H     
49   H       -15.3683   52.7494  -13.2270  H     
50   H       -13.5252   53.1488  -11.6957  H     
51   H       -20.1517   55.7545  -11.1191  H     
52   H       -19.3735   54.5560  -12.0826  H     
53   H       -19.1532   56.9236   -8.6271  H     
54   H       -20.8862   58.2704   -7.6440  H     
55   H       -20.9546   60.7130  -11.0718  H     
56   H       -19.2350   59.3707  -12.0766  H     
57   H       -21.8622   61.2907   -8.9166  H     
58   H       -19.7380   53.1159  -10.3385  H     
59   H       -18.4334   53.9186   -9.4710  H     
60   H       -21.1953   54.3207   -9.3425  H     
@<TRIPOS>BOND
     1    1    2 2
     2    1    6 1
     3    1    7 1
     4    2    3 1
     5    3    4 2
     6    4    5 1
     7    4   13 1
     8    5    6 2
     9    7    8 1
    10    8    9 1
    11    9   10 1
    12   10   11 1
    13   10   12 1
    14   13   14 2
    15   13   22 1
    16   14   15 1
    17   14   21 1
    18   15   17 2
    19   15   18 1
    20   16   17 1
    21   16   20 2
    22   18   19 2
    23   19   20 1
    24   21   29 1
    25   22   23 1
    26   22   27 2
    27   23   24 2
    28   24   25 1
    29   25   26 2
    30   25   28 1
    31   26   27 1
    32   29   30 1
    33    2   31 1
    34    3   32 1
    35    5   33 1
    36    6   34 1
    37    8   35 1
    38    8   36 1
    39    9   37 1
    40    9   38 1
    41   10   39 1
    42   11   40 1
    43   11   41 1
    44   11   42 1
    45   12   43 1
    46   12   44 1
    47   12   45 1
    48   16   46 1
    49   17   47 1
    50   18   48 1
    51   19   49 1
    52   20   50 1
    53   21   51 1
    54   21   52 1
    55   23   53 1
    56   24   54 1
    57   26   55 1
    58   27   56 1
    59   28   57 1
    60   29   58 1
    61   29   59 1
    62   30   60 1
@<TRIPOS>PROPERTY_DATA
  Total_Score	| 11.2064
  Crash		| -1.3469
  Polar		| 4.5893
  FragIndex	| 1
  FragRMSD	| 0.195

