@<TRIPOS>MOLECULE
BindingDB_11454
 52 55 0 0 0
SMALL
NO_CHARGES


@<TRIPOS>ATOM
1    C         8.3354   -9.5901    8.9221  C     
2    C         9.3687   -9.6319    9.8726  C     
3    C         9.7228  -10.8460   10.5086  C     
4    C         8.9609  -11.9998   10.2186  C     
5    C         7.9358  -11.9650    9.2527  C     
6    C         7.6264  -10.7606    8.5885  C     
7    N        10.7466  -10.9751   11.3962  N     
8    C        11.8110  -10.1791   11.6014  C     
9    C        12.4093   -9.4785   10.6085  C     
10   C        13.5694   -8.7385   10.8311  C     
11   C        13.4910   -9.4259   13.0820  C     
12   C        12.9069  -10.3927   14.8751  C     
13   N        14.0773   -8.7051   12.0951  N     
14   N        12.3946  -10.1700   12.8221  N     
15   N        12.0344  -10.7645   13.9212  N     
16   N        13.8265   -9.5566   14.3705  N     
17   S         6.3791  -10.6742    7.3759  S     
18   O         5.4012  -11.9275    7.3482  O     
19   O         5.5053   -9.3833    7.6877  O     
20   N        14.2817   -8.0782    9.8842  N     
21   C        14.3074   -8.1785    8.4388  C     
22   C        15.4749   -7.2505    7.9649  C     
23   C        15.1362   -5.7471    8.1930  C     
24   C        13.7833   -5.3186    7.5495  C     
25   C        12.6280   -6.3220    7.8551  C     
26   C        13.0464   -7.7944    7.5900  C     
27   N        13.9485   -5.1238    6.0990  N     
28   C         7.0967  -10.4431    5.7397  C     
29   H         8.1084   -8.6984    8.4748  H     
30   H         9.8422   -8.7586   10.1127  H     
31   H         9.1770  -12.8882   10.6792  H     
32   H         7.4240  -12.8234    9.0358  H     
33   H        10.7204  -11.7799   11.9377  H     
34   H        12.0196   -9.4576    9.7199  H     
35   H        12.8672  -10.6921   15.8494  H     
36   H        15.0022   -7.5415   10.2481  H     
37   H        14.5711   -9.2125    8.1929  H     
38   H        16.3950   -7.4896    8.5061  H     
39   H        15.6799   -7.4193    6.9032  H     
40   H        15.0873   -5.5529    9.2680  H     
41   H        15.9473   -5.1301    7.7963  H     
42   H        13.5093   -4.3427    7.9621  H     
43   H        12.3305   -6.2225    8.9026  H     
44   H        11.7564   -6.0749    7.2418  H     
45   H        13.3041   -7.8858    6.5307  H     
46   H        12.2045   -8.4830    7.7142  H     
47   H        14.8051   -4.5930    5.9235  H     
48   H        13.1540   -4.5963    5.7273  H     
49   H        14.0146   -6.0296    5.6285  H     
50   H         7.7010   -9.5359    5.7273  H     
51   H         6.2982  -10.3545    5.0023  H     
52   H         7.7245  -11.2990    5.4922  H     
@<TRIPOS>BOND
     1    1    2 2
     2    1    6 1
     3    2    3 1
     4    3    4 2
     5    3    7 1
     6    4    5 1
     7    5    6 2
     8    6   17 1
     9    7    8 1
    10    8    9 2
    11    8   14 1
    12    9   10 1
    13   10   13 2
    14   10   20 1
    15   11   13 1
    16   11   14 1
    17   11   16 2
    18   12   15 2
    19   12   16 1
    20   14   15 1
    21   17   18 2
    22   17   19 2
    23   17   28 1
    24   21   20 1
    25   21   22 1
    26   21   26 1
    27   22   23 1
    28   23   24 1
    29   24   25 1
    30   24   27 1
    31   25   26 1
    32    1   29 1
    33    2   30 1
    34    4   31 1
    35    5   32 1
    36    7   33 1
    37    9   34 1
    38   12   35 1
    39   20   36 1
    40   21   37 1
    41   22   38 1
    42   22   39 1
    43   23   40 1
    44   23   41 1
    45   24   42 1
    46   25   43 1
    47   25   44 1
    48   26   45 1
    49   26   46 1
    50   27   47 1
    51   27   48 1
    52   27   49 1
    53   28   50 1
    54   28   51 1
    55   28   52 1
@<TRIPOS>PROPERTY_DATA
  Total_Score	| 10.0540
  Crash		| -1.4782
  Polar		| 5.1372
  FragIndex	| 1
  FragRMSD	| 0.601

