@<TRIPOS>MOLECULE
BindingDB_5595
 50 52 0 0 0
SMALL
NO_CHARGES


@<TRIPOS>ATOM
1    C        13.1958   -8.7501   11.7170  C     
2    C        11.5786  -10.4639   12.1157  C     
3    C        13.1497   -9.9340   13.8223  C     
4    C        13.7217   -8.9175   13.0163  C     
5    N        12.1570   -9.5335   11.3171  N     
6    N        12.1032  -10.6607   13.3514  N     
7    O        13.7569   -7.8344   10.8554  O     
8    N        13.5978  -10.2252   15.0567  N     
9    N        10.5086  -11.2060   11.7463  N     
10   C        12.8744   -7.1217    9.9553  C     
11   C        13.2022   -7.4161    8.4613  C     
12   C        14.0025   -6.2641    7.7843  C     
13   C        14.2530   -6.5594    6.2805  C     
14   C        14.9740   -7.9160    6.0682  C     
15   C        14.2213   -9.0808    6.7684  C     
16   C        13.9430   -8.7770    8.2653  C     
17   C         9.7102  -11.0751   10.6455  C     
18   C         8.4812   -9.7603    8.9782  C     
19   C         7.8447  -10.9262    8.5042  C     
20   C         8.1447  -12.1664    9.1031  C     
21   C         9.0599  -12.2357   10.1714  C     
22   C         9.3977   -9.8334   10.0430  C     
23   N         7.3988  -10.6400    5.6869  N     
24   S         6.6946  -10.8124    7.2019  S     
25   O         5.6037  -11.9663    7.1404  O     
26   O         5.8244   -9.5044    7.4463  O     
27   N        14.7100   -8.0797   13.4045  N     
28   O        15.0379   -7.7970   14.5250  O     
29   H        13.1808  -10.9189   15.5931  H     
30   H        14.3573   -9.7498   15.4220  H     
31   H        10.2381  -11.9005   12.3651  H     
32   H        11.8164   -7.3500   10.1130  H     
33   H        12.9890   -6.0537   10.1555  H     
34   H        12.2396   -7.4841    7.9396  H     
35   H        13.4393   -5.3299    7.8631  H     
36   H        14.9605   -6.1244    8.2944  H     
37   H        13.2968   -6.5713    5.7492  H     
38   H        14.8550   -5.7542    5.8560  H     
39   H        15.0481   -8.1245    4.9975  H     
40   H        15.9915   -7.8500    6.4665  H     
41   H        13.2719   -9.2634    6.2551  H     
42   H        14.8220   -9.9939    6.6923  H     
43   H        14.9001   -8.7590    8.7980  H     
44   H        13.3422   -9.5886    8.6858  H     
45   H         8.2691   -8.8469    8.5678  H     
46   H         7.6899  -13.0225    8.7781  H     
47   H         9.2457  -13.1435   10.6083  H     
48   H         9.7950   -8.9642   10.4035  H     
49   H         7.3014   -9.8044    5.2023  H     
50   H         7.8147  -11.4052    5.2559  H     
@<TRIPOS>BOND
     1    1    4 1
     2    1    5 2
     3    1    7 1
     4    2    5 1
     5    2    6 2
     6    2    9 1
     7    3    4 2
     8    3    6 1
     9    3    8 1
    10    4   27 1
    11    7   10 1
    12    9   17 1
    13   10   11 1
    14   11   12 1
    15   11   16 1
    16   12   13 1
    17   13   14 1
    18   14   15 1
    19   15   16 1
    20   17   21 2
    21   17   22 1
    22   18   19 1
    23   18   22 2
    24   19   20 2
    25   19   24 1
    26   20   21 1
    27   23   24 am
    28   24   25 2
    29   24   26 2
    30   27   28 2
    31    8   29 1
    32    8   30 1
    33    9   31 1
    34   10   32 1
    35   10   33 1
    36   11   34 1
    37   12   35 1
    38   12   36 1
    39   13   37 1
    40   13   38 1
    41   14   39 1
    42   14   40 1
    43   15   41 1
    44   15   42 1
    45   16   43 1
    46   16   44 1
    47   18   45 1
    48   20   46 1
    49   21   47 1
    50   22   48 1
    51   23   49 1
    52   23   50 1
@<TRIPOS>PROPERTY_DATA
  Total_Score	| 9.1412
  Crash		| -1.0881
  Polar		| 4.3304
  FragIndex	| 1
  FragRMSD	| 0.743

