@<TRIPOS>MOLECULE
BindingDB_11435
 66 69 0 0 0
SMALL
NO_CHARGES


@<TRIPOS>ATOM
1    C        11.7095  -10.1824   11.4346  C     
2    C        12.3201   -9.3054   10.5860  C     
3    C        13.3815   -8.4811   10.9997  C     
4    C        13.3047   -9.4203   13.0452  C     
5    C        13.5817   -9.7687   14.3663  C     
6    C        12.6033  -10.6767   14.7416  C     
7    N        10.5699  -10.9932   11.1581  N     
8    C         9.5760  -10.9036   10.2487  C     
9    C         8.6513  -11.9739   10.1322  C     
10   C         9.4320   -9.8641    9.2715  C     
11   C         8.6885  -10.0194    8.1023  C     
12   C         7.6577  -10.9634    8.1124  C     
13   C         7.6512  -12.0055    9.1058  C     
14   S         6.3733  -10.6733    6.9418  S     
15   O         5.4062  -11.9187    7.2285  O     
16   O         5.5149   -9.4017    7.4322  O     
17   N         6.7536  -10.5174    5.2846  N     
18   C         6.7528   -9.1845    4.7097  C     
19   C         6.3737  -11.5986    4.4264  C     
20   N        12.2000  -10.1833   12.6866  N     
21   N        13.9138   -8.5635   12.2218  N     
22   N        11.8007  -10.8883   13.7000  N     
23   C        14.7988   -7.9670    9.1735  C     
24   C        15.3212   -6.6950    8.4609  C     
25   C        14.3906   -9.0712    8.1410  C     
26   C        13.4105   -8.5498    7.0659  C     
27   C        13.9164   -7.2507    6.3766  C     
28   C        14.3177   -6.1584    7.4093  C     
29   C        14.7440   -9.2835   15.0754  C     
30   C        16.0221   -9.9184   14.4687  C     
31   C        14.8294   -7.7356   15.1774  C     
32   N        15.0344   -7.5573    5.4827  N     
33   O        13.7474   -7.5627   10.1012  O     
34   H        11.7243   -9.2342    9.7409  H     
35   H        12.5362  -11.1065   15.6518  H     
36   H        10.4903  -11.8096   11.7709  H     
37   H         8.6976  -12.7532   10.8689  H     
38   H        10.1205   -8.9059    9.2856  H     
39   H         8.9403   -9.3531    7.3473  H     
40   H         6.9171  -12.7275    9.0815  H     
41   H         5.7315   -8.8518    4.6442  H     
42   H         7.2348   -9.2418    3.7167  H     
43   H         7.2131   -8.3258    5.2052  H     
44   H         6.4766  -12.5988    4.8543  H     
45   H         7.0169  -11.5915    3.5378  H     
46   H         5.3280  -11.4665    4.1175  H     
47   H        15.6044   -8.3455    9.8013  H     
48   H        15.5159   -5.9232    9.2066  H     
49   H        16.2745   -6.9249    7.9722  H     
50   H        15.3015   -9.4145    7.6373  H     
51   H        13.9605   -9.9453    8.6457  H     
52   H        13.2561   -9.3170    6.3035  H     
53   H        12.4482   -8.3425    7.5294  H     
54   H        13.1061   -6.8563    5.7533  H     
55   H        13.4136   -5.8203    7.9226  H     
56   H        14.7433   -5.2909    6.8927  H     
57   H        14.6176   -9.6655   16.0711  H     
58   H        16.2764  -10.8603   14.9347  H     
59   H        16.8615   -9.2586   14.6402  H     
60   H        15.8998  -10.1159   13.3955  H     
61   H        15.1217   -7.3109   14.2181  H     
62   H        15.5864   -7.4605   15.9100  H     
63   H        13.8664   -7.3085   15.4702  H     
64   H        15.8076   -7.9332    6.0318  H     
65   H        15.3270   -6.7054    5.0034  H     
66   H        14.7386   -8.2468    4.7912  H     
@<TRIPOS>BOND
     1    1    2 2
     2    1    7 1
     3    1   20 1
     4    2    3 1
     5    3   21 2
     6    3   33 1
     7    4    5 2
     8    4   20 1
     9    4   21 1
    10    5    6 1
    11    5   29 1
    12    6   22 2
    13    7    8 1
    14    8    9 1
    15    8   10 2
    16    9   13 2
    17   10   11 1
    18   11   12 2
    19   12   13 1
    20   12   14 1
    21   14   15 2
    22   14   16 2
    23   14   17 1
    24   17   18 1
    25   17   19 1
    26   20   22 1
    27   23   24 1
    28   23   25 1
    29   23   33 1
    30   24   28 1
    31   25   26 1
    32   26   27 1
    33   27   28 1
    34   27   32 1
    35   29   30 1
    36   29   31 1
    37    2   34 1
    38    6   35 1
    39    7   36 1
    40    9   37 1
    41   10   38 1
    42   11   39 1
    43   13   40 1
    44   18   41 1
    45   18   42 1
    46   18   43 1
    47   19   44 1
    48   19   45 1
    49   19   46 1
    50   23   47 1
    51   24   48 1
    52   24   49 1
    53   25   50 1
    54   25   51 1
    55   26   52 1
    56   26   53 1
    57   27   54 1
    58   28   55 1
    59   28   56 1
    60   29   57 1
    61   30   58 1
    62   30   59 1
    63   30   60 1
    64   31   61 1
    65   31   62 1
    66   31   63 1
    67   32   64 1
    68   32   65 1
    69   32   66 1
@<TRIPOS>PROPERTY_DATA
  Total_Score	| 3.4040
  Crash		| -10.7373
  Polar		| 3.5256
  FragIndex	| 1
  FragRMSD	| 0.895

