@<TRIPOS>MOLECULE
BindingDB_5544
 50 53 0 0 0
SMALL
NO_CHARGES


@<TRIPOS>ATOM
1    C        13.2088   -8.8190   11.6294  C     
2    C        11.4630  -10.4446   11.9441  C     
3    N        11.9398  -10.7398   13.1877  N     
4    N        12.1101   -9.4982   11.1954  N     
5    C        13.6792   -9.1342   12.9125  C     
6    C        13.0297  -10.1002   13.6709  C     
7    C        14.6759   -9.3028   14.8068  C     
8    N        14.6928   -8.6399   13.6347  N     
9    N        13.6688  -10.1912   14.8416  N     
10   O        13.8819   -7.8525   10.9231  O     
11   N        10.3659  -11.1328   11.5520  N     
12   C        13.2007   -7.1316    9.8738  C     
13   C        13.3660   -7.7663    8.4572  C     
14   C        14.5457   -7.7049    5.6695  C     
15   C        13.0644   -7.3243    5.9213  C     
16   C        12.8435   -6.7867    7.3576  C     
17   C        14.8497   -8.1652    8.1790  C     
18   C        15.0631   -8.7021    6.7368  C     
19   C         9.6187  -11.0720   10.4134  C     
20   C         8.7521  -10.0219    8.3707  C     
21   C         7.8974  -11.1223    8.1442  C     
22   C         7.9033  -12.1950    9.0605  C     
23   C         8.7523  -12.1667   10.1817  C     
24   C         9.5955   -9.9951    9.4932  C     
25   N         7.6861  -11.8567    5.4530  N     
26   S         6.8633  -11.1636    6.7416  S     
27   O         5.5093  -11.9560    7.0107  O     
28   O         6.5140   -9.6635    6.3397  O     
29   H        15.3270   -9.1401   15.5707  H     
30   H        13.4392  -10.7774   15.5883  H     
31   H        10.0642  -11.7985   12.1878  H     
32   H        12.1372   -7.0045   10.1108  H     
33   H        13.6386   -6.1343    9.8594  H     
34   H        12.7562   -8.6758    8.4148  H     
35   H        14.6410   -8.1549    4.6782  H     
36   H        15.1638   -6.8025    5.6844  H     
37   H        12.7659   -6.5555    5.1999  H     
38   H        12.4304   -8.2001    5.7614  H     
39   H        11.7729   -6.6052    7.5045  H     
40   H        13.3561   -5.8242    7.4475  H     
41   H        15.4977   -7.2967    8.3279  H     
42   H        15.1615   -8.9384    8.8859  H     
43   H        14.5388   -9.6569    6.6248  H     
44   H        16.1262   -8.8796    6.5692  H     
45   H         8.7713   -9.2285    7.7180  H     
46   H         7.2890  -13.0048    8.9218  H     
47   H         8.7331  -12.9556   10.8338  H     
48   H        10.1684   -9.1622    9.6345  H     
49   H         7.4733  -11.5760    4.5485  H     
50   H         8.4773  -12.3929    5.6182  H     
@<TRIPOS>BOND
     1    1    4 1
     2    1    5 2
     3    1   10 1
     4    2    3 1
     5    2    4 2
     6    2   11 1
     7    3    6 2
     8    5    6 1
     9    5    8 1
    10    6    9 1
    11    7    8 2
    12    7    9 1
    13   10   12 1
    14   11   19 1
    15   12   13 1
    16   13   16 1
    17   13   17 1
    18   14   15 1
    19   14   18 1
    20   15   16 1
    21   17   18 1
    22   19   23 1
    23   19   24 2
    24   20   21 2
    25   20   24 1
    26   21   22 1
    27   21   26 1
    28   22   23 2
    29   25   26 am
    30   26   27 2
    31   26   28 2
    32    7   29 1
    33    9   30 1
    34   11   31 1
    35   12   32 1
    36   12   33 1
    37   13   34 1
    38   14   35 1
    39   14   36 1
    40   15   37 1
    41   15   38 1
    42   16   39 1
    43   16   40 1
    44   17   41 1
    45   17   42 1
    46   18   43 1
    47   18   44 1
    48   20   45 1
    49   22   46 1
    50   23   47 1
    51   24   48 1
    52   25   49 1
    53   25   50 1
@<TRIPOS>PROPERTY_DATA
  Total_Score	| 10.3396
  Crash		| -0.6273
  Polar		| 4.5984
  FragIndex	| 1
  FragRMSD	| 0.796

