@<TRIPOS>MOLECULE
BindingDB_11438
 54 56 0 0 0
SMALL
NO_CHARGES


@<TRIPOS>ATOM
1    C        11.5565  -10.2843   11.4830  C     
2    C        12.0451   -9.4477   10.5271  C     
3    C        13.2213   -8.7723   10.7505  C     
4    C        13.3201   -9.6318   12.9093  C     
5    C        13.6864   -9.8573   14.2301  C     
6    C        12.7134  -10.7214   14.7139  C     
7    N        10.5305  -11.1313   11.3069  N     
8    C         9.4459  -10.9861   10.5081  C     
9    C         8.7119  -12.1361   10.1467  C     
10   C         9.0569   -9.7304    9.9935  C     
11   C         8.0630   -9.6318    9.0144  C     
12   C         7.4001  -10.7956    8.5705  C     
13   C         7.7175  -12.0499    9.1534  C     
14   O         5.2447  -11.9027    7.2088  O     
15   O         5.3671   -9.3530    7.6400  O     
16   N        12.1917  -10.3400   12.6715  N     
17   N        13.8396   -8.8493   11.9236  N     
18   N        11.8353  -10.9926   13.7401  N     
19   C        14.5054   -8.7233    8.7960  C     
20   C        14.3688   -8.0348    7.4093  C     
21   C        15.0228   -8.8771    6.2834  C     
22   C        14.8268   -9.3211   15.0040  C     
23   C        16.1497   -9.9704   14.5275  C     
24   C        14.8511   -7.7721   14.9772  C     
25   O        13.7174   -8.0006    9.7722  O     
26   C        12.8872   -7.7115    7.0788  C     
27   S         6.2253  -10.6540    7.3012  S     
28   C         7.0504  -10.3805    5.7155  C     
29   H        11.5453   -9.2895    9.6520  H     
30   H        12.6764  -11.0923   15.6591  H     
31   H        10.5826  -11.9711   11.7939  H     
32   H         8.9407  -13.0514   10.5658  H     
33   H         9.5502   -8.8925   10.3285  H     
34   H         7.8284   -8.7096    8.6321  H     
35   H         7.2325  -12.9038    8.8510  H     
36   H        14.1839   -9.7701    8.6876  H     
37   H        15.5545   -8.7211    9.1096  H     
38   H        14.9146   -7.0848    7.4532  H     
39   H        16.0793   -9.0305    6.4909  H     
40   H        14.9410   -8.3648    5.3213  H     
41   H        14.5425   -9.8546    6.1968  H     
42   H        14.6961   -9.6000   16.0509  H     
43   H        16.2549  -10.9713   14.9364  H     
44   H        17.0023   -9.3874   14.8614  H     
45   H        16.1831  -10.0617   13.4475  H     
46   H        15.0252   -7.4123   13.9687  H     
47   H        15.6424   -7.3899   15.6219  H     
48   H        13.8980   -7.3695   15.3289  H     
49   H        12.2974   -8.6312    7.0247  H     
50   H        12.8149   -7.1869    6.1192  H     
51   H        12.4622   -7.0623    7.8522  H     
52   H         7.6370   -9.4540    5.7556  H     
53   H         6.2945  -10.3015    4.9284  H     
54   H         7.7156  -11.2210    5.4984  H     
@<TRIPOS>BOND
     1    1    2 2
     2    1    7 1
     3    1   16 1
     4    2    3 1
     5    3   17 2
     6    3   25 1
     7    4    5 2
     8    4   16 1
     9    4   17 1
    10    5    6 1
    11    5   22 1
    12    6   18 2
    13    7    8 1
    14    8    9 1
    15    8   10 2
    16    9   13 2
    17   10   11 1
    18   11   12 2
    19   12   13 1
    20   12   27 1
    21   14   27 2
    22   15   27 2
    23   16   18 1
    24   19   20 1
    25   19   25 1
    26   20   21 1
    27   20   26 1
    28   22   23 1
    29   22   24 1
    30   27   28 1
    31    2   29 1
    32    6   30 1
    33    7   31 1
    34    9   32 1
    35   10   33 1
    36   11   34 1
    37   13   35 1
    38   19   36 1
    39   19   37 1
    40   20   38 1
    41   21   39 1
    42   21   40 1
    43   21   41 1
    44   22   42 1
    45   23   43 1
    46   23   44 1
    47   23   45 1
    48   24   46 1
    49   24   47 1
    50   24   48 1
    51   26   49 1
    52   26   50 1
    53   26   51 1
    54   28   52 1
    55   28   53 1
    56   28   54 1
@<TRIPOS>PROPERTY_DATA
  Total_Score	| 2.8769
  Crash		| -10.6695
  Polar		| 3.7410
  FragIndex	| 1
  FragRMSD	| 0.743

