@<TRIPOS>MOLECULE
BindingDB_11448
 47 50 0 0 0
SMALL
NO_CHARGES


@<TRIPOS>ATOM
1    C         8.2157   -9.6377    9.1070  C     
2    C         9.2407   -9.6648   10.0720  C     
3    C         9.6473  -10.8909   10.6607  C     
4    C         8.9357  -12.0677   10.3357  C     
5    C         7.9236  -12.0415    9.3525  C     
6    C         7.5707  -10.8327    8.7178  C     
7    N        10.7054  -11.0041   11.5135  N     
8    C        11.7308  -10.1571   11.7301  C     
9    C        12.2608   -9.3673   10.7604  C     
10   C        13.3763   -8.5890   11.0144  C     
11   C        13.4221   -9.4136   13.1992  C     
12   C        12.9318  -10.4738   14.9592  C     
13   N        13.9340   -8.6233   12.2248  N     
14   N        12.3402  -10.1761   12.9413  N     
15   N        12.0273  -10.8203   14.0227  N     
16   N        13.8161   -9.6002   14.4627  N     
17   N         7.1323  -10.7007    5.9505  N     
18   S         6.3816  -10.7831    7.4483  S     
19   O         5.3321  -11.9727    7.4625  O     
20   O         5.6115   -9.4063    7.6557  O     
21   O        13.9290   -7.7169   10.1472  O     
22   C        13.7377   -7.8087    8.7110  C     
23   C        14.2461   -9.1206    6.5446  C     
24   C        14.8832   -7.8518    5.9148  C     
25   C        14.2941   -6.5531    6.5203  C     
26   C        14.3958   -6.5547    8.0655  C     
27   C        14.3566   -9.0984    8.0938  C     
28   H         7.9550   -8.7434    8.6787  H     
29   H         9.6983   -8.7927   10.3351  H     
30   H         9.1907  -12.9630   10.7763  H     
31   H         7.4625  -12.9200    9.0929  H     
32   H        10.7311  -11.8355   12.0177  H     
33   H        11.8747   -9.3935    9.8521  H     
34   H        12.9409  -10.8282   15.9127  H     
35   H         6.7121  -10.1942    5.2322  H     
36   H         8.0244  -11.0720    5.8490  H     
37   H        12.6705   -7.7795    8.4708  H     
38   H        13.1882   -9.1654    6.2561  H     
39   H        14.7514  -10.0158    6.1614  H     
40   H        15.9611   -7.8819    6.0988  H     
41   H        14.7182   -7.8703    4.8311  H     
42   H        14.8386   -5.6933    6.1260  H     
43   H        13.2431   -6.4547    6.2184  H     
44   H        13.9023   -5.6564    8.4551  H     
45   H        15.4534   -6.5058    8.3686  H     
46   H        15.4107   -9.1541    8.3746  H     
47   H        13.8550   -9.9874    8.4883  H     
@<TRIPOS>BOND
     1    1    2 2
     2    1    6 1
     3    2    3 1
     4    3    4 2
     5    3    7 1
     6    4    5 1
     7    5    6 2
     8    6   18 1
     9    7    8 1
    10    8    9 2
    11    8   14 1
    12    9   10 1
    13   10   13 2
    14   10   21 1
    15   11   13 1
    16   11   14 1
    17   11   16 2
    18   12   15 2
    19   12   16 1
    20   14   15 1
    21   17   18 am
    22   18   19 2
    23   18   20 2
    24   21   22 1
    25   22   26 1
    26   22   27 1
    27   23   24 1
    28   23   27 1
    29   24   25 1
    30   25   26 1
    31    1   28 1
    32    2   29 1
    33    4   30 1
    34    5   31 1
    35    7   32 1
    36    9   33 1
    37   12   34 1
    38   17   35 1
    39   17   36 1
    40   22   37 1
    41   23   38 1
    42   23   39 1
    43   24   40 1
    44   24   41 1
    45   25   42 1
    46   25   43 1
    47   26   44 1
    48   26   45 1
    49   27   46 1
    50   27   47 1
@<TRIPOS>PROPERTY_DATA
  Total_Score	| 10.7201
  Crash		| -1.2752
  Polar		| 4.1671
  FragIndex	| 1
  FragRMSD	| 0.570

