@<TRIPOS>MOLECULE
BindingDB_11447
 50 53 0 0 0
SMALL
NO_CHARGES


@<TRIPOS>ATOM
1    C         7.8946  -11.8935    9.3144  C     
2    C         8.9352  -11.9599   10.2690  C     
3    C         9.7562  -10.8516   10.5209  C     
4    C         9.4663   -9.6342    9.8374  C     
5    C         8.4305   -9.5694    8.8849  C     
6    C         7.6547  -10.7056    8.6031  C     
7    N        10.7675  -10.9727   11.4317  N     
8    C        11.7882  -10.1794   11.7138  C     
9    C        12.3878   -9.3438   10.7951  C     
10   C        13.4526   -8.5460   11.1762  C     
11   C        13.4019   -9.4821   13.3038  C     
12   C        12.8213  -10.6105   14.9889  C     
13   N        13.9551   -8.6339   12.4086  N     
14   N        12.3378  -10.2381   12.9513  N     
15   N        11.9801  -10.9329   13.9849  N     
16   N        13.7226   -9.7120   14.5740  N     
17   N         7.0344  -10.3437    5.8722  N     
18   S         6.3909  -10.5869    7.4004  S     
19   O         5.4500  -11.8738    7.3515  O     
20   O         5.5108   -9.3173    7.7309  O     
21   C        13.3856   -6.8792    9.4169  C     
22   C        13.4550   -7.4758    7.9761  C     
23   C        12.9183   -6.4710    6.9109  C     
24   C        13.0396   -7.0373    5.4710  C     
25   C        14.4819   -7.5025    5.1558  C     
26   C        14.9875   -8.5326    6.1980  C     
27   C        14.9031   -7.9522    7.6322  C     
28   O        14.0973   -7.6631   10.3993  O     
29   H         7.3298  -12.7285    9.1368  H     
30   H         9.0868  -12.8430   10.7700  H     
31   H         9.9704   -8.7764   10.0658  H     
32   H         8.2563   -8.6819    8.4173  H     
33   H        10.6960  -11.7840   11.9837  H     
34   H        12.1257   -9.3967    9.8566  H     
35   H        12.7708  -10.9854   15.9294  H     
36   H         6.4334  -10.3718    5.1031  H     
37   H         7.9097   -9.9352    5.7823  H     
38   H        13.8544   -5.8853    9.4052  H     
39   H        12.3408   -6.7238    9.7071  H     
40   H        12.8018   -8.3504    7.9505  H     
41   H        11.8636   -6.2488    7.1150  H     
42   H        13.4727   -5.5273    6.9740  H     
43   H        12.3525   -7.8796    5.3575  H     
44   H        12.7424   -6.2627    4.7585  H     
45   H        14.5050   -7.9512    4.1662  H     
46   H        15.1492   -6.6372    5.1538  H     
47   H        14.3896   -9.4451    6.1359  H     
48   H        16.0255   -8.7911    5.9865  H     
49   H        15.5998   -7.1121    7.7276  H     
50   H        15.2116   -8.7319    8.3357  H     
@<TRIPOS>BOND
     1    1    2 2
     2    1    6 1
     3    2    3 1
     4    3    4 2
     5    3    7 1
     6    4    5 1
     7    5    6 2
     8    6   18 1
     9    7    8 1
    10    8    9 2
    11    8   14 1
    12    9   10 1
    13   10   13 2
    14   10   28 1
    15   11   13 1
    16   11   14 1
    17   11   16 2
    18   12   15 2
    19   12   16 1
    20   14   15 1
    21   17   18 am
    22   18   19 2
    23   18   20 2
    24   21   22 1
    25   21   28 1
    26   22   23 1
    27   22   27 1
    28   23   24 1
    29   24   25 1
    30   25   26 1
    31   26   27 1
    32    1   29 1
    33    2   30 1
    34    4   31 1
    35    5   32 1
    36    7   33 1
    37    9   34 1
    38   12   35 1
    39   17   36 1
    40   17   37 1
    41   21   38 1
    42   21   39 1
    43   22   40 1
    44   23   41 1
    45   23   42 1
    46   24   43 1
    47   24   44 1
    48   25   45 1
    49   25   46 1
    50   26   47 1
    51   26   48 1
    52   27   49 1
    53   27   50 1
@<TRIPOS>PROPERTY_DATA
  Total_Score	| 11.1027
  Crash		| -1.1527
  Polar		| 4.7738
  FragIndex	| 1
  FragRMSD	| 0.910

