@<TRIPOS>MOLECULE
BindingDB_50385917
 68 71 0 0 0
SMALL
NO_CHARGES


@<TRIPOS>ATOM
1    C        26.0930    7.2312  -21.0225  C     
2    C        26.1162    8.5582  -20.5340  C     
3    N        25.4665    8.7842  -19.3568  N     
4    C        24.8327    7.8372  -18.6105  C     
5    C        24.8981    6.5016  -19.0963  C     
6    N        25.4950    6.2628  -20.2899  N     
7    C        26.7705    9.6286  -21.2069  C     
8    C        26.2324   10.9366  -21.1677  C     
9    C        26.8662   12.0032  -21.8300  C     
10   C        28.0688   11.8010  -22.5430  C     
11   C        28.6198   10.5022  -22.5737  C     
12   C        27.9814    9.4349  -21.9162  C     
13   C        28.7288   12.9437  -23.2357  C     
14   N        29.0962   14.0662  -22.3103  N     
15   C        30.1289   13.6892  -21.2977  C     
16   C        29.4856   15.3010  -23.0558  C     
17   N        24.4603    5.4199  -18.4243  N     
18   C        24.1978    8.2246  -17.3913  C     
19   C        24.7753    9.1791  -16.5236  C     
20   C        24.2307    9.4444  -15.2429  C     
21   C        23.0633    8.7571  -14.8040  C     
22   C        22.4228    7.9010  -15.7318  C     
23   C        22.9670    7.6582  -17.0017  C     
24   C        22.5542    8.8657  -13.5030  C     
25   O        22.4208    9.9440  -12.9412  O     
26   N        22.2474    7.7989  -12.7810  N     
27   O        24.8302   10.3863  -14.4387  O     
28   C        26.0605   10.0729  -13.7403  C     
29   C        26.0935   10.9250  -12.4952  C     
30   C        26.2089    8.5575  -13.4074  C     
31   C        25.0492   10.7125  -11.5578  C     
32   C        24.9977   11.3799  -10.3300  C     
33   C        25.9964   12.3066  -10.0078  C     
34   C        27.0111   12.5860  -10.9365  C     
35   C        27.0799   11.9254  -12.1952  C     
36   C        28.1535   12.3305  -13.1565  C     
37   F        28.9542   13.3764  -12.7549  F     
38   F        29.0149   11.2865  -13.3746  F     
39   F        27.6024   12.7424  -14.3470  F     
40   H        26.5198    6.9771  -21.9161  H     
41   H        25.3559   11.1251  -20.6726  H     
42   H        26.4381   12.9320  -21.7940  H     
43   H        29.4989   10.3262  -23.0686  H     
44   H        28.4262    8.5139  -21.9499  H     
45   H        29.6210   12.6120  -23.7749  H     
46   H        28.0249   13.2980  -23.9958  H     
47   H        28.2506   14.3066  -21.7871  H     
48   H        29.7775   12.8580  -20.6845  H     
49   H        30.3278   14.5230  -20.6172  H     
50   H        31.0682   13.4010  -21.7777  H     
51   H        30.3436   15.1196  -23.7076  H     
52   H        29.7388   16.1113  -22.3667  H     
53   H        28.6504   15.6447  -23.6674  H     
54   H        24.5664    4.5347  -18.8013  H     
55   H        24.1077    5.5066  -17.5251  H     
56   H        25.6347    9.6576  -16.7986  H     
57   H        21.5429    7.4327  -15.4946  H     
58   H        22.4521    7.0397  -17.6348  H     
59   H        21.8928    7.9013  -11.8804  H     
60   H        22.3533    6.9118  -13.1593  H     
61   H        26.8904   10.3248  -14.3990  H     
62   H        25.2627    8.1501  -13.0573  H     
63   H        26.9644    8.3928  -12.6392  H     
64   H        26.5031    7.9999  -14.3004  H     
65   H        24.2862   10.0695  -11.7825  H     
66   H        24.2427   11.1888   -9.6682  H     
67   H        25.9682   12.8084   -9.1142  H     
68   H        27.7046   13.2880  -10.6699  H     
@<TRIPOS>BOND
     1    1    2 2
     2    1    6 1
     3    2    3 1
     4    2    7 1
     5    3    4 2
     6    4    5 1
     7    4   18 1
     8    5    6 2
     9    5   17 1
    10    7    8 2
    11    7   12 1
    12    8    9 1
    13    9   10 2
    14   10   11 1
    15   10   13 1
    16   11   12 2
    17   13   14 1
    18   14   15 1
    19   14   16 1
    20   18   19 2
    21   18   23 1
    22   19   20 1
    23   20   21 2
    24   20   27 1
    25   21   22 1
    26   21   24 1
    27   22   23 2
    28   24   25 2
    29   24   26 am
    30   27   28 1
    31   28   29 1
    32   28   30 1
    33   29   31 2
    34   29   35 1
    35   31   32 1
    36   32   33 2
    37   33   34 1
    38   34   35 2
    39   35   36 1
    40   36   37 1
    41   36   38 1
    42   36   39 1
    43    1   40 1
    44    8   41 1
    45    9   42 1
    46   11   43 1
    47   12   44 1
    48   13   45 1
    49   13   46 1
    50   14   47 1
    51   15   48 1
    52   15   49 1
    53   15   50 1
    54   16   51 1
    55   16   52 1
    56   16   53 1
    57   17   54 1
    58   17   55 1
    59   19   56 1
    60   22   57 1
    61   23   58 1
    62   26   59 1
    63   26   60 1
    64   28   61 1
    65   30   62 1
    66   30   63 1
    67   30   64 1
    68   31   65 1
    69   32   66 1
    70   33   67 1
    71   34   68 1
@<TRIPOS>PROPERTY_DATA
  Total_Score	| 8.9788
  Crash		| -1.2292
  Polar		| 2.1970
  FragIndex	| 1
  FragRMSD	| 0.494

