@<TRIPOS>MOLECULE
BindingDB_50330592
 54 56 0 0 0
SMALL
NO_CHARGES


@<TRIPOS>ATOM
1    C        25.9056    7.1945  -20.9490  C     
2    C        26.2929    8.4437  -20.4239  C     
3    N        26.0388    8.6212  -19.1004  N     
4    C        25.4529    7.7545  -18.2219  C     
5    C        25.0151    6.5330  -18.8201  C     
6    N        25.2700    6.3127  -20.1393  N     
7    N        24.2829    5.5624  -18.2433  N     
8    N        25.4297    8.1641  -16.8991  N     
9    C        25.1995    7.2950  -15.7596  C     
10   C        24.0920    7.8723  -14.8162  C     
11   C        24.3726    9.3719  -14.3949  C     
12   C        25.6788    9.9260  -15.0510  C     
13   C        25.7392    9.5583  -16.5618  C     
14   C        24.3863    9.6025  -12.9254  C     
15   O        24.6503   10.8390  -12.4456  O     
16   O        23.6959    8.7903  -12.0862  O     
17   C        26.9703    9.4698  -21.1449  C     
18   C        27.8842    9.1761  -22.1823  C     
19   C        28.6373   10.1895  -22.8174  C     
20   C        28.4027   11.5397  -22.4758  C     
21   C        27.4805   11.8629  -21.4560  C     
22   C        26.7960   10.8276  -20.7857  C     
23   O        27.3203   13.1693  -21.0669  O     
24   C        26.0750   13.7746  -21.4605  C     
25   O        29.1261   12.5444  -23.0625  O     
26   C        28.5777   12.9972  -24.3155  C     
27   O        29.5315    9.9289  -23.8282  O     
28   C        30.7791    9.2873  -23.4686  C     
29   C        22.6866    7.7145  -15.4656  C     
30   H        26.0499    6.9482  -21.9260  H     
31   H        24.0598    4.7623  -18.7491  H     
32   H        23.9364    5.6580  -17.3472  H     
33   H        24.9845    6.2674  -16.0052  H     
34   H        26.1366    7.2352  -15.1948  H     
35   H        24.0979    7.2283  -13.9340  H     
36   H        23.5646   10.0016  -14.7717  H     
37   H        25.7259   11.0136  -14.9539  H     
38   H        26.5545    9.5142  -14.5481  H     
39   H        26.7401    9.8117  -16.9194  H     
40   H        25.0208   10.1966  -17.0834  H     
41   H        28.0461    8.2100  -22.4678  H     
42   H        26.1560   11.0817  -20.0288  H     
43   H        25.9473   13.7579  -22.5433  H     
44   H        26.0757   14.8160  -21.1352  H     
45   H        25.2253   13.2769  -20.9909  H     
46   H        28.5345   12.1892  -25.0545  H     
47   H        29.2312   13.7798  -24.7056  H     
48   H        27.5767   13.4218  -24.1905  H     
49   H        31.3133    9.8443  -22.6869  H     
50   H        31.4074    9.2510  -24.3574  H     
51   H        30.6079    8.2541  -23.1260  H     
52   H        22.6197    8.2834  -16.3960  H     
53   H        21.9144    8.0814  -14.7825  H     
54   H        22.4699    6.6680  -15.6868  H     
@<TRIPOS>BOND
     1    1    2 2
     2    1    6 1
     3    2    3 1
     4    2   17 1
     5    3    4 2
     6    4    5 1
     7    4    8 1
     8    5    6 2
     9    5    7 1
    10    8    9 1
    11    8   13 1
    12    9   10 1
    13   10   11 1
    14   10   29 1
    15   11   12 1
    16   11   14 1
    17   12   13 1
    18   14   15 1
    19   14   16 2
    20   17   18 2
    21   17   22 1
    22   18   19 1
    23   19   20 2
    24   19   27 1
    25   20   21 1
    26   20   25 1
    27   21   22 2
    28   21   23 1
    29   23   24 1
    30   25   26 1
    31   27   28 1
    32    1   30 1
    33    7   31 1
    34    7   32 1
    35    9   33 1
    36    9   34 1
    37   10   35 1
    38   11   36 1
    39   12   37 1
    40   12   38 1
    41   13   39 1
    42   13   40 1
    43   18   41 1
    44   22   42 1
    45   24   43 1
    46   24   44 1
    47   24   45 1
    48   26   46 1
    49   26   47 1
    50   26   48 1
    51   28   49 1
    52   28   50 1
    53   28   51 1
    54   29   52 1
    55   29   53 1
    56   29   54 1
@<TRIPOS>PROPERTY_DATA
  Total_Score	| 8.1761
  Crash		| -1.4743
  Polar		| 3.8731
  FragIndex	| 1
  FragRMSD	| 0.201

