@<TRIPOS>MOLECULE
BindingDB_50330600
 49 51 0 0 0
SMALL
NO_CHARGES


@<TRIPOS>ATOM
1    C        25.9363    7.1773  -20.7373  C     
2    C        26.2428    8.4791  -20.2858  C     
3    N        25.7743    8.7868  -19.0533  N     
4    C        25.0845    7.9900  -18.1847  C     
5    C        24.8951    6.6523  -18.6540  C     
6    N        25.2997    6.3221  -19.9095  N     
7    N        24.4537    5.5956  -17.9525  N     
8    N        24.6648    8.5671  -17.0024  N     
9    C        23.6382    8.0096  -16.1386  C     
10   C        24.2246    7.7356  -14.7330  C     
11   C        24.8027    9.0323  -14.1157  C     
12   C        25.7807    9.7247  -15.0956  C     
13   C        25.1878    9.8525  -16.5241  C     
14   C        26.9677    9.4524  -21.0452  C     
15   C        26.8464   10.8291  -20.7345  C     
16   C        27.4935   11.8248  -21.4969  C     
17   C        28.3404   11.4487  -22.5640  C     
18   C        28.5517   10.0789  -22.8357  C     
19   C        27.8417    9.1050  -22.1008  C     
20   O        29.3741    9.7192  -23.8750  O     
21   C        30.6109    9.0798  -23.5040  C     
22   O        29.0502   12.4014  -23.2476  O     
23   C        28.3979   12.8970  -24.4333  C     
24   O        27.3660   13.1495  -21.1668  O     
25   C        26.1308   13.7635  -21.5864  C     
26   H        26.1979    6.8453  -21.6696  H     
27   H        24.4216    4.7237  -18.3672  H     
28   H        24.2612    5.6548  -17.0027  H     
29   H        22.8239    8.7248  -16.0469  H     
30   H        23.1443    7.1284  -16.5080  H     
31   H        23.4469    7.3328  -14.0801  H     
32   H        25.0271    6.9982  -14.8171  H     
33   H        23.9847    9.7144  -13.8705  H     
34   H        25.3290    8.7874  -13.1899  H     
35   H        26.0422   10.7152  -14.7115  H     
36   H        26.6964    9.1353  -15.1444  H     
37   H        25.9841   10.2700  -17.1449  H     
38   H        24.3851   10.5966  -16.5176  H     
39   H        26.2619   11.1342  -19.9498  H     
40   H        28.0004    8.1257  -22.3367  H     
41   H        31.2132    9.7184  -22.8555  H     
42   H        31.1790    8.8846  -24.4141  H     
43   H        30.4376    8.1209  -23.0086  H     
44   H        28.1590   12.0958  -25.1365  H     
45   H        29.0880   13.5795  -24.9291  H     
46   H        27.4918   13.4492  -24.1936  H     
47   H        25.9780   13.6628  -22.6612  H     
48   H        26.1806   14.8229  -21.3462  H     
49   H        25.2748   13.3349  -21.0576  H     
@<TRIPOS>BOND
     1    1    2 2
     2    1    6 1
     3    2    3 1
     4    2   14 1
     5    3    4 2
     6    4    5 1
     7    4    8 1
     8    5    6 2
     9    5    7 1
    10    8    9 1
    11    8   13 1
    12    9   10 1
    13   10   11 1
    14   11   12 1
    15   12   13 1
    16   14   15 2
    17   14   19 1
    18   15   16 1
    19   16   17 2
    20   16   24 1
    21   17   18 1
    22   17   22 1
    23   18   19 2
    24   18   20 1
    25   20   21 1
    26   22   23 1
    27   24   25 1
    28    1   26 1
    29    7   27 1
    30    7   28 1
    31    9   29 1
    32    9   30 1
    33   10   31 1
    34   10   32 1
    35   11   33 1
    36   11   34 1
    37   12   35 1
    38   12   36 1
    39   13   37 1
    40   13   38 1
    41   15   39 1
    42   19   40 1
    43   21   41 1
    44   21   42 1
    45   21   43 1
    46   23   44 1
    47   23   45 1
    48   23   46 1
    49   25   47 1
    50   25   48 1
    51   25   49 1
@<TRIPOS>PROPERTY_DATA
  Total_Score	| 5.9883
  Crash		| -1.5354
  Polar		| 2.2462
  FragIndex	| 1
  FragRMSD	| 0.266

