@<TRIPOS>MOLECULE
BindingDB_50330594
 54 56 0 0 0
SMALL
NO_CHARGES


@<TRIPOS>ATOM
1    C        26.0145    7.1093  -20.9013  C     
2    C        26.3465    8.3878  -20.4108  C     
3    N        26.0380    8.6038  -19.1098  N     
4    C        25.4511    7.7623  -18.2148  C     
5    C        25.1092    6.4924  -18.7689  C     
6    N        25.4102    6.2316  -20.0681  N     
7    N        24.4693    5.4818  -18.1521  N     
8    N        25.2978    8.2396  -16.9232  N     
9    C        24.7395    7.3997  -15.8828  C     
10   C        24.7809    7.8847  -14.3998  C     
11   C        24.4628    9.4066  -14.3252  C     
12   C        25.5112   10.1683  -15.1808  C     
13   C        25.6180    9.6359  -16.6389  C     
14   C        24.3471    9.9009  -12.9233  C     
15   O        23.7193    9.1437  -11.9885  O     
16   O        24.9171   11.0600  -12.5127  O     
17   C        26.9662    9.4341  -21.1614  C     
18   C        27.7440    9.1669  -22.3164  C     
19   C        28.4158   10.1947  -23.0093  C     
20   C        28.2598   11.5415  -22.6062  C     
21   C        27.4796   11.8388  -21.4619  C     
22   C        26.8576   10.7892  -20.7520  C     
23   O        27.4047   13.1298  -21.0007  O     
24   C        26.1623   13.7954  -21.3049  C     
25   O        28.9440   12.5440  -23.2406  O     
26   C        28.2956   13.0371  -24.4270  C     
27   O        29.1955    9.8921  -24.0968  O     
28   C        30.4827    9.3540  -23.7370  C     
29   C        26.1201    7.4828  -13.7125  C     
30   H        26.1936    6.8313  -21.8660  H     
31   H        24.3001    4.6546  -18.6279  H     
32   H        24.1634    5.5623  -17.2399  H     
33   H        23.6917    7.2256  -16.1342  H     
34   H        25.2499    6.4341  -15.9120  H     
35   H        23.9934    7.3514  -13.8565  H     
36   H        23.4811    9.5677  -14.7823  H     
37   H        25.2500   11.2267  -15.2165  H     
38   H        26.4944   10.1046  -14.7016  H     
39   H        26.6459    9.8382  -16.9602  H     
40   H        24.9577   10.2563  -17.2574  H     
41   H        27.8671    8.2077  -22.6541  H     
42   H        26.3161   11.0253  -19.9115  H     
43   H        25.9676   13.8132  -22.3815  H     
44   H        26.2447   14.8252  -20.9563  H     
45   H        25.3185   13.3247  -20.7904  H     
46   H        28.1426   12.2450  -25.1638  H     
47   H        28.9416   13.7957  -24.8745  H     
48   H        27.3364   13.5054  -24.1949  H     
49   H        31.0629   10.0711  -23.1434  H     
50   H        31.0250    9.1562  -24.6658  H     
51   H        30.3863    8.4114  -23.1880  H     
52   H        26.2210    6.3940  -13.6752  H     
53   H        26.1619    7.8657  -12.6882  H     
54   H        26.9790    7.8682  -14.2627  H     
@<TRIPOS>BOND
     1    1    2 2
     2    1    6 1
     3    2    3 1
     4    2   17 1
     5    3    4 2
     6    4    5 1
     7    4    8 1
     8    5    6 2
     9    5    7 1
    10    8    9 1
    11    8   13 1
    12    9   10 1
    13   10   11 1
    14   10   29 1
    15   11   12 1
    16   11   14 1
    17   12   13 1
    18   14   15 1
    19   14   16 2
    20   17   18 2
    21   17   22 1
    22   18   19 1
    23   19   20 2
    24   19   27 1
    25   20   21 1
    26   20   25 1
    27   21   22 2
    28   21   23 1
    29   23   24 1
    30   25   26 1
    31   27   28 1
    32    1   30 1
    33    7   31 1
    34    7   32 1
    35    9   33 1
    36    9   34 1
    37   10   35 1
    38   11   36 1
    39   12   37 1
    40   12   38 1
    41   13   39 1
    42   13   40 1
    43   18   41 1
    44   22   42 1
    45   24   43 1
    46   24   44 1
    47   24   45 1
    48   26   46 1
    49   26   47 1
    50   26   48 1
    51   28   49 1
    52   28   50 1
    53   28   51 1
    54   29   52 1
    55   29   53 1
    56   29   54 1
@<TRIPOS>PROPERTY_DATA
  Total_Score	| 7.4867
  Crash		| -2.6623
  Polar		| 3.9505
  FragIndex	| 1
  FragRMSD	| 0.265

