@<TRIPOS>MOLECULE
BindingDB_50330576
 50 52 0 0 0
SMALL
NO_CHARGES


@<TRIPOS>ATOM
1    C        21.0508    6.7926  -14.8300  C     
2    O        21.2699    8.1062  -15.3754  O     
3    C        22.5895    8.3888  -15.6302  C     
4    C        23.0990    8.0048  -16.8865  C     
5    C        24.4405    8.2603  -17.2491  C     
6    C        24.9679    7.8237  -18.4908  C     
7    N        25.6889    8.7009  -19.2413  N     
8    C        26.2438    8.4481  -20.4594  C     
9    C        26.9593    9.4839  -21.1468  C     
10   C        27.8684    9.2044  -22.1948  C     
11   C        28.5762   10.2228  -22.8658  C     
12   O        29.4441    9.9218  -23.8879  O     
13   C        30.6512    9.2470  -23.4862  C     
14   C        28.3244   11.5740  -22.5375  C     
15   O        29.0184   12.5720  -23.1746  O     
16   C        28.3962   13.0391  -24.3874  C     
17   C        27.4350   11.8880  -21.4863  C     
18   O        27.2746   13.1919  -21.0911  O     
19   C        26.0006   13.7719  -21.4334  C     
20   C        26.7911   10.8461  -20.7851  C     
21   C        26.0282    7.1442  -20.9698  C     
22   N        25.3342    6.2411  -20.2345  N     
23   C        24.8072    6.5174  -19.0165  C     
24   N        24.2034    5.5110  -18.3607  N     
25   C        25.2458    8.9821  -16.3426  C     
26   C        24.7388    9.3943  -15.0963  C     
27   C        23.4054    9.1123  -14.7150  C     
28   C        22.9166    9.5728  -13.4602  C     
29   O        21.6266    9.4221  -13.0889  O     
30   O        23.6934   10.2801  -12.6072  O     
31   H        21.3853    6.0145  -15.5184  H     
32   H        19.9801    6.6664  -14.6725  H     
33   H        21.5552    6.6688  -13.8683  H     
34   H        22.4747    7.5321  -17.5476  H     
35   H        28.0615    8.2405  -22.4688  H     
36   H        31.2293    9.8424  -22.7732  H     
37   H        31.2646    9.0909  -24.3749  H     
38   H        30.4299    8.2680  -23.0550  H     
39   H        28.2237   12.2217  -25.0917  H     
40   H        29.0679   13.7609  -24.8554  H     
41   H        27.4520   13.5431  -24.1800  H     
42   H        25.8410   13.7683  -22.5102  H     
43   H        25.9963   14.8053  -21.0912  H     
44   H        25.1717   13.2504  -20.9495  H     
45   H        26.1853   11.1025  -20.0025  H     
46   H        26.3577    6.8593  -21.8915  H     
47   H        24.1607    4.6233  -18.7528  H     
48   H        23.8584    5.6487  -17.4634  H     
49   H        26.2177    9.2050  -16.5757  H     
50   H        25.3635    9.9112  -14.4728  H     
@<TRIPOS>BOND
     1    1    2 1
     2    2    3 1
     3    3    4 1
     4    3   27 2
     5    4    5 2
     6    5    6 1
     7    5   25 1
     8    6    7 2
     9    6   23 1
    10    7    8 1
    11    8    9 1
    12    8   21 2
    13    9   10 1
    14    9   20 2
    15   10   11 2
    16   11   12 1
    17   11   14 1
    18   12   13 1
    19   14   15 1
    20   14   17 2
    21   15   16 1
    22   17   18 1
    23   17   20 1
    24   18   19 1
    25   21   22 1
    26   22   23 2
    27   23   24 1
    28   25   26 2
    29   26   27 1
    30   27   28 1
    31   28   29 2
    32   28   30 1
    33    1   31 1
    34    1   32 1
    35    1   33 1
    36    4   34 1
    37   10   35 1
    38   13   36 1
    39   13   37 1
    40   13   38 1
    41   16   39 1
    42   16   40 1
    43   16   41 1
    44   19   42 1
    45   19   43 1
    46   19   44 1
    47   20   45 1
    48   21   46 1
    49   24   47 1
    50   24   48 1
    51   25   49 1
    52   26   50 1
@<TRIPOS>PROPERTY_DATA
  Total_Score	| 10.6150
  Crash		| -0.7341
  Polar		| 3.6083
  FragIndex	| 1
  FragRMSD	| 0.090

