@<TRIPOS>MOLECULE
BindingDB_50330607
 47 49 0 0 0
SMALL
NO_CHARGES


@<TRIPOS>ATOM
1    C        24.7864    6.8609  -19.3377  C     
2    C        24.9652    8.0956  -18.6896  C     
3    N        25.7079    9.0132  -19.3613  N     
4    C        26.2852    8.9007  -20.5973  C     
5    C        26.0133    7.6521  -21.2374  C     
6    N        25.3029    6.6986  -20.5774  N     
7    N        26.2806    7.2984  -22.5047  N     
8    N        27.0417    9.9822  -21.0279  N     
9    C        27.9805    9.9673  -22.1375  C     
10   C        27.7164   11.1650  -23.0849  C     
11   C        27.9425   12.5360  -22.3683  C     
12   C        27.8099   12.4449  -20.8134  C     
13   C        26.9253   11.2625  -20.3201  C     
14   C        27.0855   13.6048  -22.9381  C     
15   O        27.6279   14.6958  -23.5225  O     
16   O        25.7393   13.5370  -22.8573  O     
17   C        24.4298    8.4149  -17.4118  C     
18   C        25.1588    9.2309  -16.5140  C     
19   C        24.6185    9.5983  -15.2689  C     
20   C        23.3368    9.1519  -14.8903  C     
21   C        22.5889    8.3464  -15.7754  C     
22   C        23.1354    7.9875  -17.0259  C     
23   O        21.2871    8.0366  -15.4816  O     
24   C        21.1053    6.7261  -14.9203  C     
25   O        22.7640    9.5816  -13.7244  O     
26   C        23.1658    8.8325  -12.5639  C     
27   H        24.2663    6.0942  -18.9063  H     
28   H        26.0082    6.4208  -22.8142  H     
29   H        26.6218    7.9295  -23.1485  H     
30   H        28.9921   10.0526  -21.7427  H     
31   H        27.9939    9.0628  -22.7245  H     
32   H        28.3679   11.0970  -23.9590  H     
33   H        26.6907   11.0757  -23.4408  H     
34   H        28.9791   12.8267  -22.5749  H     
35   H        28.8090   12.3071  -20.3937  H     
36   H        27.4306   13.3831  -20.3938  H     
37   H        25.8830   11.5872  -20.3950  H     
38   H        27.1535   11.1219  -19.2601  H     
39   H        26.0940    9.5686  -16.7594  H     
40   H        25.1535   10.2071  -14.6459  H     
41   H        22.5554    7.4490  -17.6752  H     
42   H        21.4538    5.9511  -15.6034  H     
43   H        20.0398    6.5763  -14.7511  H     
44   H        21.6184    6.6257  -13.9625  H     
45   H        23.0534    7.7543  -12.7007  H     
46   H        22.5249    9.1330  -11.7409  H     
47   H        24.1985    9.0568  -12.2947  H     
@<TRIPOS>BOND
     1    1    2 2
     2    1    6 1
     3    2    3 1
     4    2   17 1
     5    3    4 2
     6    4    5 1
     7    4    8 1
     8    5    6 2
     9    5    7 1
    10    8    9 1
    11    8   13 1
    12    9   10 1
    13   10   11 1
    14   11   12 1
    15   11   14 1
    16   12   13 1
    17   14   15 1
    18   14   16 2
    19   17   18 2
    20   17   22 1
    21   18   19 1
    22   19   20 2
    23   20   21 1
    24   20   25 1
    25   21   22 2
    26   21   23 1
    27   23   24 1
    28   25   26 1
    29    1   27 1
    30    7   28 1
    31    7   29 1
    32    9   30 1
    33    9   31 1
    34   10   32 1
    35   10   33 1
    36   11   34 1
    37   12   35 1
    38   12   36 1
    39   13   37 1
    40   13   38 1
    41   18   39 1
    42   19   40 1
    43   22   41 1
    44   24   42 1
    45   24   43 1
    46   24   44 1
    47   26   45 1
    48   26   46 1
    49   26   47 1
@<TRIPOS>PROPERTY_DATA
  Total_Score	| 7.6627
  Crash		| -2.5096
  Polar		| 4.0904
  FragIndex	| 1
  FragRMSD	| 0.337

