@<TRIPOS>MOLECULE
BindingDB_50330597
 49 51 0 0 0
SMALL
NO_CHARGES


@<TRIPOS>ATOM
1    C        26.1839    7.1521  -21.0804  C     
2    C        26.3079    8.4645  -20.5658  C     
3    N        25.7237    8.6752  -19.3537  N     
4    C        25.0891    7.7389  -18.5971  C     
5    C        25.0798    6.4158  -19.0993  C     
6    N        25.5936    6.1877  -20.3313  N     
7    N        24.6100    5.3698  -18.4003  N     
8    C        24.4948    8.1479  -17.3689  C     
9    C        23.1441    7.8620  -17.0148  C     
10   C        22.6626    8.2941  -15.7545  C     
11   C        23.4568    9.0474  -14.8588  C     
12   C        24.7766    9.3543  -15.2488  C     
13   C        25.2847    8.9113  -16.4786  C     
14   C        22.9425    9.5025  -13.6122  C     
15   O        23.7078   10.2232  -12.7555  O     
16   O        21.6505    9.3042  -13.2607  O     
17   C        27.0065    9.5376  -21.2132  C     
18   C        27.9787    9.3085  -22.2198  C     
19   C        28.7015   10.3616  -22.8204  C     
20   C        28.4160   11.6970  -22.4585  C     
21   C        27.4737   11.9479  -21.4435  C     
22   C        26.7869   10.8825  -20.8274  C     
23   O        27.2646   13.2340  -21.0220  O     
24   C        25.9927   13.7746  -21.4122  C     
25   O        29.0772   12.7780  -22.9777  O     
26   C        28.8360   13.0773  -24.3830  C     
27   O        29.6059   10.1352  -23.8248  O     
28   C        30.8252    9.4377  -23.4964  C     
29   C        22.1846    7.1756  -17.9228  C     
30   H        26.5282    6.8938  -22.0066  H     
31   H        24.6299    4.4802  -18.7774  H     
32   H        24.2640    5.5013  -17.5059  H     
33   H        21.6919    8.0733  -15.4917  H     
34   H        25.3907    9.9007  -14.6389  H     
35   H        26.2510    9.1479  -16.7136  H     
36   H        28.1945    8.3577  -22.5171  H     
37   H        26.1114   11.1057  -20.0942  H     
38   H        25.8625   13.7785  -22.4984  H     
39   H        25.9443   14.8052  -21.0614  H     
40   H        25.1738   13.2178  -20.9490  H     
41   H        29.4336   12.4133  -25.0301  H     
42   H        29.1637   14.1015  -24.5678  H     
43   H        27.7688   12.9987  -24.6605  H     
44   H        31.3502    9.9017  -22.6505  H     
45   H        31.4773    9.4749  -24.3714  H     
46   H        30.6179    8.3764  -23.2685  H     
47   H        22.4315    7.3211  -18.9743  H     
48   H        21.1746    7.5640  -17.7844  H     
49   H        22.1701    6.1092  -17.7048  H     
@<TRIPOS>BOND
     1    1    2 2
     2    1    6 1
     3    2    3 1
     4    2   17 1
     5    3    4 2
     6    4    5 1
     7    4    8 1
     8    5    6 2
     9    5    7 1
    10    8    9 1
    11    8   13 2
    12    9   10 2
    13    9   29 1
    14   10   11 1
    15   11   12 2
    16   11   14 1
    17   12   13 1
    18   14   15 1
    19   14   16 2
    20   17   18 2
    21   17   22 1
    22   18   19 1
    23   19   20 2
    24   19   27 1
    25   20   21 1
    26   20   25 1
    27   21   22 2
    28   21   23 1
    29   23   24 1
    30   25   26 1
    31   27   28 1
    32    1   30 1
    33    7   31 1
    34    7   32 1
    35   10   33 1
    36   12   34 1
    37   13   35 1
    38   18   36 1
    39   22   37 1
    40   24   38 1
    41   24   39 1
    42   24   40 1
    43   26   41 1
    44   26   42 1
    45   26   43 1
    46   28   44 1
    47   28   45 1
    48   28   46 1
    49   29   47 1
    50   29   48 1
    51   29   49 1
@<TRIPOS>PROPERTY_DATA
  Total_Score	| 9.6189
  Crash		| -1.0233
  Polar		| 3.5470
  FragIndex	| 1
  FragRMSD	| 0.192

