@<TRIPOS>MOLECULE
BindingDB_50330595
 54 56 0 0 0
SMALL
NO_CHARGES


@<TRIPOS>ATOM
1    C        25.9813    7.0209  -20.7125  C     
2    C        26.1426    8.3480  -20.2348  C     
3    N        25.5860    8.5880  -19.0032  N     
4    C        24.9038    7.6868  -18.2305  C     
5    C        24.8417    6.3638  -18.7331  C     
6    N        25.3564    6.0871  -19.9559  N     
7    N        24.3765    5.3354  -18.0074  N     
8    N        24.2903    8.1236  -17.0842  N     
9    C        24.9092    9.1293  -16.2387  C     
10   C        24.7193    8.7967  -14.7207  C     
11   C        23.1965    8.5528  -14.3972  C     
12   C        22.5838    7.5113  -15.3678  C     
13   C        22.8879    7.8505  -16.8452  C     
14   C        22.9415    8.2476  -12.9675  C     
15   O        22.0228    7.3440  -12.5623  O     
16   O        23.5432    8.9794  -11.9994  O     
17   C        26.8122    9.4105  -20.9362  C     
18   C        27.6591    9.1704  -22.0492  C     
19   C        28.3778   10.2037  -22.6749  C     
20   C        28.1938   11.5383  -22.2737  C     
21   C        27.3069   11.8293  -21.1998  C     
22   C        26.6727   10.7625  -20.5298  C     
23   O        27.1463   13.1264  -20.7790  O     
24   C        25.9891   13.7809  -21.3348  C     
25   O        29.0063   12.4710  -22.8769  O     
26   C        28.5400   13.0043  -24.1341  C     
27   O        29.1811    9.8955  -23.7456  O     
28   C        30.4126    9.2361  -23.3802  C     
29   C        25.6646    7.6401  -14.2698  C     
30   H        26.3216    6.7219  -21.6196  H     
31   H        24.3950    4.4261  -18.3789  H     
32   H        24.0787    5.4720  -17.0944  H     
33   H        25.9790    9.2252  -16.4449  H     
34   H        24.4540   10.0907  -16.4637  H     
35   H        25.0434    9.6844  -14.1674  H     
36   H        22.6875    9.4997  -14.5894  H     
37   H        22.9761    6.5171  -15.1619  H     
38   H        21.4941    7.4782  -15.2344  H     
39   H        22.3346    8.7474  -17.1077  H     
40   H        22.4719    7.0614  -17.4852  H     
41   H        27.8017    8.2207  -22.4095  H     
42   H        26.0675   10.9950  -19.7371  H     
43   H        25.9841   13.7298  -22.4262  H     
44   H        26.0128   14.8354  -21.0365  H     
45   H        25.0597   13.3452  -20.9401  H     
46   H        28.2180   12.2261  -24.8240  H     
47   H        29.3592   13.5418  -24.5960  H     
48   H        27.7191   13.7153  -23.9684  H     
49   H        31.0309    9.8572  -22.7097  H     
50   H        30.9816    9.0603  -24.3072  H     
51   H        30.2280    8.2619  -22.8989  H     
52   H        25.4934    6.7245  -14.8526  H     
53   H        25.5280    7.4102  -13.2113  H     
54   H        26.7062    7.9349  -14.4048  H     
@<TRIPOS>BOND
     1    1    2 2
     2    1    6 1
     3    2    3 1
     4    2   17 1
     5    3    4 2
     6    4    5 1
     7    4    8 1
     8    5    6 2
     9    5    7 1
    10    8    9 1
    11    8   13 1
    12    9   10 1
    13   10   11 1
    14   10   29 1
    15   11   12 1
    16   11   14 1
    17   12   13 1
    18   14   15 1
    19   14   16 2
    20   17   18 2
    21   17   22 1
    22   18   19 1
    23   19   20 2
    24   19   27 1
    25   20   21 1
    26   20   25 1
    27   21   22 2
    28   21   23 1
    29   23   24 1
    30   25   26 1
    31   27   28 1
    32    1   30 1
    33    7   31 1
    34    7   32 1
    35    9   33 1
    36    9   34 1
    37   10   35 1
    38   11   36 1
    39   12   37 1
    40   12   38 1
    41   13   39 1
    42   13   40 1
    43   18   41 1
    44   22   42 1
    45   24   43 1
    46   24   44 1
    47   24   45 1
    48   26   46 1
    49   26   47 1
    50   26   48 1
    51   28   49 1
    52   28   50 1
    53   28   51 1
    54   29   52 1
    55   29   53 1
    56   29   54 1
@<TRIPOS>PROPERTY_DATA
  Total_Score	| 8.0613
  Crash		| -2.5846
  Polar		| 4.9621
  FragIndex	| 1
  FragRMSD	| 0.285

