@<TRIPOS>MOLECULE
BindingDB_50330578
 51 53 0 0 0
SMALL
NO_CHARGES


@<TRIPOS>ATOM
1    C        30.3880    9.1813  -23.5061  C     
2    O        29.1748    9.9056  -23.7884  O     
3    C        28.3963   10.1661  -22.6899  C     
4    C        27.7606    9.1207  -21.9881  C     
5    C        26.8934    9.3704  -20.8938  C     
6    C        26.2075    8.3203  -20.2000  C     
7    C        26.0328    7.0123  -20.7099  C     
8    N        25.3446    6.0982  -19.9888  N     
9    C        24.7694    6.3721  -18.7938  C     
10   N        24.2193    5.3427  -18.1322  N     
11   C        24.8675    7.6824  -18.2681  C     
12   N        24.2429    8.1237  -17.1297  N     
13   C        24.8710    9.1057  -16.2672  C     
14   C        24.6757    8.7212  -14.7718  C     
15   C        23.1675    8.5276  -14.4216  C     
16   C        22.9811    8.1555  -12.9933  C     
17   O        23.6567    8.8236  -12.0248  O     
18   O        22.0813    7.2279  -12.5854  O     
19   C        22.5294    7.5034  -15.4117  C     
20   C        22.8341    7.8603  -16.8885  C     
21   N        25.6079    8.5660  -18.9992  N     
22   C        26.7077   10.7246  -20.5127  C     
23   C        27.3070   11.7849  -21.2234  C     
24   O        27.1069   13.0790  -20.8187  O     
25   C        25.9407   13.6884  -21.3979  C     
26   C        28.1578   11.5046  -22.3129  C     
27   O        28.6638   12.5229  -23.0796  O     
28   C        30.0719   12.7454  -22.9052  C     
29   H        31.0017    9.6914  -22.7620  H     
30   H        30.9607    9.1132  -24.4304  H     
31   H        30.1688    8.1653  -23.1672  H     
32   H        27.9488    8.1666  -22.2933  H     
33   H        26.4009    6.7269  -21.6141  H     
34   H        23.8760    5.4609  -17.2354  H     
35   H        24.2217    4.4627  -18.5304  H     
36   H        25.9473    9.1807  -16.4517  H     
37   H        24.4347   10.0942  -16.4503  H     
38   H        25.2183    7.7899  -14.5662  H     
39   H        25.1070    9.5113  -14.1521  H     
40   H        22.6620    9.4892  -14.5639  H     
41   H        22.9180    6.4978  -15.2086  H     
42   H        21.4421    7.4820  -15.2692  H     
43   H        22.2818    8.7668  -17.1370  H     
44   H        22.4130    7.0836  -17.5304  H     
45   H        26.1006   10.9620  -19.7244  H     
46   H        25.9975   13.7042  -22.4897  H     
47   H        25.8823   14.7181  -21.0449  H     
48   H        25.0291   13.1703  -21.0862  H     
49   H        30.3095   13.0328  -21.8785  H     
50   H        30.3669   13.5641  -23.5646  H     
51   H        30.6563   11.8644  -23.1765  H     
@<TRIPOS>BOND
     1    1    2 1
     2    2    3 1
     3    3    4 1
     4    3   26 2
     5    4    5 2
     6    5    6 1
     7    5   22 1
     8    6    7 1
     9    6   21 2
    10    7    8 2
    11    8    9 1
    12    9   10 1
    13    9   11 2
    14   11   12 1
    15   11   21 1
    16   12   13 1
    17   12   20 1
    18   13   14 1
    19   14   15 1
    20   15   16 1
    21   15   19 1
    22   16   17 2
    23   16   18 1
    24   19   20 1
    25   22   23 2
    26   23   24 1
    27   23   26 1
    28   24   25 1
    29   26   27 1
    30   27   28 1
    31    1   29 1
    32    1   30 1
    33    1   31 1
    34    4   32 1
    35    7   33 1
    36   10   34 1
    37   10   35 1
    38   13   36 1
    39   13   37 1
    40   14   38 1
    41   14   39 1
    42   15   40 1
    43   19   41 1
    44   19   42 1
    45   20   43 1
    46   20   44 1
    47   22   45 1
    48   25   46 1
    49   25   47 1
    50   25   48 1
    51   28   49 1
    52   28   50 1
    53   28   51 1
@<TRIPOS>PROPERTY_DATA
  Total_Score	| 7.6109
  Crash		| -2.4402
  Polar		| 4.9755
  FragIndex	| 1
  FragRMSD	| 0.561

