@<TRIPOS>MOLECULE
BindingDB_50330579
 46 48 0 0 0
SMALL
NO_CHARGES


@<TRIPOS>ATOM
1    O        21.6204    9.2369  -13.0937  O     
2    C        22.9165    8.8746  -13.2338  C     
3    O        23.6647    8.8597  -12.1098  O     
4    C        23.4573    8.5684  -14.5115  C     
5    C        22.6233    8.4561  -15.6480  C     
6    C        23.1608    8.1697  -16.9170  C     
7    C        24.8456    8.3619  -14.6821  C     
8    C        25.3859    8.0895  -15.9526  C     
9    C        24.5503    7.9946  -17.0830  C     
10   C        25.0795    7.6474  -18.3470  C     
11   N        25.7241    8.5853  -19.0911  N     
12   C        24.9491    6.3547  -18.8941  C     
13   N        24.4150    5.3236  -18.2231  N     
14   N        25.4117    6.1337  -20.1511  N     
15   C        26.0279    7.0838  -20.8888  C     
16   C        26.2320    8.3713  -20.3476  C     
17   C        26.9095    9.4266  -21.0415  C     
18   C        27.8279    9.1906  -22.0971  C     
19   C        26.6967   10.7728  -20.6579  C     
20   C        27.3367   11.8424  -21.3105  C     
21   O        27.1656   13.1279  -20.8655  O     
22   C        25.9461   13.7547  -21.2991  C     
23   C        28.2374   11.5844  -22.3654  C     
24   O        28.9166   12.6209  -22.9394  O     
25   C        28.3905   13.0459  -24.2125  C     
26   C        28.5048   10.2474  -22.7434  C     
27   O        29.3691    9.9831  -23.7751  O     
28   C        30.6139    9.3864  -23.3698  C     
29   H        21.6123    8.5707  -15.5655  H     
30   H        22.5254    8.0861  -17.7164  H     
31   H        25.4873    8.4088  -13.8849  H     
32   H        26.3921    7.9314  -16.0434  H     
33   H        24.3706    4.4448  -18.6334  H     
34   H        24.1238    5.4388  -17.3047  H     
35   H        26.3219    6.8373  -21.8344  H     
36   H        28.0514    8.2372  -22.3959  H     
37   H        26.0609   10.9981  -19.8886  H     
38   H        25.9233   13.8565  -22.3817  H     
39   H        25.8996   14.7533  -20.8600  H     
40   H        25.0614   13.2067  -20.9701  H     
41   H        28.5524   12.2821  -24.9772  H     
42   H        28.9279   13.9439  -24.5102  H     
43   H        27.3268   13.2897  -24.1606  H     
44   H        31.1268    9.9843  -22.6110  H     
45   H        31.2568    9.3176  -24.2424  H     
46   H        30.4437    8.3740  -22.9858  H     
@<TRIPOS>BOND
     1    1    2 1
     2    2    3 2
     3    2    4 1
     4    4    5 1
     5    4    7 2
     6    5    6 2
     7    6    9 1
     8    7    8 1
     9    8    9 2
    10    9   10 1
    11   10   11 2
    12   10   12 1
    13   11   16 1
    14   12   13 1
    15   12   14 2
    16   14   15 1
    17   15   16 2
    18   16   17 1
    19   17   18 1
    20   17   19 2
    21   18   26 2
    22   19   20 1
    23   20   21 1
    24   20   23 2
    25   21   22 1
    26   23   24 1
    27   23   26 1
    28   24   25 1
    29   26   27 1
    30   27   28 1
    31    5   29 1
    32    6   30 1
    33    7   31 1
    34    8   32 1
    35   13   33 1
    36   13   34 1
    37   15   35 1
    38   18   36 1
    39   19   37 1
    40   22   38 1
    41   22   39 1
    42   22   40 1
    43   25   41 1
    44   25   42 1
    45   25   43 1
    46   28   44 1
    47   28   45 1
    48   28   46 1
@<TRIPOS>PROPERTY_DATA
  Total_Score	| 9.5314
  Crash		| -1.0295
  Polar		| 4.9711
  FragIndex	| 1
  FragRMSD	| 0.760

