@<TRIPOS>MOLECULE
BindingDB_50330577
 49 51 0 0 0
SMALL
NO_CHARGES


@<TRIPOS>ATOM
1    C        25.6975   10.0025  -14.0243  C     
2    C        24.7307    9.2984  -14.9208  C     
3    C        25.2315    8.9122  -16.1892  C     
4    C        23.3711    8.9986  -14.5937  C     
5    C        22.7771    9.2780  -13.3334  C     
6    O        23.3784    8.9309  -12.1701  O     
7    O        21.4610    9.5714  -13.2494  O     
8    C        22.5541    8.3936  -15.5824  C     
9    C        23.0726    8.0186  -16.8309  C     
10   C        24.4298    8.2453  -17.1409  C     
11   C        24.9739    7.7989  -18.3731  C     
12   N        25.6415    8.6913  -19.1508  N     
13   C        24.8586    6.4781  -18.8649  C     
14   N        24.3238    5.4621  -18.1620  N     
15   N        25.3552    6.1986  -20.0953  N     
16   C        25.9910    7.1153  -20.8668  C     
17   C        26.1806    8.4342  -20.3776  C     
18   C        26.8755    9.4742  -21.0798  C     
19   C        27.7970    9.2049  -22.1254  C     
20   C        26.7023   10.8341  -20.7077  C     
21   C        27.3813   11.8789  -21.3703  C     
22   O        27.2296   13.1762  -20.9578  O     
23   C        25.9868   13.7831  -21.3629  C     
24   C        28.2911   11.5753  -22.4063  C     
25   O        29.0178   12.5808  -22.9854  O     
26   C        28.4817   13.0538  -24.2332  C     
27   C        28.5174   10.2308  -22.7694  C     
28   O        29.3813    9.9327  -23.7872  O     
29   C        30.6116    9.3120  -23.3653  C     
30   H        26.5681    9.3581  -13.8404  H     
31   H        25.2779   10.2849  -13.0580  H     
32   H        26.0374   10.9256  -14.5075  H     
33   H        26.2125    9.1062  -16.4172  H     
34   H        21.5689    8.1759  -15.3968  H     
35   H        22.4510    7.5667  -17.5102  H     
36   H        24.2933    4.5705  -18.5437  H     
37   H        24.0078    5.6051  -17.2537  H     
38   H        26.3114    6.8224  -21.7918  H     
39   H        27.9822    8.2427  -22.4098  H     
40   H        26.0699   11.0854  -19.9421  H     
41   H        25.8757   13.7841  -22.4481  H     
42   H        25.9864   14.8180  -21.0206  H     
43   H        25.1298   13.2764  -20.9130  H     
44   H        28.4850   12.2691  -24.9947  H     
45   H        29.1116   13.8711  -24.5868  H     
46   H        27.4649   13.4358  -24.1152  H     
47   H        31.1318    9.9138  -22.6148  H     
48   H        31.2621    9.2150  -24.2358  H     
49   H        30.4248    8.3104  -22.9707  H     
@<TRIPOS>BOND
     1    1    2 1
     2    2    3 1
     3    2    4 2
     4    3   10 2
     5    4    5 1
     6    4    8 1
     7    5    6 2
     8    5    7 1
     9    8    9 2
    10    9   10 1
    11   10   11 1
    12   11   12 2
    13   11   13 1
    14   12   17 1
    15   13   14 1
    16   13   15 2
    17   15   16 1
    18   16   17 2
    19   17   18 1
    20   18   19 1
    21   18   20 2
    22   19   27 2
    23   20   21 1
    24   21   22 1
    25   21   24 2
    26   22   23 1
    27   24   25 1
    28   24   27 1
    29   25   26 1
    30   27   28 1
    31   28   29 1
    32    1   30 1
    33    1   31 1
    34    1   32 1
    35    3   33 1
    36    8   34 1
    37    9   35 1
    38   14   36 1
    39   14   37 1
    40   16   38 1
    41   19   39 1
    42   20   40 1
    43   23   41 1
    44   23   42 1
    45   23   43 1
    46   26   44 1
    47   26   45 1
    48   26   46 1
    49   29   47 1
    50   29   48 1
    51   29   49 1
@<TRIPOS>PROPERTY_DATA
  Total_Score	| 10.8198
  Crash		| -0.5951
  Polar		| 5.1139
  FragIndex	| 1
  FragRMSD	| 0.633

