@<TRIPOS>MOLECULE
BindingDB_50330596
 52 54 0 0 0
SMALL
NO_CHARGES


@<TRIPOS>ATOM
1    C        25.9532    7.1461  -20.9598  C     
2    C        26.1657    8.4433  -20.4400  C     
3    N        25.6124    8.6879  -19.2149  N     
4    C        24.9135    7.7876  -18.4673  C     
5    C        24.7741    6.4834  -18.9971  C     
6    N        25.2878    6.2240  -20.2245  N     
7    N        24.2110    5.4683  -18.3231  N     
8    C        24.3899    8.1864  -17.2138  C     
9    C        25.2328    8.7543  -16.2368  C     
10   C        24.7613    9.1070  -14.9493  C     
11   C        23.3731    8.9240  -14.6480  C     
12   C        22.5315    8.3751  -15.6508  C     
13   C        23.0302    8.0042  -16.9050  C     
14   C        22.7766    9.2519  -13.3985  C     
15   O        21.4489    9.5389  -13.3184  O     
16   O        23.4038    9.0729  -12.2092  O     
17   C        26.8963    9.4842  -21.1078  C     
18   C        27.8198    9.2106  -22.1528  C     
19   C        28.5468   10.2406  -22.7924  C     
20   C        28.3329   11.5810  -22.4059  C     
21   C        27.4317   11.8755  -21.3636  C     
22   C        26.7315   10.8377  -20.7256  C     
23   O        27.2398   13.1672  -20.9655  O     
24   C        26.0454   13.7716  -21.4959  C     
25   O        28.9547   12.6033  -23.0724  O     
26   C        30.2796   12.9049  -22.6032  C     
27   O        29.3608    9.9739  -23.8637  O     
28   C        30.5978    9.3066  -23.5359  C     
29   C        25.7700    9.6253  -13.9794  C     
30   C        26.4016    8.4690  -13.1617  C     
31   H        26.2904    6.8663  -21.8790  H     
32   H        24.1828    4.5846  -18.7190  H     
33   H        23.8836    5.6004  -17.4196  H     
34   H        26.2220    8.8852  -16.4601  H     
35   H        21.5382    8.2143  -15.4753  H     
36   H        22.3926    7.6074  -17.6010  H     
37   H        27.9906    8.2474  -22.4582  H     
38   H        26.0898   11.0835  -19.9762  H     
39   H        26.0455   13.7527  -22.5890  H     
40   H        26.0170   14.8146  -21.1739  H     
41   H        25.1450   13.2794  -21.1191  H     
42   H        30.2892   13.1662  -21.5407  H     
43   H        30.6465   13.7650  -23.1650  H     
44   H        30.9571   12.0648  -22.7786  H     
45   H        31.1755    9.8679  -22.7918  H     
46   H        31.1994    9.2376  -24.4488  H     
47   H        30.4174    8.2900  -23.1690  H     
48   H        26.5731   10.1482  -14.5072  H     
49   H        25.3229   10.3607  -13.2952  H     
50   H        25.6318    7.8932  -12.6479  H     
51   H        27.0976    8.8678  -12.4194  H     
52   H        26.9554    7.7908  -13.8167  H     
@<TRIPOS>BOND
     1    1    2 2
     2    1    6 1
     3    2    3 1
     4    2   17 1
     5    3    4 2
     6    4    5 1
     7    4    8 1
     8    5    6 2
     9    5    7 1
    10    8    9 1
    11    8   13 2
    12    9   10 2
    13   10   11 1
    14   10   29 1
    15   11   12 2
    16   11   14 1
    17   12   13 1
    18   14   15 1
    19   14   16 2
    20   17   18 2
    21   17   22 1
    22   18   19 1
    23   19   20 2
    24   19   27 1
    25   20   21 1
    26   20   25 1
    27   21   22 2
    28   21   23 1
    29   23   24 1
    30   25   26 1
    31   27   28 1
    32   29   30 1
    33    1   31 1
    34    7   32 1
    35    7   33 1
    36    9   34 1
    37   12   35 1
    38   13   36 1
    39   18   37 1
    40   22   38 1
    41   24   39 1
    42   24   40 1
    43   24   41 1
    44   26   42 1
    45   26   43 1
    46   26   44 1
    47   28   45 1
    48   28   46 1
    49   28   47 1
    50   29   48 1
    51   29   49 1
    52   30   50 1
    53   30   51 1
    54   30   52 1
@<TRIPOS>PROPERTY_DATA
  Total_Score	| 10.9682
  Crash		| -1.1171
  Polar		| 4.8848
  FragIndex	| 1
  FragRMSD	| 0.783

