@<TRIPOS>MOLECULE
BindingDB_17712
 65 69 0 0 0
SMALL
NO_CHARGES


@<TRIPOS>ATOM
1    C        37.0339   39.0408   12.6280  C     
2    C        39.1358   39.9312   11.7475  C     
3    C        39.5547   38.6157   11.4866  C     
4    C        38.7052   37.5198   11.7549  C     
5    C        37.4373   37.7227   12.3430  C     
6    N        36.5461   36.7014   12.5516  N     
7    C        36.8301   35.4201   12.8582  C     
8    C        36.5489   33.2935   13.1979  C     
9    C        37.8718   33.6359   13.4673  C     
10   C        38.3844   31.3329   14.0146  C     
11   C        38.8046   32.6776   13.8951  C     
12   C        36.1147   31.9585   13.3099  C     
13   C        37.0454   30.9814   13.7267  C     
14   N        38.0320   34.9443   13.2461  N     
15   O        39.3013   30.4040   14.4159  O     
16   Cl       40.1792   41.1947   11.2747  Cl    
17   O        35.9034   34.4232   12.8386  O     
18   C        37.8717   40.1619   12.3534  C     
19   C        39.7696   29.4715   13.5120  C     
20   C        40.1795   28.4783   11.3231  C     
21   C        39.6541   29.5273   12.1034  C     
22   N        40.8077   27.4410   11.9302  N     
23   C        40.9738   27.3396   13.2798  C     
24   C        40.4506   28.3816   14.0874  C     
25   C        41.6485   26.2466   13.8145  C     
26   O        41.8375   26.1794   15.0292  O     
27   N        42.1092   25.2799   13.0356  N     
28   C        42.8700   24.1598   13.4810  C     
29   C        37.3452   41.5273   12.6505  C     
30   C        39.0113   43.0363   13.8337  C     
31   C        38.5211   44.4415   13.3813  C     
32   C        36.3278   44.0009   14.4692  C     
33   C        36.8380   42.5932   14.8911  C     
34   N        37.8835   42.0615   13.9604  N     
35   N        37.4329   44.9878   14.2476  N     
36   C        37.9490   45.6169   15.4953  C     
37   Cl       34.5308   31.5208   12.9163  Cl    
38   H        36.1089   39.1917   13.0401  H     
39   H        40.4622   38.4376   11.0447  H     
40   H        39.0105   36.5876   11.4734  H     
41   H        35.6048   36.9350   12.5315  H     
42   H        39.7637   32.9489   14.1055  H     
43   H        36.7531   30.0062   13.8098  H     
44   H        40.0983   28.4931   10.3051  H     
45   H        39.1893   30.3067   11.6363  H     
46   H        40.5550   28.3481   15.1057  H     
47   H        41.9317   25.3395   12.0842  H     
48   H        43.8028   24.4984   13.9418  H     
49   H        43.1137   23.5267   12.6290  H     
50   H        42.2961   23.5734   14.2041  H     
51   H        37.5654   42.1911   11.8124  H     
52   H        36.2529   41.4804   12.6579  H     
53   H        39.7761   42.6396   13.1404  H     
54   H        39.5039   43.1325   14.8057  H     
55   H        39.3748   45.1191   13.3490  H     
56   H        38.1468   44.3839   12.3571  H     
57   H        35.7670   43.8994   13.5380  H     
58   H        35.6223   44.3671   15.2211  H     
59   H        37.2605   42.6601   15.8946  H     
60   H        35.9989   41.8985   14.9606  H     
61   H        38.2785   41.2743   14.4708  H     
62   H        37.0149   45.7522   13.7180  H     
63   H        37.1398   46.1357   16.0169  H     
64   H        38.7102   46.3625   15.2507  H     
65   H        38.3872   44.8776   16.1712  H     
@<TRIPOS>BOND
     1    1    5 2
     2    1   18 1
     3    2    3 1
     4    2   16 1
     5    2   18 2
     6    3    4 2
     7    4    5 1
     8    5    6 1
     9    6    7 1
    10    7   14 2
    11    7   17 1
    12    8    9 2
    13    8   12 1
    14    8   17 1
    15    9   11 1
    16    9   14 1
    17   10   11 2
    18   10   13 1
    19   10   15 1
    20   12   13 2
    21   12   37 1
    22   15   19 1
    23   18   29 1
    24   19   21 2
    25   19   24 1
    26   20   21 1
    27   20   22 2
    28   22   23 1
    29   23   24 2
    30   23   25 1
    31   25   26 2
    32   25   27 am
    33   27   28 1
    34   29   34 1
    35   30   31 1
    36   30   34 1
    37   31   35 1
    38   32   33 1
    39   32   35 1
    40   33   34 1
    41   35   36 1
    42    1   38 1
    43    3   39 1
    44    4   40 1
    45    6   41 1
    46   11   42 1
    47   13   43 1
    48   20   44 1
    49   21   45 1
    50   24   46 1
    51   27   47 1
    52   28   48 1
    53   28   49 1
    54   28   50 1
    55   29   51 1
    56   29   52 1
    57   30   53 1
    58   30   54 1
    59   31   55 1
    60   31   56 1
    61   32   57 1
    62   32   58 1
    63   33   59 1
    64   33   60 1
    65   34   61 1
    66   35   62 1
    67   36   63 1
    68   36   64 1
    69   36   65 1
@<TRIPOS>PROPERTY_DATA
  Total_Score	| 13.2156
  Crash		| -1.6081
  Polar		| 5.1406
  FragIndex	| 1
  FragRMSD	| 0.314

