@<TRIPOS>MOLECULE
BindingDB_17706
 64 69 0 0 0
SMALL
NO_CHARGES


@<TRIPOS>ATOM
1    C        36.9320   39.0359   12.2650  C     
2    C        39.0787   39.9068   11.4990  C     
3    C        39.5754   38.5916   11.4645  C     
4    C        38.7549   37.5092   11.8098  C     
5    C        37.4187   37.7115   12.2272  C     
6    N        36.5373   36.7008   12.4993  N     
7    C        36.8097   35.4329   12.8762  C     
8    C        36.4774   33.3304   13.2695  C     
9    C        37.8165   33.6330   13.5021  C     
10   C        38.2743   31.3109   13.9949  C     
11   C        38.7289   32.6421   13.8932  C     
12   C        36.0011   32.0150   13.3960  C     
13   C        36.9157   30.9981   13.7498  C     
14   N        38.0026   34.9268   13.2520  N     
15   O        39.1970   30.3304   14.2610  O     
16   Cl       40.1562   41.1153   10.9884  Cl    
17   C        39.6692   29.5462   13.2206  C     
18   C        40.0944   29.0342   10.8613  C     
19   N        40.6763   27.8694   11.2274  N     
20   O        35.8546   34.4679   12.9012  O     
21   C        37.7380   40.1501   11.9116  C     
22   C        39.5750   29.8869   11.8410  C     
23   C        40.3330   28.3381   13.5661  C     
24   C        40.8098   27.4904   12.5221  C     
25   C        40.5741   27.9229   14.8873  C     
26   C        41.2298   26.7690   15.1413  C     
27   C        41.6262   25.9449   14.1240  C     
28   C        41.4308   26.2835   12.8359  C     
29   C        37.1338   41.5209   11.9279  C     
30   C        37.2744   43.9283   12.5538  C     
31   C        38.2636   45.0081   13.0640  C     
32   C        39.3034   43.3185   14.5695  C     
33   C        38.3033   42.2542   14.0451  C     
34   N        37.9169   42.5821   12.6381  N     
35   N        38.8047   44.7250   14.4310  N     
36   C        37.8978   45.1498   15.5342  C     
37   H        35.9559   39.1849   12.5421  H     
38   H        40.5320   38.4062   11.1494  H     
39   H        39.1345   36.5694   11.6997  H     
40   H        35.5948   36.9190   12.4446  H     
41   H        39.7111   32.8770   14.0512  H     
42   H        35.0222   31.7999   13.1952  H     
43   H        36.5992   30.0301   13.7904  H     
44   H        40.0417   29.2834    9.8707  H     
45   H        39.1327   30.7614   11.5428  H     
46   H        40.2747   28.4784   15.6511  H     
47   H        41.4178   26.5068   16.0800  H     
48   H        42.0590   25.0747   14.3412  H     
49   H        41.7250   25.6708   12.1111  H     
50   H        37.0264   41.8083   10.8763  H     
51   H        36.1265   41.5019   12.3529  H     
52   H        36.3492   43.9569   13.1391  H     
53   H        37.0238   44.1657   11.5160  H     
54   H        39.1087   45.0522   12.3711  H     
55   H        37.7780   45.9873   13.0281  H     
56   H        39.5591   43.0900   15.6089  H     
57   H        40.2281   43.2274   13.9940  H     
58   H        38.8009   41.2805   14.0877  H     
59   H        37.4219   42.2098   14.6904  H     
60   H        38.7917   42.6816   12.1272  H     
61   H        39.6240   45.3331   14.5130  H     
62   H        37.6644   46.2110   15.4386  H     
63   H        38.3900   45.0118   16.4985  H     
64   H        36.9649   44.5833   15.5331  H     
@<TRIPOS>BOND
     1    1    5 2
     2    1   21 1
     3    2    3 1
     4    2   16 1
     5    2   21 2
     6    3    4 2
     7    4    5 1
     8    5    6 1
     9    6    7 1
    10    7   14 2
    11    7   20 1
    12    8    9 2
    13    8   12 1
    14    8   20 1
    15    9   11 1
    16    9   14 1
    17   10   11 2
    18   10   13 1
    19   10   15 1
    20   12   13 2
    21   15   17 1
    22   17   22 1
    23   17   23 2
    24   18   19 1
    25   18   22 2
    26   19   24 2
    27   21   29 1
    28   23   24 1
    29   23   25 1
    30   24   28 1
    31   25   26 2
    32   26   27 1
    33   27   28 2
    34   29   34 1
    35   30   31 1
    36   30   34 1
    37   31   35 1
    38   32   33 1
    39   32   35 1
    40   33   34 1
    41   35   36 1
    42    1   37 1
    43    3   38 1
    44    4   39 1
    45    6   40 1
    46   11   41 1
    47   12   42 1
    48   13   43 1
    49   18   44 1
    50   22   45 1
    51   25   46 1
    52   26   47 1
    53   27   48 1
    54   28   49 1
    55   29   50 1
    56   29   51 1
    57   30   52 1
    58   30   53 1
    59   31   54 1
    60   31   55 1
    61   32   56 1
    62   32   57 1
    63   33   58 1
    64   33   59 1
    65   34   60 1
    66   35   61 1
    67   36   62 1
    68   36   63 1
    69   36   64 1
@<TRIPOS>PROPERTY_DATA
  Total_Score	| 12.8266
  Crash		| -1.5468
  Polar		| 4.4043
  FragIndex	| 1
  FragRMSD	| 0.448

