@<TRIPOS>MOLECULE
BindingDB_17711
 63 67 0 0 0
SMALL
NO_CHARGES


@<TRIPOS>ATOM
1    C        36.8186   39.1056   11.8047  C     
2    C        38.9530   39.9381   10.9415  C     
3    C        39.5250   38.6838   11.1969  C     
4    C        38.7633   37.6492   11.7592  C     
5    C        37.3801   37.8264   12.0386  C     
6    N        36.5491   36.8059   12.4142  N     
7    C        36.8436   35.5214   12.7366  C     
8    C        36.4826   33.4108   13.1262  C     
9    C        37.8404   33.6759   13.2837  C     
10   C        38.2407   31.3486   13.8434  C     
11   C        38.7392   32.6570   13.6521  C     
12   C        35.9735   32.1135   13.2973  C     
13   C        36.8626   31.0756   13.6683  C     
14   N        38.0448   34.9770   13.0345  N     
15   O        39.0911   30.3744   14.2871  O     
16   Cl       39.8688   41.0780   10.0865  Cl    
17   O        35.8735   34.5690   12.8047  O     
18   C        37.5896   40.1691   11.2854  C     
19   C        39.5813   29.4414   13.4056  C     
20   C        40.1102   28.4933   11.2277  C     
21   C        39.5121   29.5044   11.9989  C     
22   N        40.7451   27.4650   11.8426  N     
23   C        40.8504   27.3363   13.1971  C     
24   C        40.2551   28.3523   13.9945  C     
25   C        41.5341   26.2486   13.7403  C     
26   O        41.6334   26.1501   14.9607  O     
27   N        42.1039   25.3169   12.9775  N     
28   C        42.8506   24.2039   13.4679  C     
29   F        34.7008   31.8814   13.1286  F     
30   C        37.5690   42.4980   11.8220  C     
31   O        36.9985   41.3929   11.0805  O     
32   C        37.5029   42.2978   13.3726  C     
33   C        38.6022   44.1599   14.3996  C     
34   C        37.0848   44.4804   14.3773  C     
35   C        36.3916   43.1426   14.0360  C     
36   N        38.7119   42.7019   14.1435  N     
37   C        40.0408   42.2286   13.6708  C     
38   H        35.8212   39.2520   11.9846  H     
39   H        40.5040   38.5101   10.9478  H     
40   H        39.2053   36.7329   11.8687  H     
41   H        35.6023   37.0254   12.4484  H     
42   H        39.7300   32.8585   13.7878  H     
43   H        36.5070   30.1282   13.8117  H     
44   H        40.0793   28.5265   10.2068  H     
45   H        39.0311   30.2777   11.5246  H     
46   H        40.3146   28.3029   15.0181  H     
47   H        42.0172   25.3985   12.0118  H     
48   H        43.7242   24.5503   14.0254  H     
49   H        43.1940   23.5918   12.6333  H     
50   H        42.2266   23.5877   14.1187  H     
51   H        38.5909   42.6651   11.5092  H     
52   H        37.0187   43.4010   11.5308  H     
53   H        37.3195   41.2413   13.5806  H     
54   H        39.1112   44.7422   13.6174  H     
55   H        39.0388   44.4158   15.3741  H     
56   H        36.7318   44.8669   15.3481  H     
57   H        36.8759   45.2337   13.6051  H     
58   H        35.5213   43.2942   13.3936  H     
59   H        36.0593   42.6715   14.9598  H     
60   H        38.6193   42.2339   15.0426  H     
61   H        40.4067   42.7865   12.8096  H     
62   H        39.9997   41.1706   13.4120  H     
63   H        40.7628   42.3416   14.4814  H     
@<TRIPOS>BOND
     1    1    5 2
     2    1   18 1
     3    2    3 1
     4    2   16 1
     5    2   18 2
     6    3    4 2
     7    4    5 1
     8    5    6 1
     9    6    7 1
    10    7   14 2
    11    7   17 1
    12    8    9 2
    13    8   12 1
    14    8   17 1
    15    9   11 1
    16    9   14 1
    17   10   11 2
    18   10   13 1
    19   10   15 1
    20   12   13 2
    21   12   29 1
    22   15   19 1
    23   18   31 1
    24   19   21 2
    25   19   24 1
    26   20   21 1
    27   20   22 2
    28   22   23 1
    29   23   24 2
    30   23   25 1
    31   25   26 2
    32   25   27 am
    33   27   28 1
    34   30   31 1
    35   32   30 1
    36   32   35 1
    37   32   36 1
    38   33   34 1
    39   33   36 1
    40   34   35 1
    41   36   37 1
    42    1   38 1
    43    3   39 1
    44    4   40 1
    45    6   41 1
    46   11   42 1
    47   13   43 1
    48   20   44 1
    49   21   45 1
    50   24   46 1
    51   27   47 1
    52   28   48 1
    53   28   49 1
    54   28   50 1
    55   30   51 1
    56   30   52 1
    57   32   53 1
    58   33   54 1
    59   33   55 1
    60   34   56 1
    61   34   57 1
    62   35   58 1
    63   35   59 1
    64   36   60 1
    65   37   61 1
    66   37   62 1
    67   37   63 1
@<TRIPOS>PROPERTY_DATA
  Total_Score	| 13.1724
  Crash		| -1.2384
  Polar		| 4.9343
  FragIndex	| 1
  FragRMSD	| 0.888

