@<TRIPOS>MOLECULE
BindingDB_17704
 70 75 0 0 0
SMALL
NO_CHARGES


@<TRIPOS>ATOM
1    C        36.7466   38.9468   12.2291  C     
2    C        38.8930   40.0359   11.8433  C     
3    C        39.4960   38.7769   11.6983  C     
4    C        38.7336   37.5970   11.8575  C     
5    C        37.3557   37.6768   12.1642  C     
6    N        36.5578   36.5847   12.3739  N     
7    C        36.9195   35.3552   12.7886  C     
8    C        36.6130   33.2732   13.2859  C     
9    C        37.9504   33.5873   13.4780  C     
10   C        38.3935   31.2632   14.0131  C     
11   C        38.8588   32.5897   13.8879  C     
12   C        36.1119   31.9836   13.4790  C     
13   C        37.0159   30.9648   13.8170  C     
14   N        38.1271   34.8833   13.1697  N     
15   O        39.2935   30.2398   14.2462  O     
16   Cl       39.8604   41.4141   11.6866  Cl    
17   C        39.7052   29.4502   13.1918  C     
18   C        40.1214   29.0275   10.8233  C     
19   N        40.6780   27.8377   11.1498  N     
20   O        35.9748   34.3788   12.8711  O     
21   C        37.5101   40.1297   12.1102  C     
22   O        36.8745   41.3410   12.1784  O     
23   C        36.5411   41.8234   13.5003  C     
24   C        37.4861   42.9856   13.9171  C     
25   C        38.2217   45.2191   13.9206  C     
26   C        37.8542   44.9097   15.3869  C     
27   C        37.2466   43.4938   15.3581  C     
28   N        37.5048   44.2250   13.0816  N     
29   C        36.1856   44.7192   12.5785  C     
30   C        39.6310   29.8683   11.8386  C     
31   C        40.3243   28.2019   13.4823  C     
32   C        40.8058   27.3864   12.4181  C     
33   C        40.5567   27.7469   14.7887  C     
34   C        41.3107   26.6408   15.0194  C     
35   C        41.6670   25.8068   13.9794  C     
36   C        41.4215   26.1602   12.6970  C     
37   O        42.0564   24.5442   14.2635  O     
38   C        43.2499   24.0478   13.6380  C     
39   O        41.6331   26.2671   16.2708  O     
40   C        42.3563   27.2477   17.0781  C     
41   H        35.7367   39.0095   12.3844  H     
42   H        40.4943   38.7141   11.4837  H     
43   H        39.1714   36.6816   11.7313  H     
44   H        35.5977   36.7340   12.3009  H     
45   H        39.8435   32.8177   14.0358  H     
46   H        35.1296   31.7702   13.3049  H     
47   H        36.7019   29.9904   13.8632  H     
48   H        40.0699   29.2710    9.8320  H     
49   H        35.5106   42.1843   13.4678  H     
50   H        36.5793   41.0346   14.2605  H     
51   H        38.5034   42.5738   13.8918  H     
52   H        37.9923   46.2582   13.6705  H     
53   H        39.2969   45.0760   13.7779  H     
54   H        38.7427   44.9459   16.0227  H     
55   H        37.1241   45.6306   15.7636  H     
56   H        36.1758   43.5417   15.5767  H     
57   H        37.7280   42.8384   16.0902  H     
58   H        38.0778   44.0403   12.2556  H     
59   H        35.4640   44.8416   13.3890  H     
60   H        35.7801   44.0191   11.8470  H     
61   H        36.3043   45.6796   12.0726  H     
62   H        39.2212   30.7688   11.5937  H     
63   H        40.1941   28.2344   15.5719  H     
64   H        41.6427   25.5353   11.9437  H     
65   H        43.0341   23.7962   12.6033  H     
66   H        43.5625   23.1411   14.1504  H     
67   H        44.0800   24.7484   13.6907  H     
68   H        43.3570   27.4835   16.6689  H     
69   H        42.4725   26.8483   18.0741  H     
70   H        41.7845   28.1887   17.1780  H     
@<TRIPOS>BOND
     1    1    5 2
     2    1   21 1
     3    2    3 1
     4    2   16 1
     5    2   21 2
     6    3    4 2
     7    4    5 1
     8    5    6 1
     9    6    7 1
    10    7   14 2
    11    7   20 1
    12    8    9 2
    13    8   12 1
    14    8   20 1
    15    9   11 1
    16    9   14 1
    17   10   11 2
    18   10   13 1
    19   10   15 1
    20   12   13 2
    21   15   17 1
    22   17   30 1
    23   17   31 2
    24   18   19 1
    25   18   30 2
    26   19   32 2
    27   21   22 1
    28   22   23 1
    29   24   23 1
    30   24   27 1
    31   24   28 1
    32   25   26 1
    33   25   28 1
    34   26   27 1
    35   28   29 1
    36   31   32 1
    37   31   33 1
    38   32   36 1
    39   33   34 2
    40   34   35 1
    41   34   39 1
    42   35   36 2
    43   35   37 1
    44   37   38 1
    45   39   40 1
    46    1   41 1
    47    3   42 1
    48    4   43 1
    49    6   44 1
    50   11   45 1
    51   12   46 1
    52   13   47 1
    53   18   48 1
    54   23   49 1
    55   23   50 1
    56   24   51 1
    57   25   52 1
    58   25   53 1
    59   26   54 1
    60   26   55 1
    61   27   56 1
    62   27   57 1
    63   28   58 1
    64   29   59 1
    65   29   60 1
    66   29   61 1
    67   30   62 1
    68   33   63 1
    69   36   64 1
    70   38   65 1
    71   38   66 1
    72   38   67 1
    73   40   68 1
    74   40   69 1
    75   40   70 1
@<TRIPOS>PROPERTY_DATA
  Total_Score	| 12.0335
  Crash		| -1.5151
  Polar		| 2.6492
  FragIndex	| 1
  FragRMSD	| 1.147

