@<TRIPOS>MOLECULE
BindingDB_17701
 63 67 0 0 0
SMALL
NO_CHARGES


@<TRIPOS>ATOM
1    C        37.0819   39.1512   12.4385  C     
2    C        39.2320   40.0362   11.7297  C     
3    C        39.7016   38.7232   11.5507  C     
4    C        38.8633   37.6285   11.8135  C     
5    C        37.5386   37.8280   12.2618  C     
6    N        36.6467   36.8157   12.4643  N     
7    C        36.9029   35.5125   12.7026  C     
8    C        36.4825   33.4146   13.0489  C     
9    C        37.8446   33.6397   13.2138  C     
10   C        38.1684   31.3091   13.7937  C     
11   C        38.7046   32.6004   13.5999  C     
12   C        35.9296   32.1337   13.2199  C     
13   C        36.7871   31.0777   13.5968  C     
14   N        38.0888   34.9368   12.9896  N     
15   O        38.9854   30.3189   14.2552  O     
16   Cl       40.2540   41.3102   11.2816  Cl    
17   C        39.5052   29.3961   13.3765  C     
18   C        40.7738   27.2989   13.2173  C     
19   C        40.1249   28.4667   11.2206  C     
20   C        39.5078   29.4822   11.9637  C     
21   N        40.7274   27.4361   11.8612  N     
22   C        40.1409   28.2996   13.9915  C     
23   C        41.4596   26.2311   13.7890  C     
24   O        41.5116   26.1116   15.0083  O     
25   N        42.0925   25.3517   13.0226  N     
26   C        42.8746   24.2462   13.4759  C     
27   O        35.9032   34.5964   12.7505  O     
28   C        37.9238   40.2601   12.2236  C     
29   O        37.3428   41.4940   12.3984  O     
30   C        36.9363   41.9141   13.7242  C     
31   C        36.2869   44.0341   15.0893  C     
32   C        37.6350   44.8193   15.1596  C     
33   C        36.1244   43.2418   13.7405  C     
34   C        36.3898   44.2142   12.5378  C     
35   C        37.7498   44.9500   12.6802  C     
36   N        37.8002   45.6796   13.9655  N     
37   H        36.1180   39.3104   12.7392  H     
38   H        40.6384   38.5467   11.1862  H     
39   H        39.2175   36.6852   11.6321  H     
40   H        35.7101   37.0589   12.4931  H     
41   H        39.6979   32.7782   13.7583  H     
42   H        34.9265   31.9802   13.0939  H     
43   H        36.3976   30.1409   13.7318  H     
44   H        40.1452   28.5116   10.2013  H     
45   H        39.0782   30.2729   11.4806  H     
46   H        40.1558   28.2509   15.0134  H     
47   H        42.0312   25.4721   12.0618  H     
48   H        43.7252   24.5926   14.0690  H     
49   H        43.2557   23.7089   12.6054  H     
50   H        42.2660   23.5606   14.0703  H     
51   H        36.3320   41.1492   14.2367  H     
52   H        37.8646   42.0198   14.2925  H     
53   H        36.2285   43.3532   15.9465  H     
54   H        35.4701   44.7598   15.1907  H     
55   H        37.6320   45.4582   16.0494  H     
56   H        38.4872   44.1372   15.2473  H     
57   H        35.0589   42.9620   13.6777  H     
58   H        36.3689   43.6685   11.5907  H     
59   H        35.5902   44.9610   12.4948  H     
60   H        38.5815   44.2449   12.6006  H     
61   H        37.8362   45.6757   11.8690  H     
62   H        37.0505   46.3801   13.9739  H     
63   H        38.6999   46.1719   14.0263  H     
@<TRIPOS>BOND
     1    1    5 2
     2    1   28 1
     3    2    3 1
     4    2   16 1
     5    2   28 2
     6    3    4 2
     7    4    5 1
     8    5    6 1
     9    6    7 1
    10    7   14 2
    11    7   27 1
    12    8    9 2
    13    8   12 1
    14    8   27 1
    15    9   11 1
    16    9   14 1
    17   10   11 2
    18   10   13 1
    19   10   15 1
    20   12   13 2
    21   15   17 1
    22   17   20 1
    23   17   22 2
    24   18   21 2
    25   18   22 1
    26   18   23 1
    27   19   20 2
    28   19   21 1
    29   23   24 2
    30   23   25 am
    31   25   26 1
    32   28   29 1
    33   29   30 1
    34   30   33 1
    35   31   32 1
    36   31   33 1
    37   32   36 1
    38   33   34 1
    39   34   35 1
    40   35   36 1
    41    1   37 1
    42    3   38 1
    43    4   39 1
    44    6   40 1
    45   11   41 1
    46   12   42 1
    47   13   43 1
    48   19   44 1
    49   20   45 1
    50   22   46 1
    51   25   47 1
    52   26   48 1
    53   26   49 1
    54   26   50 1
    55   30   51 1
    56   30   52 1
    57   31   53 1
    58   31   54 1
    59   32   55 1
    60   32   56 1
    61   33   57 1
    62   34   58 1
    63   34   59 1
    64   35   60 1
    65   35   61 1
    66   36   62 1
    67   36   63 1
@<TRIPOS>PROPERTY_DATA
  Total_Score	| 12.0912
  Crash		| -0.6897
  Polar		| 4.5187
  FragIndex	| 1
  FragRMSD	| 0.265

