@<TRIPOS>MOLECULE
BindingDB_17710
 62 67 0 0 0
SMALL
NO_CHARGES


@<TRIPOS>ATOM
1    C        36.9942   39.0587   12.2985  C     
2    C        39.1361   39.9529   11.5452  C     
3    C        39.6431   38.6432   11.4976  C     
4    C        38.8301   37.5485   11.8153  C     
5    C        37.4879   37.7375   12.2401  C     
6    N        36.6048   36.7233   12.5100  N     
7    C        36.8319   35.4218   12.7886  C     
8    C        36.3860   33.3316   13.1214  C     
9    C        37.7594   33.5352   13.2409  C     
10   C        38.0708   31.1636   13.7032  C     
11   C        38.6180   32.4594   13.5418  C     
12   C        35.8173   32.0495   13.2658  C     
13   C        36.6721   30.9675   13.5683  C     
14   N        38.0147   34.8162   13.0271  N     
15   O        38.8772   30.0877   14.0010  O     
16   Cl       40.2221   41.1465   11.0168  Cl    
17   O        35.8160   34.5205   12.8574  O     
18   C        37.7918   40.1918   11.9614  C     
19   C        39.5548   29.4631   12.9758  C     
20   C        40.2793   29.0789   10.6591  C     
21   C        39.4912   29.7834   11.5893  C     
22   N        41.0940   28.0748   11.0736  N     
23   C        41.1700   27.7324   12.3818  C     
24   C        40.7454   27.8328   14.5624  C     
25   C        41.6689   26.8201   14.3018  C     
26   C        40.4197   28.4121   13.3447  C     
27   N        41.9079   26.7850   12.9789  N     
28   C        37.1740   41.5570   11.9642  C     
29   C        38.2917   42.3105   14.0974  C     
30   C        39.2684   43.3962   14.6254  C     
31   C        38.2114   45.0672   13.0999  C     
32   C        37.2459   43.9640   12.5964  C     
33   N        37.9200   42.6394   12.6866  N     
34   N        38.7644   44.7957   14.4680  N     
35   C        37.8663   45.2254   15.5771  C     
36   H        36.0081   39.1997   12.5601  H     
37   H        40.6004   38.4631   11.1810  H     
38   H        39.2165   36.6186   11.6641  H     
39   H        35.6730   36.9793   12.5509  H     
40   H        39.6239   32.6081   13.6368  H     
41   H        34.8067   31.9141   13.1382  H     
42   H        36.2715   30.0322   13.6739  H     
43   H        40.2496   29.3228    9.6686  H     
44   H        38.8856   30.5357   11.2500  H     
45   H        40.3758   28.0913   15.4829  H     
46   H        42.0949   26.2126   14.9985  H     
47   H        42.5220   26.1864   12.5287  H     
48   H        37.0807   41.8415   10.9151  H     
49   H        36.1596   41.5152   12.3854  H     
50   H        38.8147   41.3478   14.1411  H     
51   H        37.4002   42.2426   14.7312  H     
52   H        39.5159   43.1751   15.6686  H     
53   H        40.2022   43.3101   14.0608  H     
54   H        39.0571   45.1359   12.4078  H     
55   H        37.7018   46.0369   13.0652  H     
56   H        36.3185   43.9795   13.1900  H     
57   H        36.9953   44.1943   11.5530  H     
58   H        38.7978   42.7711   12.1864  H     
59   H        39.5795   45.4062   14.5360  H     
60   H        37.6265   46.2847   15.4776  H     
61   H        38.3727   45.0970   16.5365  H     
62   H        36.9385   44.6509   15.5903  H     
@<TRIPOS>BOND
     1    1    5 2
     2    1   18 1
     3    2    3 1
     4    2   16 1
     5    2   18 2
     6    3    4 2
     7    4    5 1
     8    5    6 1
     9    6    7 1
    10    7   14 2
    11    7   17 1
    12    8    9 2
    13    8   12 1
    14    8   17 1
    15    9   11 1
    16    9   14 1
    17   10   11 2
    18   10   13 1
    19   10   15 1
    20   12   13 2
    21   15   19 1
    22   18   28 1
    23   19   21 2
    24   19   26 1
    25   20   21 1
    26   20   22 2
    27   22   23 1
    28   23   26 2
    29   23   27 1
    30   24   25 2
    31   24   26 1
    32   25   27 1
    33   28   33 1
    34   29   30 1
    35   29   33 1
    36   30   34 1
    37   31   32 1
    38   31   34 1
    39   32   33 1
    40   34   35 1
    41    1   36 1
    42    3   37 1
    43    4   38 1
    44    6   39 1
    45   11   40 1
    46   12   41 1
    47   13   42 1
    48   20   43 1
    49   21   44 1
    50   24   45 1
    51   25   46 1
    52   27   47 1
    53   28   48 1
    54   28   49 1
    55   29   50 1
    56   29   51 1
    57   30   52 1
    58   30   53 1
    59   31   54 1
    60   31   55 1
    61   32   56 1
    62   32   57 1
    63   33   58 1
    64   34   59 1
    65   35   60 1
    66   35   61 1
    67   35   62 1
@<TRIPOS>PROPERTY_DATA
  Total_Score	| 12.7526
  Crash		| -1.3811
  Polar		| 5.1745
  FragIndex	| 1
  FragRMSD	| 0.564

