@<TRIPOS>MOLECULE
BindingDB_17696
 43 46 0 0 0
SMALL
NO_CHARGES


@<TRIPOS>ATOM
1    C        36.9258   39.1389   12.3834  C     
2    C        37.7934   40.2429   12.2884  C     
3    C        39.1506   40.0493   11.9609  C     
4    C        39.6331   38.7476   11.7166  C     
5    C        38.7661   37.6448   11.8238  C     
6    C        37.4122   37.8273   12.1842  C     
7    N        36.5319   36.7930   12.2957  N     
8    C        36.8294   35.5035   12.5691  C     
9    C        36.4711   33.4118   12.9817  C     
10   C        37.8252   33.6867   13.1589  C     
11   C        38.2032   31.3880   13.8351  C     
12   C        38.7106   32.6829   13.5873  C     
13   C        35.9494   32.1271   13.2104  C     
14   C        36.8276   31.1150   13.6470  C     
15   N        38.0311   34.9811   12.8922  N     
16   O        39.0444   30.4142   14.2938  O     
17   Cl       40.1794   41.3868   11.8234  Cl    
18   C        39.5564   29.4844   13.4143  C     
19   C        40.7901   27.3655   13.2172  C     
20   C        40.0823   28.5241   11.2401  C     
21   C        39.4954   29.5446   12.0003  C     
22   N        40.6996   27.4889   11.8611  N     
23   C        40.2077   28.3876   14.0112  C     
24   C        41.4633   26.2803   13.7756  C     
25   O        41.5414   26.1717   14.9953  O     
26   N        42.0454   25.3654   13.0064  N     
27   C        42.8136   24.2601   13.4808  C     
28   O        35.8597   34.5569   12.6278  O     
29   H        35.9458   39.2941   12.6375  H     
30   H        37.4339   41.1830   12.4719  H     
31   H        40.6116   38.5969   11.4592  H     
32   H        39.1191   36.7081   11.6040  H     
33   H        35.5892   37.0233   12.3264  H     
34   H        39.6984   32.8949   13.7423  H     
35   H        34.9509   31.9374   13.0874  H     
36   H        36.4640   30.1791   13.8371  H     
37   H        40.0635   28.5651   10.2199  H     
38   H        39.0308   30.3183   11.5184  H     
39   H        40.2594   28.3432   15.0340  H     
40   H        41.9605   25.4557   12.0416  H     
41   H        43.6933   24.6134   14.0252  H     
42   H        43.1467   23.6680   12.6279  H     
43   H        42.2076   23.6278   14.1335  H     
@<TRIPOS>BOND
     1    1    2 1
     2    1    6 2
     3    2    3 2
     4    3    4 1
     5    3   17 1
     6    4    5 2
     7    5    6 1
     8    6    7 1
     9    7    8 1
    10    8   15 2
    11    8   28 1
    12    9   10 2
    13    9   13 1
    14    9   28 1
    15   10   12 1
    16   10   15 1
    17   11   12 2
    18   11   14 1
    19   11   16 1
    20   13   14 2
    21   16   18 1
    22   18   21 1
    23   18   23 2
    24   19   22 2
    25   19   23 1
    26   19   24 1
    27   20   21 2
    28   20   22 1
    29   24   25 2
    30   24   26 am
    31   26   27 1
    32    1   29 1
    33    2   30 1
    34    4   31 1
    35    5   32 1
    36    7   33 1
    37   12   34 1
    38   13   35 1
    39   14   36 1
    40   20   37 1
    41   21   38 1
    42   23   39 1
    43   26   40 1
    44   27   41 1
    45   27   42 1
    46   27   43 1
@<TRIPOS>PROPERTY_DATA
  Total_Score	| 10.5182
  Crash		| -0.5901
  Polar		| 2.9717
  FragIndex	| 1
  FragRMSD	| 0.110

