@<TRIPOS>MOLECULE
BindingDB_17703
 69 74 0 0 0
SMALL
NO_CHARGES


@<TRIPOS>ATOM
1    C        43.8722   32.5385   21.6425  C     
2    C        42.0752   32.5659   23.2887  C     
3    C        41.7658   31.2371   22.9444  C     
4    C        42.5115   30.5553   21.9673  C     
5    C        43.5926   31.1902   21.3203  C     
6    N        44.4383   30.4995   20.4959  N     
7    C        44.0856   29.5668   19.5819  C     
8    C        44.2830   28.0004   18.1058  C     
9    C        42.9443   28.3603   18.2096  C     
10   C        42.3671   26.7863   16.4442  C     
11   C        41.9731   27.7435   17.4062  C     
12   C        44.6935   26.9856   17.2197  C     
13   C        43.7273   26.3869   16.3815  C     
14   N        42.8364   29.3222   19.1328  N     
15   O        41.3764   26.1826   15.7232  O     
16   Cl       41.2103   33.2361   24.5839  Cl    
17   C        41.3665   26.4197   14.3796  C     
18   C        41.7529   25.4609   12.2446  C     
19   N        41.0680   26.4668   11.6453  N     
20   O        44.9916   28.7683   18.9545  O     
21   C        43.1070   33.2549   22.5945  C     
22   O        43.4808   34.5590   22.8235  O     
23   C        42.4862   35.5440   23.1833  C     
24   C        42.8113   36.9311   22.5409  C     
25   C        40.9772   37.4801   21.1127  C     
26   C        40.7110   38.1809   22.4591  C     
27   C        42.0495   38.1062   23.2065  C     
28   N        42.4150   37.1032   21.1207  N     
29   C        42.7823   36.0215   20.1679  C     
30   N        41.8651   25.4357   13.5922  N     
31   C        40.5208   27.4771   12.3634  C     
32   C        40.6822   27.5058   13.7776  C     
33   C        40.1444   28.5862   14.4717  C     
34   C        39.5137   29.5921   13.8265  C     
35   C        39.7567   28.4735   11.7458  C     
36   C        39.2050   29.4673   12.4762  C     
37   O        38.4681   30.4045   11.8454  O     
38   C        37.2543   30.8305   12.5272  C     
39   O        39.0675   30.6508   14.5387  O     
40   C        39.7500   31.8900   14.2636  C     
41   H        44.6458   33.0122   21.1672  H     
42   H        41.0128   30.7425   23.4301  H     
43   H        42.2885   29.5771   21.7706  H     
44   H        45.3882   30.6908   20.5844  H     
45   H        40.9942   28.0116   17.5115  H     
46   H        45.6696   26.6832   17.1878  H     
47   H        44.0118   25.6537   15.7265  H     
48   H        42.1281   24.6983   11.6795  H     
49   H        41.4804   35.2419   22.9027  H     
50   H        42.5225   35.6479   24.2678  H     
51   H        43.8861   37.1079   22.6405  H     
52   H        40.3242   36.6027   21.0172  H     
53   H        40.7759   38.1546   20.2785  H     
54   H        40.4005   39.2194   22.3220  H     
55   H        39.9335   37.6545   23.0216  H     
56   H        41.9100   37.9785   24.2832  H     
57   H        42.6100   39.0331   23.0491  H     
58   H        42.9089   37.9438   20.8099  H     
59   H        42.2478   35.0925   20.3743  H     
60   H        43.8538   35.8236   20.2085  H     
61   H        42.5365   36.3289   19.1536  H     
62   H        40.2707   28.6599   15.4482  H     
63   H        39.5792   28.4216   10.7634  H     
64   H        36.4933   30.0448   12.5197  H     
65   H        36.8606   31.7040   11.9959  H     
66   H        37.4268   31.1304   13.5800  H     
67   H        40.8227   31.8008   14.4357  H     
68   H        39.3535   32.6483   14.9413  H     
69   H        39.5750   32.2263   13.2385  H     
@<TRIPOS>BOND
     1    1    5 2
     2    1   21 1
     3    2    3 1
     4    2   16 1
     5    2   21 2
     6    3    4 2
     7    4    5 1
     8    5    6 1
     9    6    7 1
    10    7   14 2
    11    7   20 1
    12    8    9 2
    13    8   12 1
    14    8   20 1
    15    9   11 1
    16    9   14 1
    17   10   11 2
    18   10   13 1
    19   10   15 1
    20   12   13 2
    21   15   17 1
    22   17   30 1
    23   17   32 2
    24   18   19 1
    25   18   30 2
    26   19   31 2
    27   21   22 1
    28   22   23 1
    29   24   23 1
    30   24   27 1
    31   24   28 1
    32   25   26 1
    33   25   28 1
    34   26   27 1
    35   28   29 1
    36   31   32 1
    37   31   35 1
    38   32   33 1
    39   33   34 2
    40   34   36 1
    41   34   39 1
    42   35   36 2
    43   36   37 1
    44   37   38 1
    45   39   40 1
    46    1   41 1
    47    3   42 1
    48    4   43 1
    49    6   44 1
    50   11   45 1
    51   12   46 1
    52   13   47 1
    53   18   48 1
    54   23   49 1
    55   23   50 1
    56   24   51 1
    57   25   52 1
    58   25   53 1
    59   26   54 1
    60   26   55 1
    61   27   56 1
    62   27   57 1
    63   28   58 1
    64   29   59 1
    65   29   60 1
    66   29   61 1
    67   33   62 1
    68   35   63 1
    69   38   64 1
    70   38   65 1
    71   38   66 1
    72   40   67 1
    73   40   68 1
    74   40   69 1
@<TRIPOS>PROPERTY_DATA
  Total_Score	| 6.9695
  Crash		| -3.9867
  Polar		| 3.4184
  FragIndex	| 1
  FragRMSD	| 0.967

