@<TRIPOS>MOLECULE
BindingDB_17702
 60 64 0 0 0
SMALL
NO_CHARGES


@<TRIPOS>ATOM
1    C        36.9857   39.0838   12.4341  C     
2    C        39.1675   39.9837   11.8224  C     
3    C        39.5932   38.6917   11.4654  C     
4    C        38.7174   37.5949   11.6111  C     
5    C        37.4151   37.7660   12.1198  C     
6    N        36.5297   36.7465   12.3104  N     
7    C        36.8132   35.4677   12.6535  C     
8    C        36.4577   33.3885   13.1212  C     
9    C        37.8128   33.6567   13.2820  C     
10   C        38.2113   31.3544   13.9267  C     
11   C        38.7051   32.6640   13.7000  C     
12   C        35.9419   32.1010   13.3488  C     
13   C        36.8310   31.0821   13.7493  C     
14   N        38.0152   34.9510   12.9872  N     
15   O        39.0814   30.3639   14.2919  O     
16   Cl       40.2503   41.2701   11.5949  Cl    
17   C        39.5540   29.5141   13.3010  C     
18   C        40.1462   28.8804   11.0160  C     
19   N        40.6318   27.7155   11.4916  N     
20   O        35.8400   34.5247   12.7375  O     
21   C        37.8603   40.1870   12.3282  C     
22   O        37.5059   41.4801   12.6686  O     
23   C        36.7703   41.6759   13.8940  C     
24   C        36.8254   43.1420   14.4217  C     
25   C        39.0023   44.0969   14.0961  C     
26   C        38.1207   44.5730   12.9220  C     
27   C        36.6818   44.2351   13.3417  C     
28   N        38.1296   43.4191   15.0944  N     
29   C        38.0028   44.1623   16.3811  C     
30   C        40.6339   27.3616   12.8114  C     
31   C        40.0788   28.2754   13.7400  C     
32   C        41.1892   26.1335   13.1562  C     
33   C        39.6104   29.8248   11.9279  C     
34   O        41.6029   25.3811   12.2851  O     
35   N        41.3327   25.7050   14.3880  N     
36   H        36.0288   39.2141   12.7681  H     
37   H        40.5284   38.5318   11.0838  H     
38   H        39.0419   36.6750   11.3127  H     
39   H        35.5867   36.9860   12.3211  H     
40   H        39.6983   32.8641   13.8086  H     
41   H        34.9436   31.9090   13.2238  H     
42   H        36.4789   30.1353   13.8932  H     
43   H        40.1884   29.1073   10.0246  H     
44   H        35.7247   41.4325   13.7023  H     
45   H        37.1340   41.0144   14.6897  H     
46   H        35.9866   43.2353   15.1222  H     
47   H        39.7404   43.3747   13.7436  H     
48   H        39.5519   44.9467   14.5121  H     
49   H        38.2304   45.6474   12.7498  H     
50   H        38.3906   44.0465   12.0001  H     
51   H        36.0705   43.9182   12.4922  H     
52   H        36.2222   45.1224   13.7870  H     
53   H        38.5605   42.5192   15.3393  H     
54   H        37.5430   45.1432   16.2303  H     
55   H        38.9888   44.3004   16.8318  H     
56   H        37.3933   43.5909   17.0866  H     
57   H        40.0567   28.0548   14.7398  H     
58   H        39.2674   30.7075   11.5552  H     
59   H        41.7326   24.8340   14.5491  H     
60   H        41.0564   26.2489   15.1421  H     
@<TRIPOS>BOND
     1    1    5 2
     2    1   21 1
     3    2    3 1
     4    2   16 1
     5    2   21 2
     6    3    4 2
     7    4    5 1
     8    5    6 1
     9    6    7 1
    10    7   14 2
    11    7   20 1
    12    8    9 2
    13    8   12 1
    14    8   20 1
    15    9   11 1
    16    9   14 1
    17   10   11 2
    18   10   13 1
    19   10   15 1
    20   12   13 2
    21   15   17 1
    22   17   31 2
    23   17   33 1
    24   18   19 1
    25   18   33 2
    26   19   30 2
    27   21   22 1
    28   22   23 1
    29   24   23 1
    30   24   27 1
    31   24   28 1
    32   25   26 1
    33   25   28 1
    34   26   27 1
    35   28   29 1
    36   30   31 1
    37   30   32 1
    38   32   34 2
    39   32   35 am
    40    1   36 1
    41    3   37 1
    42    4   38 1
    43    6   39 1
    44   11   40 1
    45   12   41 1
    46   13   42 1
    47   18   43 1
    48   23   44 1
    49   23   45 1
    50   24   46 1
    51   25   47 1
    52   25   48 1
    53   26   49 1
    54   26   50 1
    55   27   51 1
    56   27   52 1
    57   28   53 1
    58   29   54 1
    59   29   55 1
    60   29   56 1
    61   31   57 1
    62   33   58 1
    63   35   59 1
    64   35   60 1
@<TRIPOS>PROPERTY_DATA
  Total_Score	| 11.6364
  Crash		| -1.0598
  Polar		| 4.9506
  FragIndex	| 1
  FragRMSD	| 0.761

