@<TRIPOS>MOLECULE
BindingDB_17709
 60 65 0 0 0
SMALL
NO_CHARGES


@<TRIPOS>ATOM
1    C        36.9548   39.0580   12.3002  C     
2    C        39.1691   39.9573   11.8299  C     
3    C        39.6393   38.6438   11.6626  C     
4    C        38.7838   37.5493   11.8331  C     
5    C        37.4388   37.7328   12.2130  C     
6    N        36.5648   36.7064   12.4489  N     
7    C        36.8317   35.4143   12.7556  C     
8    C        36.4399   33.3320   13.1997  C     
9    C        37.8134   33.5574   13.2981  C     
10   C        38.1722   31.2178   13.8362  C     
11   C        38.7003   32.5155   13.6156  C     
12   C        35.9013   32.0526   13.4209  C     
13   C        36.7776   30.9975   13.7515  C     
14   N        38.0320   34.8489   13.0162  N     
15   O        39.0099   30.1685   14.1007  O     
16   Cl       40.3799   41.1333   11.7051  Cl    
17   O        35.8397   34.4988   12.8828  O     
18   C        37.7891   40.1898   12.1125  C     
19   O        37.0876   41.3835   12.1754  O     
20   C        37.5670   42.7356   12.3439  C     
21   C        37.1292   43.4259   13.6670  C     
22   C        37.1431   43.5755   16.0324  C     
23   C        37.9707   44.7841   15.5430  C     
24   C        38.0936   44.5901   14.0222  C     
25   N        37.0962   42.5967   14.9152  N     
26   C        35.9520   41.6532   15.0733  C     
27   C        39.6467   29.5350   13.0470  C     
28   C        40.2280   29.0989   10.6975  C     
29   C        39.4912   29.8199   11.6614  C     
30   N        41.0826   28.1166   11.0785  N     
31   C        41.2434   27.8116   12.3868  C     
32   C        40.9477   27.9443   14.5918  C     
33   C        41.8833   26.9553   14.2929  C     
34   C        40.5455   28.4981   13.3821  C     
35   N        42.0445   26.9010   12.9559  N     
36   H        35.9621   39.1950   12.5307  H     
37   H        40.6205   38.4733   11.4190  H     
38   H        39.1602   36.6216   11.6770  H     
39   H        35.6278   36.9460   12.4798  H     
40   H        39.7047   32.6869   13.6397  H     
41   H        34.8941   31.8849   13.3279  H     
42   H        36.4052   30.0528   13.8937  H     
43   H        38.6455   42.7989   12.2298  H     
44   H        37.1551   43.3138   11.5069  H     
45   H        36.1332   43.8514   13.4996  H     
46   H        37.6057   43.1165   16.9123  H     
47   H        36.1364   43.9249   16.3034  H     
48   H        37.4466   45.7228   15.7770  H     
49   H        38.9598   44.7978   16.0259  H     
50   H        39.1365   44.3349   13.8029  H     
51   H        37.8318   45.5119   13.4802  H     
52   H        37.9539   42.0229   14.9688  H     
53   H        34.9921   42.1428   14.8761  H     
54   H        35.9399   41.2376   16.0888  H     
55   H        36.0551   40.8055   14.4030  H     
56   H        40.1318   29.3210    9.7023  H     
57   H        38.8540   30.5517   11.3359  H     
58   H        40.6299   28.2042   15.5262  H     
59   H        42.3740   26.3651   14.9693  H     
60   H        42.6528   26.3089   12.4713  H     
@<TRIPOS>BOND
     1    1    5 2
     2    1   18 1
     3    2    3 1
     4    2   16 1
     5    2   18 2
     6    3    4 2
     7    4    5 1
     8    5    6 1
     9    6    7 1
    10    7   14 2
    11    7   17 1
    12    8    9 2
    13    8   12 1
    14    8   17 1
    15    9   11 1
    16    9   14 1
    17   10   11 2
    18   10   13 1
    19   10   15 1
    20   12   13 2
    21   15   27 1
    22   18   19 1
    23   19   20 1
    24   21   20 1
    25   21   24 1
    26   21   25 1
    27   22   23 1
    28   22   25 1
    29   23   24 1
    30   25   26 1
    31   27   29 2
    32   27   34 1
    33   28   29 1
    34   28   30 2
    35   30   31 1
    36   31   34 2
    37   31   35 1
    38   32   33 2
    39   32   34 1
    40   33   35 1
    41    1   36 1
    42    3   37 1
    43    4   38 1
    44    6   39 1
    45   11   40 1
    46   12   41 1
    47   13   42 1
    48   20   43 1
    49   20   44 1
    50   21   45 1
    51   22   46 1
    52   22   47 1
    53   23   48 1
    54   23   49 1
    55   24   50 1
    56   24   51 1
    57   25   52 1
    58   26   53 1
    59   26   54 1
    60   26   55 1
    61   28   56 1
    62   29   57 1
    63   32   58 1
    64   33   59 1
    65   35   60 1
@<TRIPOS>PROPERTY_DATA
  Total_Score	| 11.7189
  Crash		| -1.2097
  Polar		| 5.3766
  FragIndex	| 1
  FragRMSD	| 0.974

