@<TRIPOS>MOLECULE
BindingDB_17699
 65 68 0 0 0
SMALL
NO_CHARGES


@<TRIPOS>ATOM
1    C        36.6966   39.0295   12.2723  C     
2    C        37.4611   40.2064   12.4047  C     
3    C        38.8673   40.1208   12.3543  C     
4    C        39.4805   38.9027   12.0072  C     
5    C        38.7099   37.7372   11.8626  C     
6    C        37.3122   37.7728   12.0774  C     
7    N        36.5025   36.6781   12.1445  N     
8    C        36.8172   35.4219   12.5293  C     
9    C        36.4830   33.3420   13.0430  C     
10   C        37.8253   33.6437   13.2405  C     
11   C        38.2446   31.3581   13.9347  C     
12   C        38.7226   32.6697   13.7073  C     
13   C        35.9771   32.0608   13.2981  C     
14   C        36.8706   31.0617   13.7433  C     
15   N        38.0112   34.9326   12.9241  N     
16   O        39.1239   30.4058   14.3638  O     
17   Cl       39.8170   41.4566   12.8112  Cl    
18   C        39.5973   29.4717   13.4634  C     
19   C        40.8393   27.3546   13.2315  C     
20   C        40.1229   28.5455   11.2725  C     
21   C        39.5419   29.5602   12.0526  C     
22   N        40.7411   27.5013   11.8788  N     
23   C        40.2525   28.3613   14.0392  C     
24   C        41.5240   26.2656   13.7717  C     
25   O        41.6527   26.1634   14.9874  O     
26   N        42.0602   25.3402   12.9842  N     
27   C        42.8388   24.2295   13.4219  C     
28   O        35.8652   34.4575   12.6048  O     
29   O        36.8587   41.4033   12.6571  O     
30   C        36.0715   41.9370   11.5673  C     
31   C        36.8509   42.8815   10.6107  C     
32   N        38.3133   42.6373   10.3359  N     
33   C        38.5386   41.6343    9.2463  C     
34   C        39.9451   41.0047    9.2834  C     
35   C        39.0709   43.9247   10.1208  C     
36   C        39.1866   44.8232   11.3740  C     
37   H        35.6810   39.0928   12.3583  H     
38   H        40.5041   38.8462   11.9206  H     
39   H        39.1877   36.8669   11.6373  H     
40   H        35.5535   36.8378   12.0251  H     
41   H        39.7065   32.9032   13.8626  H     
42   H        34.9869   31.8582   13.1512  H     
43   H        36.5276   30.1134   13.8920  H     
44   H        40.1088   28.5974   10.2531  H     
45   H        39.0988   30.3562   11.5867  H     
46   H        40.3063   28.3007   15.0598  H     
47   H        41.9285   25.4330   12.0288  H     
48   H        43.7442   24.5776   13.9252  H     
49   H        43.1313   23.6335   12.5570  H     
50   H        42.2624   23.5981   14.1024  H     
51   H        35.5384   41.1671   11.0019  H     
52   H        35.3016   42.5409   12.0546  H     
53   H        36.3084   42.8798    9.6556  H     
54   H        36.7247   43.8815   11.0350  H     
55   H        38.7250   42.2256   11.1715  H     
56   H        37.8342   40.8016    9.3316  H     
57   H        38.3691   42.0908    8.2696  H     
58   H        40.7121   41.7130    8.9824  H     
59   H        39.9725   40.1650    8.5864  H     
60   H        40.1780   40.6514   10.2924  H     
61   H        40.0987   43.7093    9.8247  H     
62   H        38.6273   44.5030    9.3027  H     
63   H        38.2674   45.3881   11.5419  H     
64   H        40.0026   45.5394   11.2516  H     
65   H        39.3939   44.2060   12.2477  H     
@<TRIPOS>BOND
     1    1    2 1
     2    1    6 2
     3    2    3 2
     4    2   29 1
     5    3    4 1
     6    3   17 1
     7    4    5 2
     8    5    6 1
     9    6    7 1
    10    7    8 1
    11    8   15 2
    12    8   28 1
    13    9   10 2
    14    9   13 1
    15    9   28 1
    16   10   12 1
    17   10   15 1
    18   11   12 2
    19   11   14 1
    20   11   16 1
    21   13   14 2
    22   16   18 1
    23   18   21 1
    24   18   23 2
    25   19   22 2
    26   19   23 1
    27   19   24 1
    28   20   21 2
    29   20   22 1
    30   24   25 2
    31   24   26 am
    32   26   27 1
    33   29   30 1
    34   30   31 1
    35   31   32 1
    36   32   33 1
    37   32   35 1
    38   33   34 1
    39   35   36 1
    40    1   37 1
    41    4   38 1
    42    5   39 1
    43    7   40 1
    44   12   41 1
    45   13   42 1
    46   14   43 1
    47   20   44 1
    48   21   45 1
    49   23   46 1
    50   26   47 1
    51   27   48 1
    52   27   49 1
    53   27   50 1
    54   30   51 1
    55   30   52 1
    56   31   53 1
    57   31   54 1
    58   32   55 1
    59   33   56 1
    60   33   57 1
    61   34   58 1
    62   34   59 1
    63   34   60 1
    64   35   61 1
    65   35   62 1
    66   36   63 1
    67   36   64 1
    68   36   65 1
@<TRIPOS>PROPERTY_DATA
  Total_Score	| 11.9049
  Crash		| -2.0842
  Polar		| 2.4772
  FragIndex	| 1
  FragRMSD	| 0.317

