@<TRIPOS>MOLECULE
BindingDB_17700
 60 64 0 0 0
SMALL
NO_CHARGES


@<TRIPOS>ATOM
1    C        36.8898   39.1579   12.4120  C     
2    C        39.1011   40.1401   12.1210  C     
3    C        39.6003   38.8743   11.7692  C     
4    C        38.7602   37.7491   11.7880  C     
5    C        37.4015   37.8679   12.1590  C     
6    N        36.5403   36.8141   12.2874  N     
7    C        36.8309   35.5385   12.6230  C     
8    C        36.4796   33.4489   13.0654  C     
9    C        37.8303   33.7290   13.2467  C     
10   C        38.2345   31.4261   13.8768  C     
11   C        38.7261   32.7323   13.6660  C     
12   C        35.9698   32.1592   13.2740  C     
13   C        36.8592   31.1441   13.6883  C     
14   N        38.0312   35.0196   12.9662  N     
15   O        39.0974   30.4605   14.3160  O     
16   Cl       40.2164   41.4187   12.1648  Cl    
17   C        39.5764   29.5116   13.4384  C     
18   C        40.8326   27.4019   13.2309  C     
19   C        40.0818   28.5451   11.2592  C     
20   C        39.5032   29.5699   12.0265  C     
21   N        40.7196   27.5191   11.8751  N     
22   C        40.2427   28.4171   14.0285  C     
23   C        41.5232   26.3231   13.7838  C     
24   O        41.6320   26.2291   15.0022  O     
25   N        42.0809   25.3941   13.0136  N     
26   C        42.8192   24.2679   13.4866  C     
27   O        35.8657   34.5866   12.6889  O     
28   C        37.7226   40.2999   12.4300  C     
29   C        37.1540   41.6189   12.8249  C     
30   C        37.5553   43.1859   14.7683  C     
31   C        36.3300   44.1264   14.6603  C     
32   C        34.8313   42.2594   15.0202  C     
33   C        36.0311   41.2725   15.0580  C     
34   N        37.2265   41.7950   14.3183  N     
35   O        35.2293   43.5871   15.4170  O     
36   H        35.8963   39.2562   12.6332  H     
37   H        40.5845   38.7586   11.5145  H     
38   H        39.1515   36.8476   11.5164  H     
39   H        35.5933   37.0281   12.2812  H     
40   H        39.7135   32.9542   13.8087  H     
41   H        34.9781   31.9623   13.1241  H     
42   H        36.5066   30.1990   13.8471  H     
43   H        40.0414   28.5759   10.2383  H     
44   H        39.0442   30.3496   11.5523  H     
45   H        40.3041   28.3737   15.0505  H     
46   H        41.9860   25.4842   12.0520  H     
47   H        43.6814   24.5961   14.0722  H     
48   H        43.1788   23.6870   12.6361  H     
49   H        42.1827   23.6298   14.1048  H     
50   H        37.6990   42.4040   12.2979  H     
51   H        36.1289   41.7137   12.4601  H     
52   H        38.3940   43.6011   14.2041  H     
53   H        37.8700   43.1433   15.8142  H     
54   H        36.5873   45.1061   15.0677  H     
55   H        36.0380   44.2593   13.6162  H     
56   H        34.3904   42.2931   14.0221  H     
57   H        34.0634   41.9101   15.7122  H     
58   H        36.3217   41.1185   16.1012  H     
59   H        35.7183   40.2987   14.6707  H     
60   H        38.0117   41.2191   14.6418  H     
@<TRIPOS>BOND
     1    1    5 2
     2    1   28 1
     3    2    3 1
     4    2   16 1
     5    2   28 2
     6    3    4 2
     7    4    5 1
     8    5    6 1
     9    6    7 1
    10    7   14 2
    11    7   27 1
    12    8    9 2
    13    8   12 1
    14    8   27 1
    15    9   11 1
    16    9   14 1
    17   10   11 2
    18   10   13 1
    19   10   15 1
    20   12   13 2
    21   15   17 1
    22   17   20 1
    23   17   22 2
    24   18   21 2
    25   18   22 1
    26   18   23 1
    27   19   20 2
    28   19   21 1
    29   23   24 2
    30   23   25 am
    31   25   26 1
    32   28   29 1
    33   29   34 1
    34   30   31 1
    35   30   34 1
    36   31   35 1
    37   32   33 1
    38   32   35 1
    39   33   34 1
    40    1   36 1
    41    3   37 1
    42    4   38 1
    43    6   39 1
    44   11   40 1
    45   12   41 1
    46   13   42 1
    47   19   43 1
    48   20   44 1
    49   22   45 1
    50   25   46 1
    51   26   47 1
    52   26   48 1
    53   26   49 1
    54   29   50 1
    55   29   51 1
    56   30   52 1
    57   30   53 1
    58   31   54 1
    59   31   55 1
    60   32   56 1
    61   32   57 1
    62   33   58 1
    63   33   59 1
    64   34   60 1
@<TRIPOS>PROPERTY_DATA
  Total_Score	| 12.8125
  Crash		| -0.9865
  Polar		| 4.8682
  FragIndex	| 1
  FragRMSD	| 0.166

