@<TRIPOS>MOLECULE
BindingDB_17697
 63 67 0 0 0
SMALL
NO_CHARGES


@<TRIPOS>ATOM
1    C        38.8610   37.6433   11.7212  C     
2    C        39.6885   38.7476   11.4603  C     
3    C        39.2011   40.0622   11.6236  C     
4    C        37.8663   40.2761   12.0630  C     
5    C        37.0169   39.1558   12.2382  C     
6    C        37.5076   37.8374   12.1094  C     
7    N        36.6274   36.8147   12.2996  N     
8    C        36.8830   35.5253   12.6175  C     
9    C        36.4741   33.4415   13.0494  C     
10   C        37.8379   33.6749   13.2063  C     
11   C        38.1676   31.3595   13.8499  C     
12   C        38.7016   32.6445   13.6153  C     
13   C        35.9220   32.1725   13.2725  C     
14   C        36.7801   31.1267   13.6752  C     
15   N        38.0741   34.9634   12.9340  N     
16   O        38.9902   30.3668   14.3052  O     
17   Cl       40.1859   41.3850   11.2254  Cl    
18   C        39.4990   29.4306   13.4314  C     
19   C        40.7834   27.3335   13.2317  C     
20   C        40.0781   28.4961   11.2541  C     
21   C        39.4644   29.5016   12.0175  C     
22   N        40.7015   27.4670   11.8785  N     
23   C        40.1716   28.3398   14.0221  C     
24   C        41.4726   26.2532   13.7856  C     
25   O        41.5515   26.1401   15.0043  O     
26   N        42.0695   25.3491   13.0158  N     
27   C        42.8479   24.2422   13.4747  C     
28   O        35.8874   34.6030   12.6936  O     
29   O        37.4583   41.5701   12.3070  O     
30   C        36.4617   41.7839   13.3392  C     
31   C        36.7597   43.0126   14.2396  C     
32   C        36.5293   44.3960   13.6012  C     
33   C        37.2844   45.3552   14.5461  C     
34   C        38.0970   44.4427   15.5031  C     
35   N        38.1051   43.0865   14.8854  N     
36   C        39.3172   42.8436   14.0344  C     
37   H        39.2304   36.7008   11.5553  H     
38   H        40.6465   38.5865   11.1351  H     
39   H        36.0412   39.3061   12.5057  H     
40   H        35.6812   37.0538   12.3103  H     
41   H        39.6959   32.8280   13.7460  H     
42   H        34.9160   32.0152   13.1571  H     
43   H        36.3938   30.1950   13.8415  H     
44   H        40.0701   28.5446   10.2357  H     
45   H        39.0027   30.2794   11.5368  H     
46   H        40.2139   28.2915   15.0443  H     
47   H        41.9859   25.4511   12.0548  H     
48   H        43.7137   24.5899   14.0406  H     
49   H        43.2038   23.6751   12.6133  H     
50   H        42.2454   23.5820   14.1011  H     
51   H        35.5003   41.9510   12.8402  H     
52   H        36.3623   40.9278   14.0196  H     
53   H        36.0380   42.9303   15.0606  H     
54   H        36.9640   44.4445   12.6020  H     
55   H        35.4649   44.6447   13.5382  H     
56   H        37.9566   46.0061   13.9747  H     
57   H        36.5906   45.9846   15.1124  H     
58   H        39.0897   44.8590   15.6842  H     
59   H        37.5979   44.3824   16.4754  H     
60   H        38.1458   42.3694   15.6091  H     
61   H        39.4196   43.5940   13.2477  H     
62   H        39.2977   41.8490   13.5881  H     
63   H        40.2105   42.8948   14.6682  H     
@<TRIPOS>BOND
     1    1    2 1
     2    1    6 2
     3    2    3 2
     4    3    4 1
     5    3   17 1
     6    4    5 2
     7    4   29 1
     8    5    6 1
     9    6    7 1
    10    7    8 1
    11    8   15 2
    12    8   28 1
    13    9   10 2
    14    9   13 1
    15    9   28 1
    16   10   12 1
    17   10   15 1
    18   11   12 2
    19   11   14 1
    20   11   16 1
    21   13   14 2
    22   16   18 1
    23   18   21 1
    24   18   23 2
    25   19   22 2
    26   19   23 1
    27   19   24 1
    28   20   21 2
    29   20   22 1
    30   24   25 2
    31   24   26 am
    32   26   27 1
    33   29   30 1
    34   31   30 1
    35   31   32 1
    36   31   35 1
    37   32   33 1
    38   33   34 1
    39   34   35 1
    40   35   36 1
    41    1   37 1
    42    2   38 1
    43    5   39 1
    44    7   40 1
    45   12   41 1
    46   13   42 1
    47   14   43 1
    48   20   44 1
    49   21   45 1
    50   23   46 1
    51   26   47 1
    52   27   48 1
    53   27   49 1
    54   27   50 1
    55   30   51 1
    56   30   52 1
    57   31   53 1
    58   32   54 1
    59   32   55 1
    60   33   56 1
    61   33   57 1
    62   34   58 1
    63   34   59 1
    64   35   60 1
    65   36   61 1
    66   36   62 1
    67   36   63 1
@<TRIPOS>PROPERTY_DATA
  Total_Score	| 12.6882
  Crash		| -1.2173
  Polar		| 4.9046
  FragIndex	| 1
  FragRMSD	| 0.598

