@<TRIPOS>MOLECULE
BindingDB_17695
 65 69 0 0 0
SMALL
NO_CHARGES


@<TRIPOS>ATOM
1    C        38.8191   37.6031   11.7574  C     
2    C        39.6480   38.6971   11.4755  C     
3    C        39.1418   40.0085   11.5160  C     
4    C        37.7872   40.2416   11.8874  C     
5    C        36.9741   39.1131   12.1789  C     
6    C        37.4656   37.7922   12.1258  C     
7    N        36.5757   36.7738   12.3224  N     
8    C        36.8223   35.4854   12.6537  C     
9    C        36.4259   33.3957   13.0556  C     
10   C        37.7768   33.6491   13.2620  C     
11   C        38.1368   31.3360   13.8765  C     
12   C        38.6535   32.6376   13.6822  C     
13   C        35.8958   32.1074   13.2439  C     
14   C        36.7594   31.0762   13.6604  C     
15   N        38.0019   34.9387   13.0081  N     
16   O        38.9699   30.3471   14.3311  O     
17   Cl       40.2177   41.2398   11.0669  Cl    
18   C        37.1740   41.6099   11.8998  C     
19   C        39.3134   43.3685   14.5868  C     
20   C        38.3157   42.3057   14.0495  C     
21   C        37.2640   44.0007   12.6056  C     
22   C        38.2447   45.0798   13.1260  C     
23   N        37.9315   42.6638   12.6516  N     
24   N        38.8113   44.7769   14.4785  N     
25   C        37.9243   45.1821   15.6052  C     
26   C        39.5123   29.4441   13.4406  C     
27   C        40.8140   27.3680   13.2387  C     
28   C        40.0923   28.5216   11.2611  C     
29   C        39.4699   29.5218   12.0268  C     
30   N        40.7291   27.4974   11.8841  N     
31   C        40.1966   28.3648   14.0342  C     
32   C        41.5024   26.2879   13.7875  C     
33   O        41.6088   26.1853   15.0061  O     
34   N        42.0605   25.3674   13.0087  N     
35   C        42.8236   24.2511   13.4637  C     
36   O        35.8389   34.5518   12.6877  O     
37   H        39.2056   36.6693   11.6357  H     
38   H        40.6163   38.5329   11.1884  H     
39   H        35.9871   39.2516   12.4183  H     
40   H        35.6335   37.0114   12.2724  H     
41   H        39.6395   32.8348   13.8500  H     
42   H        34.8989   31.9314   13.0845  H     
43   H        36.3891   30.1365   13.8056  H     
44   H        37.1065   41.9188   10.8462  H     
45   H        36.1507   41.5812   12.2892  H     
46   H        39.5845   43.1234   15.6179  H     
47   H        40.2315   43.2945   14.0012  H     
48   H        38.8176   41.3349   14.0736  H     
49   H        37.4366   42.2471   14.6952  H     
50   H        36.3507   43.9998   13.2100  H     
51   H        36.9973   44.2572   11.5757  H     
52   H        39.0803   45.1542   12.4239  H     
53   H        37.7467   46.0576   13.1157  H     
54   H        38.8090   42.7928   12.1532  H     
55   H        39.6313   45.3840   14.5560  H     
56   H        37.6960   46.2482   15.5377  H     
57   H        38.4306   45.0168   16.5584  H     
58   H        36.9880   44.6197   15.6024  H     
59   H        40.0744   28.5626   10.2428  H     
60   H        38.9976   30.2929   11.5523  H     
61   H        40.2453   28.3146   15.0550  H     
62   H        41.9533   25.4637   12.0495  H     
63   H        43.7065   24.5944   14.0070  H     
64   H        43.1490   23.6680   12.6033  H     
65   H        42.2180   23.6150   14.1115  H     
@<TRIPOS>BOND
     1    1    2 1
     2    1    6 2
     3    2    3 2
     4    3    4 1
     5    3   17 1
     6    4    5 2
     7    4   18 1
     8    5    6 1
     9    6    7 1
    10    7    8 1
    11    8   15 2
    12    8   36 1
    13    9   10 2
    14    9   13 1
    15    9   36 1
    16   10   12 1
    17   10   15 1
    18   11   12 2
    19   11   14 1
    20   11   16 1
    21   13   14 2
    22   16   26 1
    23   18   23 1
    24   19   20 1
    25   19   24 1
    26   20   23 1
    27   21   22 1
    28   21   23 1
    29   22   24 1
    30   24   25 1
    31   26   29 1
    32   26   31 2
    33   27   30 2
    34   27   31 1
    35   27   32 1
    36   28   29 2
    37   28   30 1
    38   32   33 2
    39   32   34 am
    40   34   35 1
    41    1   37 1
    42    2   38 1
    43    5   39 1
    44    7   40 1
    45   12   41 1
    46   13   42 1
    47   14   43 1
    48   18   44 1
    49   18   45 1
    50   19   46 1
    51   19   47 1
    52   20   48 1
    53   20   49 1
    54   21   50 1
    55   21   51 1
    56   22   52 1
    57   22   53 1
    58   23   54 1
    59   24   55 1
    60   25   56 1
    61   25   57 1
    62   25   58 1
    63   28   59 1
    64   29   60 1
    65   31   61 1
    66   34   62 1
    67   35   63 1
    68   35   64 1
    69   35   65 1
@<TRIPOS>PROPERTY_DATA
  Total_Score	| 13.2174
  Crash		| -1.1455
  Polar		| 4.3262
  FragIndex	| 1
  FragRMSD	| 0.192

