@<TRIPOS>MOLECULE
BindingDB_17698
 59 62 0 0 0
SMALL
NO_CHARGES


@<TRIPOS>ATOM
1    C        36.9670   39.1435   12.1945  C     
2    C        37.8102   40.2416   11.9336  C     
3    C        39.1620   40.0215   11.5772  C     
4    C        39.6540   38.7044   11.5091  C     
5    C        38.8109   37.6145   11.7833  C     
6    C        37.4548   37.8174   12.1378  C     
7    N        36.5617   36.8067   12.3475  N     
8    C        36.8244   35.5188   12.6550  C     
9    C        36.4386   33.4306   13.0659  C     
10   C        37.8040   33.6753   13.2078  C     
11   C        38.1602   31.3553   13.8216  C     
12   C        38.6839   32.6458   13.5869  C     
13   C        35.9030   32.1509   13.2777  C     
14   C        36.7726   31.1123   13.6674  C     
15   N        38.0253   34.9696   12.9496  N     
16   O        38.9909   30.3723   14.2826  O     
17   Cl       40.1830   41.3156   11.1810  Cl    
18   C        39.4945   29.4311   13.4082  C     
19   C        40.7770   27.3339   13.2308  C     
20   C        40.0730   28.4788   11.2405  C     
21   C        39.4532   29.4896   11.9929  C     
22   N        40.7002   27.4604   11.8734  N     
23   C        40.1561   28.3423   14.0148  C     
24   C        41.4682   26.2602   13.7887  C     
25   O        41.5543   26.1519   15.0075  O     
26   N        42.0614   25.3582   13.0139  N     
27   C        42.8335   24.2516   13.4715  C     
28   O        35.8365   34.5895   12.7336  O     
29   O        37.2735   41.4977   12.0325  O     
30   C        37.9151   42.3507   13.0129  C     
31   C        36.8627   42.8850   14.0053  C     
32   N        37.4147   43.1821   15.3708  N     
33   C        38.5170   44.1831   15.3727  C     
34   C        36.3548   43.5707   16.3486  C     
35   H        35.9815   39.3120   12.4294  H     
36   H        40.6236   38.5295   11.2264  H     
37   H        39.1858   36.6695   11.6734  H     
38   H        35.6237   37.0574   12.3707  H     
39   H        39.6803   32.8355   13.7073  H     
40   H        34.9014   31.9830   13.1724  H     
41   H        36.4012   30.1759   13.8402  H     
42   H        40.0660   28.5132   10.2209  H     
43   H        38.9871   30.2584   11.5070  H     
44   H        40.1905   28.2983   15.0415  H     
45   H        41.9726   25.4609   12.0541  H     
46   H        43.7003   24.5986   14.0347  H     
47   H        43.1863   23.6794   12.6149  H     
48   H        42.2282   23.5989   14.1007  H     
49   H        38.7078   41.8366   13.5828  H     
50   H        38.3747   43.1867   12.4815  H     
51   H        36.3840   43.7728   13.5805  H     
52   H        36.0914   42.1102   14.0869  H     
53   H        37.8204   42.3041   15.7195  H     
54   H        39.3183   43.8826   14.7004  H     
55   H        38.9500   44.2653   16.3732  H     
56   H        38.1682   45.1740   15.0645  H     
57   H        35.8574   44.5036   16.0632  H     
58   H        36.7800   43.7035   17.3498  H     
59   H        35.5905   42.7921   16.4265  H     
@<TRIPOS>BOND
     1    1    2 1
     2    1    6 2
     3    2    3 2
     4    2   29 1
     5    3    4 1
     6    3   17 1
     7    4    5 2
     8    5    6 1
     9    6    7 1
    10    7    8 1
    11    8   15 2
    12    8   28 1
    13    9   10 2
    14    9   13 1
    15    9   28 1
    16   10   12 1
    17   10   15 1
    18   11   12 2
    19   11   14 1
    20   11   16 1
    21   13   14 2
    22   16   18 1
    23   18   21 1
    24   18   23 2
    25   19   22 2
    26   19   23 1
    27   19   24 1
    28   20   21 2
    29   20   22 1
    30   24   25 2
    31   24   26 am
    32   26   27 1
    33   29   30 1
    34   30   31 1
    35   31   32 1
    36   32   33 1
    37   32   34 1
    38    1   35 1
    39    4   36 1
    40    5   37 1
    41    7   38 1
    42   12   39 1
    43   13   40 1
    44   14   41 1
    45   20   42 1
    46   21   43 1
    47   23   44 1
    48   26   45 1
    49   27   46 1
    50   27   47 1
    51   27   48 1
    52   30   49 1
    53   30   50 1
    54   31   51 1
    55   31   52 1
    56   32   53 1
    57   33   54 1
    58   33   55 1
    59   33   56 1
    60   34   57 1
    61   34   58 1
    62   34   59 1
@<TRIPOS>PROPERTY_DATA
  Total_Score	| 11.9682
  Crash		| -0.8842
  Polar		| 4.9922
  FragIndex	| 1
  FragRMSD	| 0.695

