@<TRIPOS>MOLECULE
BindingDB_23904
 86 89 0 0 0
SMALL
NO_CHARGES


@<TRIPOS>ATOM
1    C        15.5435   63.7033   28.2903  C     
2    C        16.4704   64.7171   28.6091  C     
3    S        18.1820   64.3607   28.6688  S     
4    O        19.1032   65.6576   28.7299  O     
5    O        18.4616   63.6307   30.0536  O     
6    N        18.7884   63.2999   27.5002  N     
7    C        18.6219   63.5218   26.0889  C     
8    C        17.3209   63.0335   25.5986  C     
9    O        16.9451   61.9996   26.1499  O     
10   C        19.8131   62.9067   25.2778  C     
11   C        19.6448   61.4807   24.8502  C     
12   C        19.1056   61.1804   23.5788  C     
13   C        18.9001   59.8498   23.1816  C     
14   C        19.2508   58.7979   24.0429  C     
15   C        19.8080   59.0501   25.3257  C     
16   C        19.9727   60.4073   25.7124  C     
17   C        20.2524   57.9739   26.1562  C     
18   N        20.9356   58.1663   27.2987  N     
19   N        20.0869   56.6752   25.8358  N     
20   C        14.6321   64.9301   22.9446  C     
21   C        14.2705   63.7307   23.8620  C     
22   C        15.4714   62.7643   24.0105  C     
23   C        17.0686   64.5897   23.6680  C     
24   C        15.9158   65.6188   23.4916  C     
25   C        13.4129   65.8857   22.7742  C     
26   N        16.6545   63.4663   24.5051  N     
27   C        14.1715   63.9924   28.1692  C     
28   C        13.6666   65.2964   28.4167  C     
29   C        13.4326   66.7400   21.4704  C     
30   N        12.1360   66.8154   20.8744  N     
31   C        11.0702   67.4945   21.3447  C     
32   N        11.1206   68.3105   22.4144  N     
33   N         9.8976   67.3131   20.7173  N     
34   C        14.6045   66.2886   28.8139  C     
35   C        15.9846   66.0140   28.8823  C     
36   C        12.2021   65.6530   28.3348  C     
37   C         9.5377   66.2961   26.9940  C     
38   C        10.4894   67.4096   27.5001  C     
39   C        11.9690   66.9519   27.4895  C     
40   C        11.2371   64.5373   27.8016  C     
41   C         9.7451   64.9773   27.7810  C     
42   H        15.8634   62.7428   28.1524  H     
43   H        19.0775   62.4193   27.7968  H     
44   H        18.6759   64.6055   25.9678  H     
45   H        19.9677   63.5242   24.3879  H     
46   H        20.7422   62.9955   25.8497  H     
47   H        18.8401   61.9286   22.9340  H     
48   H        18.5091   59.6466   22.2570  H     
49   H        19.1201   57.8444   23.7003  H     
50   H        20.3478   60.6324   26.6368  H     
51   H        21.2807   57.3980   27.7790  H     
52   H        21.1076   59.0568   27.6352  H     
53   H        20.5525   55.9932   26.3480  H     
54   H        14.8641   64.5166   21.9556  H     
55   H        13.9611   64.0891   24.8493  H     
56   H        13.4403   63.1783   23.4199  H     
57   H        15.1363   61.9357   24.6425  H     
58   H        15.7005   62.3260   23.0324  H     
59   H        17.3498   64.2055   22.6800  H     
60   H        17.9319   65.1433   24.0354  H     
61   H        16.2428   66.3974   22.7956  H     
62   H        15.7008   66.0906   24.4562  H     
63   H        12.5126   65.2624   22.7594  H     
64   H        13.3326   66.5434   23.6438  H     
65   H        13.5435   63.2251   27.9208  H     
66   H        13.8165   67.7453   21.6750  H     
67   H        14.0883   66.2806   20.7284  H     
68   H        11.9830   66.2740   20.0777  H     
69   H        10.3203   68.7720   22.7098  H     
70   H         9.1063   67.7876   21.0122  H     
71   H         9.8434   66.6713   19.9884  H     
72   H        14.2831   67.2320   29.0589  H     
73   H        16.6264   66.7643   29.1516  H     
74   H        11.8846   65.8637   29.3628  H     
75   H         8.5018   66.6269   27.1095  H     
76   H         9.7206   66.1202   25.9310  H     
77   H        10.3786   68.2950   26.8669  H     
78   H        10.2036   67.6906   28.5201  H     
79   H        12.5620   67.7792   27.8844  H     
80   H        12.2857   66.7792   26.4559  H     
81   H        11.5268   64.2540   26.7845  H     
82   H        11.3186   63.6532   28.4392  H     
83   H         9.3937   65.1114   28.8076  H     
84   H         9.1424   64.1891   27.3214  H     
85   H        19.5542   56.4155   25.0691  H     
86   H        11.9552   68.4447   22.8883  H     
@<TRIPOS>BOND
     1    1    2 1
     2    1   27 2
     3    2    3 1
     4    2   35 2
     5    3    4 2
     6    3    5 2
     7    3    6 1
     8    6    7 1
     9    7    8 1
    10    7   10 1
    11    8    9 2
    12    8   26 am
    13   10   11 1
    14   11   12 1
    15   11   16 2
    16   12   13 2
    17   13   14 1
    18   14   15 2
    19   15   16 1
    20   15   17 1
    21   17   18 1
    22   17   19 2
    23   20   21 1
    24   20   24 1
    25   20   25 1
    26   21   22 1
    27   22   26 1
    28   23   24 1
    29   23   26 1
    30   25   29 1
    31   27   28 1
    32   28   34 2
    33   28   36 1
    34   29   30 1
    35   30   31 1
    36   31   32 2
    37   31   33 1
    38   34   35 1
    39   36   39 1
    40   36   40 1
    41   37   38 1
    42   37   41 1
    43   38   39 1
    44   40   41 1
    45    1   42 1
    46    6   43 1
    47    7   44 1
    48   10   45 1
    49   10   46 1
    50   12   47 1
    51   13   48 1
    52   14   49 1
    53   16   50 1
    54   18   51 1
    55   18   52 1
    56   19   53 1
    57   20   54 1
    58   21   55 1
    59   21   56 1
    60   22   57 1
    61   22   58 1
    62   23   59 1
    63   23   60 1
    64   24   61 1
    65   24   62 1
    66   25   63 1
    67   25   64 1
    68   27   65 1
    69   29   66 1
    70   29   67 1
    71   30   68 1
    72   32   69 1
    73   33   70 1
    74   33   71 1
    75   34   72 1
    76   35   73 1
    77   36   74 1
    78   37   75 1
    79   37   76 1
    80   38   77 1
    81   38   78 1
    82   39   79 1
    83   39   80 1
    84   40   81 1
    85   40   82 1
    86   41   83 1
    87   41   84 1
    88   19   85 1
    89   32   86 1
@<TRIPOS>PROPERTY_DATA
  Total_Score	| 10.0443
  Crash		| -2.4719
  Polar		| 7.2458
  FragIndex	| 1
  FragRMSD	| 1.406

