@<TRIPOS>MOLECULE
BindingDB_23877
 83 87 0 0 0
SMALL
NO_CHARGES


@<TRIPOS>ATOM
1    C        14.4995   64.8705   29.3590  C     
2    C        16.5057   66.1882   28.0508  C     
3    C        15.7527   64.3766   29.3598  C     
4    C        16.7704   65.0411   28.7209  C     
5    S        18.3363   64.3436   28.6871  S     
6    O        19.5146   65.4045   28.5456  O     
7    O        18.6003   63.6301   30.0811  O     
8    N        18.4942   63.1380   27.5077  N     
9    C        18.3514   63.4319   26.1128  C     
10   C        17.0734   62.9344   25.5636  C     
11   O        16.6540   61.9100   26.1051  O     
12   C        19.5997   62.9099   25.3198  C     
13   C        19.5346   61.4880   24.8638  C     
14   C        19.1395   61.1937   23.5364  C     
15   C        19.0891   59.8663   23.0838  C     
16   C        19.4445   58.8165   23.9490  C     
17   C        19.8385   59.0652   25.2928  C     
18   C        19.8540   60.4187   25.7309  C     
19   C        20.2782   57.9963   26.1300  C     
20   N        20.9686   58.1869   27.2703  N     
21   N        20.0765   56.6914   25.8384  N     
22   C        15.2861   62.7532   23.8996  C     
23   C        14.1939   63.7759   23.4943  C     
24   C        16.1009   65.0082   22.5039  C     
25   C        16.9176   64.6065   23.7700  C     
26   N        16.4461   63.4170   24.4636  N     
27   N        14.6656   64.9282   22.7319  N     
28   C        13.7586   65.8245   22.2783  C     
29   O        12.6034   65.7358   22.6824  O     
30   C        14.0096   66.9593   21.3910  C     
31   C        14.2141   66.0672   28.7373  C     
32   C        14.9704   67.8880   27.3851  C     
33   C        15.2340   66.7309   28.0378  C     
34   C        13.6991   68.4721   27.4376  C     
35   C        12.6747   67.8140   28.1773  C     
36   C        11.3920   68.4053   28.2744  C     
37   C        11.1264   69.6353   27.6448  C     
38   C        12.1351   70.2828   26.9113  C     
39   C        13.4151   69.7047   26.8050  C     
40   C        12.9723   66.6025   28.8059  C     
41   C        13.0213   67.0470   20.1879  C     
42   N        12.9741   68.3941   19.7003  N     
43   C        12.0195   68.9232   18.8995  C     
44   N        12.1365   70.2221   18.5808  N     
45   N        10.9668   68.2300   18.4114  N     
46   H        13.7822   64.3457   29.8045  H     
47   H        17.2427   66.6382   27.5539  H     
48   H        15.9255   63.5080   29.8095  H     
49   H        18.3619   62.2191   27.7876  H     
50   H        18.3902   64.5270   26.0396  H     
51   H        19.7538   63.5475   24.4454  H     
52   H        20.5000   63.0464   25.9257  H     
53   H        18.8787   61.9404   22.8872  H     
54   H        18.8104   59.6671   22.1207  H     
55   H        19.4372   57.8708   23.5650  H     
56   H        20.1344   60.6421   26.6870  H     
57   H        21.2809   57.4155   27.7661  H     
58   H        21.1660   59.0772   27.5969  H     
59   H        20.5398   56.0123   26.3542  H     
60   H        14.8208   62.0190   24.5701  H     
61   H        15.6085   62.2098   23.0063  H     
62   H        13.4397   63.2332   22.9131  H     
63   H        13.7220   64.1344   24.4134  H     
64   H        16.4481   66.0095   22.2260  H     
65   H        16.3633   64.3203   21.6845  H     
66   H        17.9584   64.4681   23.4659  H     
67   H        16.8771   65.4572   24.4636  H     
68   H        13.9221   67.8755   21.9879  H     
69   H        14.9959   66.9256   20.9472  H     
70   H        15.6927   68.3504   26.8804  H     
71   H        10.6458   67.9530   28.8098  H     
72   H        10.1993   70.0630   27.7277  H     
73   H        11.9395   71.1808   26.4616  H     
74   H        14.1371   70.1971   26.2740  H     
75   H        12.2554   66.1435   29.3184  H     
76   H        13.3446   66.3778   19.3797  H     
77   H        12.0064   66.7696   20.5081  H     
78   H        13.6829   68.9933   19.9904  H     
79   H        11.4721   70.6521   18.0131  H     
80   H        10.3184   68.6658   17.8319  H     
81   H        10.8586   67.2904   18.6301  H     
82   H        19.5408   56.4285   25.0757  H     
83   H        12.8938   70.7358   18.9177  H     
@<TRIPOS>BOND
     1    1    3 2
     2    1   31 1
     3    2    4 2
     4    2   33 1
     5    3    4 1
     6    4    5 1
     7    5    6 2
     8    5    7 2
     9    5    8 1
    10    8    9 1
    11    9   10 1
    12    9   12 1
    13   10   11 2
    14   10   26 am
    15   12   13 1
    16   13   14 1
    17   13   18 2
    18   14   15 2
    19   15   16 1
    20   16   17 2
    21   17   18 1
    22   17   19 1
    23   19   20 1
    24   19   21 2
    25   22   23 1
    26   22   26 1
    27   23   27 1
    28   24   25 1
    29   24   27 1
    30   25   26 1
    31   27   28 am
    32   28   29 2
    33   28   30 1
    34   30   41 1
    35   31   33 1
    36   31   40 2
    37   32   33 2
    38   32   34 1
    39   34   35 1
    40   34   39 2
    41   35   36 2
    42   35   40 1
    43   36   37 1
    44   37   38 2
    45   38   39 1
    46   41   42 1
    47   42   43 1
    48   43   44 2
    49   43   45 1
    50    1   46 1
    51    2   47 1
    52    3   48 1
    53    8   49 1
    54    9   50 1
    55   12   51 1
    56   12   52 1
    57   14   53 1
    58   15   54 1
    59   16   55 1
    60   18   56 1
    61   20   57 1
    62   20   58 1
    63   21   59 1
    64   22   60 1
    65   22   61 1
    66   23   62 1
    67   23   63 1
    68   24   64 1
    69   24   65 1
    70   25   66 1
    71   25   67 1
    72   30   68 1
    73   30   69 1
    74   32   70 1
    75   36   71 1
    76   37   72 1
    77   38   73 1
    78   39   74 1
    79   40   75 1
    80   41   76 1
    81   41   77 1
    82   42   78 1
    83   44   79 1
    84   45   80 1
    85   45   81 1
    86   21   82 1
    87   44   83 1
@<TRIPOS>PROPERTY_DATA
  Total_Score	| 10.8032
  Crash		| -2.0401
  Polar		| 8.4246
  FragIndex	| 1
  FragRMSD	| 0.730

