@<TRIPOS>MOLECULE
BindingDB_23913
 88 90 0 0 0
SMALL
NO_CHARGES


@<TRIPOS>ATOM
1    C        16.4825   66.1010   28.1838  C     
2    C        16.8562   64.8175   28.6277  C     
3    S        18.5373   64.3617   28.7250  S     
4    O        19.5427   65.5952   28.7375  O     
5    O        18.7600   63.5823   30.0901  O     
6    N        18.9967   63.2932   27.5049  N     
7    C        18.6445   63.5033   26.1283  C     
8    C        17.3072   62.9875   25.7923  C     
9    O        16.9789   61.9762   26.4128  O     
10   C        19.7572   62.8989   25.2078  C     
11   C        19.5435   61.4725   24.8210  C     
12   C        18.9094   61.1628   23.5960  C     
13   C        18.6589   59.8299   23.2398  C     
14   C        19.0662   58.7852   24.0884  C     
15   C        19.7069   59.0473   25.3264  C     
16   C        19.9110   60.4093   25.6802  C     
17   C        20.1748   57.9803   26.1625  C     
18   N        20.8806   58.1840   27.2886  N     
19   N        19.9997   56.6750   25.8753  N     
20   C        14.2405   65.1888   24.1282  C     
21   C        14.0996   63.8761   24.9565  C     
22   C        15.1809   62.8384   24.5721  C     
23   C        16.7654   64.5640   23.9380  C     
24   C        15.7252   65.6899   24.1774  C     
25   N        16.4907   63.4289   24.8082  N     
26   C        15.8520   63.8851   28.9555  C     
27   C        15.1228   66.4507   28.0841  C     
28   C        13.2317   66.2804   24.6177  C     
29   C        12.7264   67.2500   23.5093  C     
30   C        14.1042   65.5166   28.3851  C     
31   N        11.4982   66.7951   22.9384  N     
32   C        11.2133   66.5857   21.6320  C     
33   N        12.0809   66.7581   20.6212  N     
34   N         9.9820   66.1655   21.3053  N     
35   C        14.4922   64.2325   28.8404  C     
36   N        12.7980   65.8995   28.2320  N     
37   C        11.7564   65.1704   27.8292  C     
38   O        11.8910   64.0080   27.4730  O     
39   C        10.4471   65.7854   27.6676  C     
40   C         9.5793   65.7989   28.9566  C     
41   N         9.1568   64.4928   29.3609  N     
42   C         9.8586   63.6265   30.1278  C     
43   N        11.0732   63.8843   30.6423  N     
44   N         9.3004   62.4394   30.4008  N     
45   H        17.1950   66.7876   27.9168  H     
46   H        19.3117   62.4109   27.7660  H     
47   H        18.6579   64.5897   25.9909  H     
48   H        19.8204   63.5133   24.3055  H     
49   H        20.7355   62.9971   25.6869  H     
50   H        18.6025   61.9090   22.9669  H     
51   H        18.1772   59.6212   22.3637  H     
52   H        18.9010   57.8264   23.7731  H     
53   H        20.3393   60.6453   26.5781  H     
54   H        21.2109   57.4172   27.7819  H     
55   H        21.0599   59.0769   27.6165  H     
56   H        20.4656   56.0055   26.4059  H     
57   H        14.0016   64.9332   23.0888  H     
58   H        14.1986   64.1004   26.0200  H     
59   H        13.1136   63.4400   24.7917  H     
60   H        14.9870   61.9266   25.1408  H     
61   H        15.0756   62.5584   23.5176  H     
62   H        16.7075   64.2367   22.8944  H     
63   H        17.7583   64.9924   24.0576  H     
64   H        15.8699   66.4730   23.4246  H     
65   H        15.9303   66.1292   25.1592  H     
66   H        16.1030   62.9451   29.2685  H     
67   H        14.8743   67.3904   27.7607  H     
68   H        12.3540   65.8049   25.0703  H     
69   H        13.6948   66.8722   25.4102  H     
70   H        12.5226   68.2242   23.9601  H     
71   H        13.5068   67.3995   22.7556  H     
72   H        10.7712   66.6322   23.5648  H     
73   H        11.7895   66.5484   19.7191  H     
74   H         9.7712   65.9845   20.3783  H     
75   H         9.3170   66.0074   21.9928  H     
76   H        13.7884   63.5426   29.1048  H     
77   H        12.6238   66.8476   28.3498  H     
78   H        10.5755   66.8159   27.3256  H     
79   H         9.8828   65.2682   26.8841  H     
80   H        10.1026   66.3113   29.7709  H     
81   H         8.6731   66.3707   28.7440  H     
82   H         8.2686   64.2064   29.0839  H     
83   H        11.5165   63.2144   31.1881  H     
84   H        11.5068   64.7354   30.4785  H     
85   H         9.7741   61.7952   30.9506  H     
86   H        19.4620   56.3924   25.1212  H     
87   H        12.9879   67.0559   20.7838  H     
88   H         8.4227   62.2280   30.0504  H     
@<TRIPOS>BOND
     1    1    2 1
     2    1   27 2
     3    2    3 1
     4    2   26 2
     5    3    4 2
     6    3    5 2
     7    3    6 1
     8    6    7 1
     9    7    8 1
    10    7   10 1
    11    8    9 2
    12    8   25 am
    13   10   11 1
    14   11   12 1
    15   11   16 2
    16   12   13 2
    17   13   14 1
    18   14   15 2
    19   15   16 1
    20   15   17 1
    21   17   18 1
    22   17   19 2
    23   20   21 1
    24   20   24 1
    25   20   28 1
    26   21   22 1
    27   22   25 1
    28   23   24 1
    29   23   25 1
    30   26   35 1
    31   27   30 1
    32   28   29 1
    33   29   31 1
    34   30   35 2
    35   30   36 1
    36   31   32 1
    37   32   33 2
    38   32   34 1
    39   36   37 am
    40   37   38 2
    41   37   39 1
    42   39   40 1
    43   40   41 1
    44   41   42 1
    45   42   43 1
    46   42   44 2
    47    1   45 1
    48    6   46 1
    49    7   47 1
    50   10   48 1
    51   10   49 1
    52   12   50 1
    53   13   51 1
    54   14   52 1
    55   16   53 1
    56   18   54 1
    57   18   55 1
    58   19   56 1
    59   20   57 1
    60   21   58 1
    61   21   59 1
    62   22   60 1
    63   22   61 1
    64   23   62 1
    65   23   63 1
    66   24   64 1
    67   24   65 1
    68   26   66 1
    69   27   67 1
    70   28   68 1
    71   28   69 1
    72   29   70 1
    73   29   71 1
    74   31   72 1
    75   33   73 1
    76   34   74 1
    77   34   75 1
    78   35   76 1
    79   36   77 1
    80   39   78 1
    81   39   79 1
    82   40   80 1
    83   40   81 1
    84   41   82 1
    85   43   83 1
    86   43   84 1
    87   44   85 1
    88   19   86 1
    89   33   87 1
    90   44   88 1
@<TRIPOS>PROPERTY_DATA
  Total_Score	| 10.1580
  Crash		| -2.0823
  Polar		| 9.8357
  FragIndex	| 1
  FragRMSD	| 0.723

