@<TRIPOS>MOLECULE
BindingDB_23910
 81 84 0 0 0
SMALL
NO_CHARGES


@<TRIPOS>ATOM
1    C        16.1713   65.6837   28.0379  C     
2    C        16.7145   64.5558   28.6985  C     
3    S        18.4432   64.3375   28.7330  S     
4    O        19.2248   65.7217   28.7584  O     
5    O        18.8669   63.6534   30.1031  O     
6    N        19.0527   63.3433   27.5115  N     
7    C        18.7714   63.5424   26.1143  C     
8    C        17.4357   63.0421   25.7352  C     
9    O        17.0787   62.0287   26.3414  O     
10   C        19.8929   62.9179   25.2188  C     
11   C        19.6993   61.4938   24.8072  C     
12   C        19.1325   61.1899   23.5469  C     
13   C        18.9204   59.8576   23.1625  C     
14   C        19.2819   58.8127   24.0269  C     
15   C        19.8523   59.0683   25.3017  C     
16   C        20.0385   60.4251   25.6721  C     
17   C        20.2780   57.9846   26.1400  C     
18   N        20.9546   58.1623   27.2831  N     
19   N        20.0771   56.6901   25.8351  N     
20   C        14.4141   65.2367   24.0076  C     
21   C        14.2554   63.8775   24.7639  C     
22   C        15.3780   62.8721   24.3975  C     
23   C        16.9432   64.6605   23.8829  C     
24   C        15.8831   65.7694   24.1641  C     
25   N        16.6658   63.4864   24.7097  N     
26   C        14.4473   63.7791   29.1768  C     
27   C        15.8387   63.6117   29.2832  C     
28   C        14.7739   65.8351   27.9323  C     
29   C        13.3665   66.2982   24.5049  C     
30   C        12.8484   67.2625   23.3991  C     
31   C        13.8956   64.8662   28.4615  C     
32   O        12.5447   65.0396   28.2455  O     
33   C        11.7614   63.9096   28.2497  C     
34   C        10.6635   63.8864   29.1356  C     
35   C         9.8372   62.7508   29.2225  C     
36   C        10.1005   61.6259   28.4171  C     
37   C        11.1745   61.6477   27.5067  C     
38   C        11.9899   62.7877   27.4120  C     
39   N        11.6114   66.7887   22.8577  N     
40   C        11.2799   66.6026   21.5615  C     
41   N        12.0947   66.7956   20.5113  N     
42   N        10.0323   66.1900   21.2975  N     
43   H        16.7817   66.3945   27.6185  H     
44   H        19.4365   62.4969   27.7814  H     
45   H        18.8101   64.6238   25.9563  H     
46   H        19.9775   63.5430   24.3258  H     
47   H        20.8583   63.0054   25.7187  H     
48   H        18.8530   61.9348   22.9058  H     
49   H        18.5064   59.6481   22.2482  H     
50   H        19.1336   57.8571   23.6936  H     
51   H        20.4380   60.6559   26.5854  H     
52   H        21.2707   57.3795   27.7656  H     
53   H        21.1652   59.0461   27.6193  H     
54   H        20.5269   56.0040   26.3581  H     
55   H        14.2334   65.0189   22.9436  H     
56   H        14.2667   64.0381   25.8490  H     
57   H        13.2930   63.4302   24.5139  H     
58   H        15.1766   61.9343   24.9286  H     
59   H        15.3276   62.6277   23.3277  H     
60   H        16.9122   64.3766   22.8175  H     
61   H        17.9276   65.0958   24.0400  H     
62   H        16.0508   66.6024   23.4540  H     
63   H        16.0410   66.1210   25.1917  H     
64   H        13.8306   63.0712   29.5824  H     
65   H        16.2098   62.7864   29.7703  H     
66   H        14.3959   66.6366   27.4206  H     
67   H        12.5066   65.7975   24.9657  H     
68   H        13.8087   66.9002   25.3082  H     
69   H        12.6237   68.2277   23.8585  H     
70   H        13.6224   67.4449   22.6510  H     
71   H        10.4766   64.6956   29.7295  H     
72   H         9.0527   62.7406   29.8795  H     
73   H         9.5049   60.7977   28.4886  H     
74   H        11.3714   60.8196   26.9314  H     
75   H        12.7699   62.7850   26.7499  H     
76   H        10.9154   66.5922   23.5088  H     
77   H        11.7629   66.5933   19.6175  H     
78   H         9.7671   66.0189   20.3773  H     
79   H         9.4051   66.0296   22.0229  H     
80   H        19.5557   56.4308   25.0620  H     
81   H        13.0126   67.0851   20.6327  H     
@<TRIPOS>BOND
     1    1    2 1
     2    1   28 2
     3    2    3 1
     4    2   27 2
     5    3    4 2
     6    3    5 2
     7    3    6 1
     8    6    7 1
     9    7    8 1
    10    7   10 1
    11    8    9 2
    12    8   25 am
    13   10   11 1
    14   11   12 1
    15   11   16 2
    16   12   13 2
    17   13   14 1
    18   14   15 2
    19   15   16 1
    20   15   17 1
    21   17   18 1
    22   17   19 2
    23   20   21 1
    24   20   24 1
    25   20   29 1
    26   21   22 1
    27   22   25 1
    28   23   24 1
    29   23   25 1
    30   26   27 1
    31   26   31 2
    32   28   31 1
    33   29   30 1
    34   30   39 1
    35   31   32 1
    36   32   33 1
    37   33   34 1
    38   33   38 2
    39   34   35 2
    40   35   36 1
    41   36   37 2
    42   37   38 1
    43   39   40 1
    44   40   41 2
    45   40   42 1
    46    1   43 1
    47    6   44 1
    48    7   45 1
    49   10   46 1
    50   10   47 1
    51   12   48 1
    52   13   49 1
    53   14   50 1
    54   16   51 1
    55   18   52 1
    56   18   53 1
    57   19   54 1
    58   20   55 1
    59   21   56 1
    60   21   57 1
    61   22   58 1
    62   22   59 1
    63   23   60 1
    64   23   61 1
    65   24   62 1
    66   24   63 1
    67   26   64 1
    68   27   65 1
    69   28   66 1
    70   29   67 1
    71   29   68 1
    72   30   69 1
    73   30   70 1
    74   34   71 1
    75   35   72 1
    76   36   73 1
    77   37   74 1
    78   38   75 1
    79   39   76 1
    80   41   77 1
    81   42   78 1
    82   42   79 1
    83   19   80 1
    84   41   81 1
@<TRIPOS>PROPERTY_DATA
  Total_Score	| 10.2165
  Crash		| -2.2930
  Polar		| 7.2556
  FragIndex	| 1
  FragRMSD	| 0.679

