@<TRIPOS>MOLECULE
BindingDB_23912
 82 85 0 0 0
SMALL
NO_CHARGES


@<TRIPOS>ATOM
1    C        16.0161   63.6514   29.0836  C     
2    C        16.8397   64.6893   28.5978  C     
3    S        18.5680   64.4967   28.6834  S     
4    O        19.3896   65.8571   28.6777  O     
5    O        18.8948   63.7743   30.0667  O     
6    N        19.1350   63.4433   27.4990  N     
7    C        18.8582   63.6383   26.1014  C     
8    C        17.4736   63.2742   25.7307  C     
9    O        17.0580   62.2646   26.2953  O     
10   C        19.9213   62.8777   25.2410  C     
11   C        19.6054   61.4540   24.9178  C     
12   C        18.8253   61.1641   23.7711  C     
13   C        18.4498   59.8473   23.4831  C     
14   C        18.8827   58.7943   24.3043  C     
15   C        19.6806   59.0330   25.4547  C     
16   C        19.9951   60.3883   25.7581  C     
17   C        20.1901   57.9501   26.2386  C     
18   N        20.9171   58.1298   27.3568  N     
19   N        20.0245   56.6523   25.9145  N     
20   C        14.3795   65.4481   24.0186  C     
21   C        14.2818   64.0344   24.6556  C     
22   C        15.4990   63.1574   24.2846  C     
23   C        16.9723   65.0752   24.0624  C     
24   C        15.7971   66.0694   24.2991  C     
25   N        16.7228   63.8134   24.7456  N     
26   C        16.2395   65.8047   27.9882  C     
27   C        14.6283   63.7222   28.9567  C     
28   C        13.2082   66.3819   24.4967  C     
29   C        12.6814   67.3816   23.4229  C     
30   C        14.0048   64.8164   28.3048  C     
31   C        11.7153   63.6611   28.1703  C     
32   C        10.6355   63.5488   29.0709  C     
33   C         9.9061   62.3429   29.1447  C     
34   C        11.2663   61.3684   27.4510  C     
35   C        12.0163   62.5540   27.3359  C     
36   N        11.4653   66.9120   22.8334  N     
37   C        11.2043   66.6799   21.5293  C     
38   N        12.0835   66.8445   20.5245  N     
39   N         9.9814   66.2335   21.2041  N     
40   C        14.8362   65.8701   27.8534  C     
41   C        12.5317   64.9149   28.0770  C     
42   N        10.2457   61.3029   28.3455  N     
43   H        16.4360   62.8364   29.5347  H     
44   H        19.4468   62.5715   27.7878  H     
45   H        19.0479   64.7011   25.9485  H     
46   H        20.0611   63.4278   24.3078  H     
47   H        20.8969   62.9248   25.7484  H     
48   H        18.5026   61.9170   23.1584  H     
49   H        17.8647   59.6524   22.6633  H     
50   H        18.6123   57.8442   24.0354  H     
51   H        20.5279   60.6135   26.5979  H     
52   H        21.2744   57.3556   27.8164  H     
53   H        21.0911   59.0147   27.7046  H     
54   H        20.5075   55.9698   26.4100  H     
55   H        14.2983   65.3005   22.9350  H     
56   H        14.2332   64.1249   25.7404  H     
57   H        13.3713   63.5401   24.3069  H     
58   H        15.3313   62.1565   24.6926  H     
59   H        15.5357   63.0303   23.1943  H     
60   H        17.0719   64.8957   22.9865  H     
61   H        17.8774   65.5916   24.3746  H     
62   H        15.9386   66.9540   23.6676  H     
63   H        15.8455   66.4027   25.3418  H     
64   H        16.8147   66.5697   27.6259  H     
65   H        14.0772   62.9464   29.3275  H     
66   H        12.3663   65.7732   24.8465  H     
67   H        13.5304   66.9496   25.3773  H     
68   H        12.4412   68.3282   23.9154  H     
69   H        13.4601   67.5991   22.6881  H     
70   H        10.3929   64.3172   29.7014  H     
71   H         9.1263   62.2521   29.7967  H     
72   H        11.5020   60.5503   26.8901  H     
73   H        12.7937   62.5890   26.6756  H     
74   H        10.7323   66.7462   23.4481  H     
75   H        11.8090   66.6126   19.6210  H     
76   H         9.7731   66.0248   20.2772  H     
77   H         9.3158   66.0765   21.8936  H     
78   H        14.4286   66.6892   27.3972  H     
79   H        12.1466   65.6631   28.7797  H     
80   H        12.3661   65.3088   27.0711  H     
81   H        19.4853   56.3901   25.1535  H     
82   H        12.9845   67.1609   20.6964  H     
@<TRIPOS>BOND
     1    1    2 1
     2    1   27 2
     3    2    3 1
     4    2   26 2
     5    3    4 2
     6    3    5 2
     7    3    6 1
     8    6    7 1
     9    7    8 1
    10    7   10 1
    11    8    9 2
    12    8   25 am
    13   10   11 1
    14   11   12 1
    15   11   16 2
    16   12   13 2
    17   13   14 1
    18   14   15 2
    19   15   16 1
    20   15   17 1
    21   17   18 1
    22   17   19 2
    23   20   21 1
    24   20   24 1
    25   20   28 1
    26   21   22 1
    27   22   25 1
    28   23   24 1
    29   23   25 1
    30   26   40 1
    31   27   30 1
    32   28   29 1
    33   29   36 1
    34   30   40 2
    35   30   41 1
    36   31   32 1
    37   31   35 2
    38   31   41 1
    39   32   33 2
    40   33   42 1
    41   34   35 1
    42   34   42 2
    43   36   37 1
    44   37   38 2
    45   37   39 1
    46    1   43 1
    47    6   44 1
    48    7   45 1
    49   10   46 1
    50   10   47 1
    51   12   48 1
    52   13   49 1
    53   14   50 1
    54   16   51 1
    55   18   52 1
    56   18   53 1
    57   19   54 1
    58   20   55 1
    59   21   56 1
    60   21   57 1
    61   22   58 1
    62   22   59 1
    63   23   60 1
    64   23   61 1
    65   24   62 1
    66   24   63 1
    67   26   64 1
    68   27   65 1
    69   28   66 1
    70   28   67 1
    71   29   68 1
    72   29   69 1
    73   32   70 1
    74   33   71 1
    75   34   72 1
    76   35   73 1
    77   36   74 1
    78   38   75 1
    79   39   76 1
    80   39   77 1
    81   40   78 1
    82   41   79 1
    83   41   80 1
    84   19   81 1
    85   38   82 1
@<TRIPOS>PROPERTY_DATA
  Total_Score	| 10.0921
  Crash		| -2.0622
  Polar		| 7.1140
  FragIndex	| 1
  FragRMSD	| 1.228

