@<TRIPOS>MOLECULE
BindingDB_23880
 77 80 0 0 0
SMALL
NO_CHARGES


@<TRIPOS>ATOM
1    C        14.4299   65.0889   29.5235  C     
2    C        16.5034   66.2824   28.0381  C     
3    C        15.7172   64.5248   29.5321  C     
4    C        16.7611   65.1205   28.7968  C     
5    S        18.3379   64.3780   28.7870  S     
6    O        19.5380   65.4175   28.6487  O     
7    O        18.5851   63.6320   30.1709  O     
8    N        18.4620   63.1850   27.6064  N     
9    C        18.3307   63.4514   26.1994  C     
10   C        17.0656   62.9293   25.6457  C     
11   O        16.6673   61.8943   26.1724  O     
12   C        19.6111   62.9423   25.4539  C     
13   C        19.5724   61.5306   24.9680  C     
14   C        19.2070   61.2578   23.6318  C     
15   C        19.1495   59.9406   23.1548  C     
16   C        19.4693   58.8737   24.0083  C     
17   C        19.8548   59.0986   25.3565  C     
18   C        19.8829   60.4418   25.8196  C     
19   C        20.2835   58.0057   26.1742  C     
20   N        20.0655   56.7141   25.8575  N     
21   N        20.9967   58.1765   27.3017  N     
22   C        16.8907   64.5717   23.8139  C     
23   C        16.0695   64.9385   22.5405  C     
24   C        14.1597   63.7833   23.6078  C     
25   C        15.2398   62.7414   24.0159  C     
26   N        16.4271   63.3984   24.5466  N     
27   N        14.6421   64.9114   22.8157  N     
28   C        13.7587   65.8434   22.3884  C     
29   O        12.6321   65.8428   22.8789  O     
30   C        13.9865   66.9631   21.4580  C     
31   C        12.9067   67.1373   20.3445  C     
32   N        12.9474   68.4605   19.7851  N     
33   C        12.0385   69.0032   18.9440  C     
34   N        12.1482   70.3114   18.6614  N     
35   N        11.0163   68.3328   18.3779  N     
36   C        14.1670   66.2610   28.7846  C     
37   C        13.6566   68.6157   27.3175  C     
38   C        14.9389   68.0400   27.2918  C     
39   C        15.2117   66.8652   28.0285  C     
40   C        12.8802   66.8447   28.7943  C     
41   C        12.6294   68.0204   28.0679  C     
42   H        13.6900   64.6394   30.0677  H     
43   H        17.2571   66.7079   27.4918  H     
44   H        15.8795   63.6756   30.0774  H     
45   H        18.4280   62.2599   27.9086  H     
46   H        18.3232   64.5383   26.0863  H     
47   H        19.7977   63.5968   24.6002  H     
48   H        20.4865   63.0726   26.0966  H     
49   H        18.9633   62.0188   22.9933  H     
50   H        18.8895   59.7601   22.1818  H     
51   H        19.4433   57.9291   23.6142  H     
52   H        20.1466   60.6400   26.7871  H     
53   H        20.5154   56.0131   26.3610  H     
54   H        19.5126   56.4765   25.0966  H     
55   H        21.3149   57.3953   27.7816  H     
56   H        17.9219   64.4355   23.4895  H     
57   H        16.8516   65.4323   24.4879  H     
58   H        16.4378   65.9115   22.2019  H     
59   H        16.2753   64.1978   21.7561  H     
60   H        13.3824   63.2596   23.0458  H     
61   H        13.7136   64.1716   24.5263  H     
62   H        14.7743   62.0406   24.7144  H     
63   H        15.5287   62.1676   23.1275  H     
64   H        14.0144   67.8754   22.0632  H     
65   H        14.9516   66.8794   20.9519  H     
66   H        13.0672   66.4109   19.5362  H     
67   H        11.9107   66.9774   20.7686  H     
68   H        13.6490   69.0520   20.1067  H     
69   H        11.4923   70.7431   18.0875  H     
70   H        10.3857   68.8063   17.8073  H     
71   H        10.9017   67.3813   18.5314  H     
72   H        13.4687   69.4710   26.7887  H     
73   H        15.6737   68.4913   26.7390  H     
74   H        12.1207   66.4235   29.3354  H     
75   H        11.6975   68.4424   28.0870  H     
76   H        21.2093   59.0633   27.6310  H     
77   H        12.8562   70.8365   19.0685  H     
@<TRIPOS>BOND
     1    1    3 2
     2    1   36 1
     3    2    4 2
     4    2   39 1
     5    3    4 1
     6    4    5 1
     7    5    6 2
     8    5    7 2
     9    5    8 1
    10    8    9 1
    11    9   10 1
    12    9   12 1
    13   10   11 2
    14   10   26 am
    15   12   13 1
    16   13   14 1
    17   13   18 2
    18   14   15 2
    19   15   16 1
    20   16   17 2
    21   17   18 1
    22   17   19 1
    23   19   20 1
    24   19   21 2
    25   22   23 1
    26   22   26 1
    27   23   27 1
    28   24   25 1
    29   24   27 1
    30   25   26 1
    31   27   28 am
    32   28   29 2
    33   28   30 1
    34   30   31 1
    35   31   32 1
    36   32   33 1
    37   33   34 2
    38   33   35 1
    39   36   39 2
    40   36   40 1
    41   37   38 2
    42   37   41 1
    43   38   39 1
    44   40   41 2
    45    1   42 1
    46    2   43 1
    47    3   44 1
    48    8   45 1
    49    9   46 1
    50   12   47 1
    51   12   48 1
    52   14   49 1
    53   15   50 1
    54   16   51 1
    55   18   52 1
    56   20   53 1
    57   20   54 1
    58   21   55 1
    59   22   56 1
    60   22   57 1
    61   23   58 1
    62   23   59 1
    63   24   60 1
    64   24   61 1
    65   25   62 1
    66   25   63 1
    67   30   64 1
    68   30   65 1
    69   31   66 1
    70   31   67 1
    71   32   68 1
    72   34   69 1
    73   35   70 1
    74   35   71 1
    75   37   72 1
    76   38   73 1
    77   40   74 1
    78   41   75 1
    79   21   76 1
    80   34   77 1
@<TRIPOS>PROPERTY_DATA
  Total_Score	| 10.5195
  Crash		| -1.8875
  Polar		| 8.4282
  FragIndex	| 1
  FragRMSD	| 0.928

