@<TRIPOS>MOLECULE
BindingDB_23907
 79 82 0 0 0
SMALL
NO_CHARGES


@<TRIPOS>ATOM
1    C        16.4583   66.2565   28.2452  C     
2    C        16.7542   65.0378   28.8842  C     
3    S        18.3636   64.3775   28.7791  S     
4    O        19.4763   65.4831   28.5030  O     
5    O        18.7389   63.7030   30.1664  O     
6    N        18.4784   63.1705   27.6046  N     
7    C        18.4193   63.4661   26.1991  C     
8    C        17.1725   62.9947   25.5620  C     
9    O        16.7228   61.9576   26.0493  O     
10   C        19.7031   62.9150   25.4930  C     
11   C        19.6118   61.5077   25.0004  C     
12   C        19.2537   61.2477   23.6560  C     
13   C        19.1993   59.9354   23.1657  C     
14   C        19.5137   58.8579   24.0111  C     
15   C        19.8996   59.0683   25.3605  C     
16   C        19.9206   60.4084   25.8375  C     
17   C        20.3148   57.9675   26.1796  C     
18   N        20.9956   58.1222   27.3276  N     
19   N        20.1304   56.6819   25.8272  N     
20   C        14.6209   65.1006   22.8856  C     
21   C        14.2639   63.7803   23.6377  C     
22   C        15.4779   62.8271   23.7843  C     
23   C        17.0377   64.6953   23.7388  C     
24   C        15.8731   65.7198   23.5841  C     
25   C        13.3735   66.0449   22.8147  C     
26   N        16.5975   63.4948   24.4381  N     
27   C        13.4664   67.2819   21.8615  C     
28   C        14.4182   64.8235   29.5562  C     
29   C        15.7274   64.3147   29.5277  C     
30   C        15.1450   66.7774   28.2665  C     
31   C        14.1128   66.0513   28.9322  C     
32   C        12.8145   66.5779   28.9214  C     
33   C        12.5595   67.7499   28.3038  C     
34   C        13.5489   68.4371   27.6581  C     
35   C        14.8184   67.9835   27.6369  C     
36   C        12.4284   67.3181   20.7011  C     
37   N        12.2118   68.6642   20.2566  N     
38   C        11.4319   69.0471   19.2207  C     
39   N        11.2195   70.3634   19.0206  N     
40   N        10.8104   68.2162   18.3654  N     
41   H        17.2013   66.7692   27.7602  H     
42   H        18.2684   62.2629   27.8834  H     
43   H        18.4659   64.5548   26.1312  H     
44   H        19.9352   63.5824   24.6561  H     
45   H        20.5605   62.9977   26.1650  H     
46   H        19.0130   62.0163   23.0176  H     
47   H        18.9531   59.7602   22.1893  H     
48   H        19.5118   57.9233   23.6047  H     
49   H        20.1811   60.5985   26.8057  H     
50   H        21.3109   57.3359   27.7989  H     
51   H        21.1879   58.9967   27.6917  H     
52   H        20.5539   55.9783   26.3396  H     
53   H        14.8989   64.8338   21.8634  H     
54   H        13.8718   64.0094   24.6346  H     
55   H        13.4848   63.2534   23.0865  H     
56   H        15.1298   61.9305   24.3067  H     
57   H        15.7881   62.4980   22.7874  H     
58   H        17.3961   64.4169   22.7430  H     
59   H        17.8621   65.2229   24.2121  H     
60   H        16.2355   66.5719   23.0050  H     
61   H        15.5949   66.0908   24.5755  H     
62   H        12.5139   65.4464   22.5148  H     
63   H        13.1663   66.4005   23.8314  H     
64   H        13.3200   68.1808   22.4661  H     
65   H        14.4743   67.3665   21.4361  H     
66   H        13.6853   64.2874   30.0312  H     
67   H        15.9226   63.4164   29.9763  H     
68   H        12.0757   66.1031   29.3826  H     
69   H        11.6371   68.1159   28.3094  H     
70   H        13.3289   69.2903   27.1935  H     
71   H        15.5166   68.5063   27.1595  H     
72   H        12.7920   66.7080   19.8648  H     
73   H        11.4771   66.9199   21.0589  H     
74   H        12.6052   69.3822   20.7825  H     
75   H        10.6253   70.6534   18.3070  H     
76   H        10.2319   68.5895   17.6770  H     
77   H        10.9272   67.2563   18.4331  H     
78   H        19.6154   56.4481   25.0452  H     
79   H        11.6342   71.0185   19.6044  H     
@<TRIPOS>BOND
     1    1    2 1
     2    1   30 2
     3    2    3 1
     4    2   29 2
     5    3    4 2
     6    3    5 2
     7    3    6 1
     8    6    7 1
     9    7    8 1
    10    7   10 1
    11    8    9 2
    12    8   26 am
    13   10   11 1
    14   11   12 1
    15   11   16 2
    16   12   13 2
    17   13   14 1
    18   14   15 2
    19   15   16 1
    20   15   17 1
    21   17   18 1
    22   17   19 2
    23   20   21 1
    24   20   24 1
    25   20   25 1
    26   21   22 1
    27   22   26 1
    28   23   24 1
    29   23   26 1
    30   25   27 1
    31   27   36 1
    32   28   29 1
    33   28   31 2
    34   30   31 1
    35   30   35 1
    36   31   32 1
    37   32   33 2
    38   33   34 1
    39   34   35 2
    40   36   37 1
    41   37   38 1
    42   38   39 2
    43   38   40 1
    44    1   41 1
    45    6   42 1
    46    7   43 1
    47   10   44 1
    48   10   45 1
    49   12   46 1
    50   13   47 1
    51   14   48 1
    52   16   49 1
    53   18   50 1
    54   18   51 1
    55   19   52 1
    56   20   53 1
    57   21   54 1
    58   21   55 1
    59   22   56 1
    60   22   57 1
    61   23   58 1
    62   23   59 1
    63   24   60 1
    64   24   61 1
    65   25   62 1
    66   25   63 1
    67   27   64 1
    68   27   65 1
    69   28   66 1
    70   29   67 1
    71   32   68 1
    72   33   69 1
    73   34   70 1
    74   35   71 1
    75   36   72 1
    76   36   73 1
    77   37   74 1
    78   39   75 1
    79   40   76 1
    80   40   77 1
    81   19   78 1
    82   39   79 1
@<TRIPOS>PROPERTY_DATA
  Total_Score	| 10.7668
  Crash		| -2.2505
  Polar		| 9.0400
  FragIndex	| 1
  FragRMSD	| 0.834

