@<TRIPOS>MOLECULE
BindingDB_50329016
 60 64 0 0 0
SMALL
NO_CHARGES


@<TRIPOS>ATOM
1    C        -8.5690  -27.2418   -3.1821  C     
2    C        -9.8097  -27.0577   -3.8256  C     
3    C       -10.5792  -25.9032   -3.5621  C     
4    C        -8.1007  -26.2954   -2.2502  C     
5    N       -10.6276  -23.8027   -2.1506  N     
6    C        -9.8017  -23.3183   -1.1973  C     
7    C        -8.7405  -24.1420   -1.0790  C     
8    C        -8.8963  -25.1656   -1.9701  C     
9    C       -10.1076  -24.9587   -2.6224  C     
10   C       -11.8313  -23.2892   -2.5573  C     
11   C       -13.0275  -24.0086   -2.3274  C     
12   C       -14.2688  -23.4901   -2.7416  C     
13   C       -14.3263  -22.2432   -3.3915  C     
14   C       -13.1423  -21.5213   -3.6316  C     
15   C       -11.8991  -22.0411   -3.2200  C     
16   C        -7.7303  -24.0810   -0.1721  C     
17   N        -7.7413  -24.6951    1.0322  N     
18   O        -6.7696  -23.4197   -0.5481  O     
19   C        -8.8452  -25.5614    1.4301  C     
20   C        -8.8699  -25.9004    2.9389  C     
21   N        -7.5649  -26.3466    3.4625  N     
22   C        -6.3584  -25.8690    2.7514  C     
23   C        -6.6047  -24.5742    1.9390  C     
24   C       -10.0491  -22.1374   -0.3529  C     
25   C       -10.7191  -22.4636    0.9470  C     
26   C       -12.0500  -22.9468    0.8742  C     
27   C       -12.7586  -23.3184    2.0248  C     
28   C       -12.1539  -23.2058    3.2814  C     
29   C       -10.8480  -22.6956    3.3915  C     
30   C       -10.1195  -22.2984    2.2357  C     
31   O       -10.2816  -28.0162   -4.6619  O     
32   C        -8.7658  -21.6915    2.3932  C     
33   F       -10.3443  -22.6161    4.5967  F     
34   H        -8.0147  -28.0795   -3.3697  H     
35   H       -11.4770  -25.7690   -4.0272  H     
36   H        -7.2116  -26.4446   -1.7701  H     
37   H       -12.9977  -24.9091   -1.8414  H     
38   H       -15.1283  -24.0153   -2.5604  H     
39   H       -15.2293  -21.8628   -3.6877  H     
40   H       -13.1849  -20.6180   -4.1111  H     
41   H       -11.0441  -21.5093   -3.4099  H     
42   H        -8.7745  -26.4990    0.8692  H     
43   H        -9.8105  -25.1085    1.1941  H     
44   H        -9.6089  -26.6827    3.1308  H     
45   H        -9.1614  -25.0132    3.5059  H     
46   H        -7.5644  -27.3672    3.4406  H     
47   H        -7.5243  -26.0403    4.4374  H     
48   H        -5.5602  -25.7050    3.4773  H     
49   H        -6.0395  -26.6587    2.0639  H     
50   H        -6.8020  -23.7642    2.6468  H     
51   H        -5.6709  -24.3364    1.4211  H     
52   H       -10.6838  -21.4144   -0.8688  H     
53   H        -9.0983  -21.6271   -0.2126  H     
54   H       -12.5204  -23.0415   -0.0302  H     
55   H       -13.7151  -23.6719    1.9485  H     
56   H       -12.6721  -23.4945    4.1153  H     
57   H        -9.5267  -28.2345   -5.2501  H     
58   H        -8.0172  -22.2571    1.8305  H     
59   H        -8.7827  -20.6630    2.0192  H     
60   H        -8.4302  -21.6553    3.4324  H     
@<TRIPOS>BOND
     1    1    2 2
     2    7   16 1
     3    8    4 2
     4   16   17 1
     5    5    6 1
     6   16   18 2
     7   17   19 1
     8    7    8 1
     9    9    5 1
    10    4    1 1
    11    8    9 1
    12   10   11 2
    13   17   23 1
    14   19   20 1
    15   20   21 1
    16   21   22 1
    17   22   23 1
    18    6   24 1
    19   24   25 1
    20   11   12 1
    21    2    3 1
    22   25   26 2
    23   12   13 2
    24   26   27 1
    25    6    7 2
    26   27   28 2
    27   13   14 1
    28   28   29 1
    29    3    9 2
    30   29   30 2
    31   30   25 1
    32   14   15 2
    33    2   31 1
    34   15   10 1
    35   30   32 1
    36    5   10 1
    37   29   33 1
    38    1   34 1
    39    3   35 1
    40    4   36 1
    41   11   37 1
    42   12   38 1
    43   13   39 1
    44   14   40 1
    45   15   41 1
    46   19   42 1
    47   19   43 1
    48   20   44 1
    49   20   45 1
    50   21   46 1
    51   21   47 1
    52   22   48 1
    53   22   49 1
    54   23   50 1
    55   23   51 1
    56   24   52 1
    57   24   53 1
    58   26   54 1
    59   27   55 1
    60   28   56 1
    61   31   57 1
    62   32   58 1
    63   32   59 1
    64   32   60 1
@<TRIPOS>PROPERTY_DATA
  Total_Score	| 11.9363
  Crash		| -0.9330
  Polar		| 6.5175
  FragIndex	| 1
  FragRMSD	| 0.632

