@<TRIPOS>MOLECULE
BindingDB_50329015
 63 67 0 0 0
SMALL
NO_CHARGES


@<TRIPOS>ATOM
1    C        -8.9959  -26.7290   -3.6618  C     
2    C       -10.2140  -26.3391   -4.2770  C     
3    C       -10.8828  -25.1900   -3.7914  C     
4    C        -8.4435  -25.9889   -2.5970  C     
5    N       -10.7412  -23.3316   -2.0723  N     
6    C        -9.8370  -23.0293   -1.1056  C     
7    C        -8.8457  -23.9442   -1.1324  C     
8    C        -9.1189  -24.8373   -2.1359  C     
9    C       -10.3248  -24.4479   -2.7182  C     
10   C       -11.8925  -22.6542   -2.4038  C     
11   C       -13.1494  -23.3099   -2.4177  C     
12   C       -14.3291  -22.6173   -2.7437  C     
13   C       -14.2747  -21.2521   -3.0764  C     
14   C       -13.0330  -20.5835   -3.0694  C     
15   C       -11.8521  -21.2815   -2.7447  C     
16   C        -7.7937  -24.0481   -0.2811  C     
17   N        -7.8436  -24.6465    0.9248  N     
18   O        -6.7610  -23.5287   -0.6889  O     
19   C        -6.6526  -24.6741    1.7616  C     
20   C        -6.8622  -25.2517    3.1842  C     
21   N        -7.6526  -26.5025    3.1784  N     
22   C        -8.7372  -26.5987    2.1772  C     
23   C        -9.0476  -25.2685    1.4566  C     
24   C        -9.9304  -21.9088   -0.1503  C     
25   C       -10.1281  -22.2946    1.2949  C     
26   C        -9.1109  -21.9362    2.2232  C     
27   C        -9.2395  -22.2435    3.5900  C     
28   C       -10.3958  -22.8944    4.0548  C     
29   C       -11.4280  -23.2303    3.1615  C     
30   C       -11.3133  -22.9367    1.7741  C     
31   O       -10.6740  -27.1346   -5.3012  O     
32   C       -11.5177  -26.5498   -6.3182  C     
33   C       -12.3992  -23.3557    0.8426  C     
34   F       -12.4740  -23.8364    3.6627  F     
35   H        -8.5107  -27.5652   -3.9984  H     
36   H       -11.7675  -24.8997   -4.2101  H     
37   H        -7.5568  -26.2826   -2.1674  H     
38   H       -13.2055  -24.3082   -2.1892  H     
39   H       -15.2209  -23.1100   -2.7462  H     
40   H       -15.1282  -20.7494   -3.3108  H     
41   H       -12.9926  -19.5981   -3.3246  H     
42   H       -10.9629  -20.7694   -2.7390  H     
43   H        -6.2527  -23.6617    1.8813  H     
44   H        -5.8893  -25.2734    1.2571  H     
45   H        -7.3938  -24.5178    3.7926  H     
46   H        -5.8985  -25.4432    3.6572  H     
47   H        -8.0568  -26.6172    4.1041  H     
48   H        -7.0370  -27.2917    3.0153  H     
49   H        -9.6429  -26.9579    2.6788  H     
50   H        -8.4474  -27.3378    1.4232  H     
51   H        -9.4794  -24.5888    2.1845  H     
52   H        -9.8153  -25.4676    0.7050  H     
53   H        -9.0147  -21.3213   -0.2860  H     
54   H       -10.7529  -21.2369   -0.4216  H     
55   H        -8.2504  -21.4693    1.9116  H     
56   H        -8.4979  -21.9797    4.2447  H     
57   H       -10.4701  -23.1243    5.0551  H     
58   H       -11.6688  -27.2943   -7.1023  H     
59   H       -11.0655  -25.6649   -6.7679  H     
60   H       -12.4923  -26.2872   -5.9127  H     
61   H       -12.7256  -22.5089    0.2374  H     
62   H       -12.0087  -24.1435    0.2012  H     
63   H       -13.2824  -23.7393    1.3497  H     
@<TRIPOS>BOND
     1    7   16 1
     2    8    4 2
     3   16   17 1
     4    5    6 1
     5   16   18 2
     6   17   19 1
     7    7    8 1
     8    9    5 1
     9    4    1 1
    10    8    9 1
    11   10   11 2
    12   17   23 1
    13   19   20 1
    14   20   21 1
    15   21   22 1
    16   22   23 1
    17    6   24 1
    18   24   25 1
    19   11   12 1
    20    2    3 1
    21   25   26 2
    22   12   13 2
    23   26   27 1
    24    6    7 2
    25   27   28 2
    26   13   14 1
    27   28   29 1
    28    3    9 2
    29   29   30 2
    30   30   25 1
    31   14   15 2
    32    2   31 1
    33   15   10 1
    34   31   32 1
    35    5   10 1
    36   30   33 1
    37    1    2 2
    38   29   34 1
    39    1   35 1
    40    3   36 1
    41    4   37 1
    42   11   38 1
    43   12   39 1
    44   13   40 1
    45   14   41 1
    46   15   42 1
    47   19   43 1
    48   19   44 1
    49   20   45 1
    50   20   46 1
    51   21   47 1
    52   21   48 1
    53   22   49 1
    54   22   50 1
    55   23   51 1
    56   23   52 1
    57   24   53 1
    58   24   54 1
    59   26   55 1
    60   27   56 1
    61   28   57 1
    62   32   58 1
    63   32   59 1
    64   32   60 1
    65   33   61 1
    66   33   62 1
    67   33   63 1
@<TRIPOS>PROPERTY_DATA
  Total_Score	| 11.7018
  Crash		| -1.3274
  Polar		| 5.2437
  FragIndex	| 1
  FragRMSD	| 0.237

