@<TRIPOS>MOLECULE
BindingDB_50329046
 56 60 0 0 0
SMALL
NO_CHARGES


@<TRIPOS>ATOM
1    C       -14.1233  -21.1483   -2.9251  C     
2    C       -14.2166  -22.5319   -2.6984  C     
3    C       -13.0543  -23.2805   -2.4316  C     
4    C       -11.7749  -22.6667   -2.4191  C     
5    C       -11.6946  -21.2832   -2.7040  C     
6    C       -12.8630  -20.5232   -2.9193  C     
7    N       -10.6477  -23.4021   -2.1218  N     
8    C       -10.2811  -24.5343   -2.7725  C     
9    C        -9.1271  -25.0565   -2.1818  C     
10   C        -8.7862  -24.2005   -1.1380  C     
11   C        -9.7441  -23.1693   -1.1226  C     
12   C       -10.8526  -25.1890   -3.8888  C     
13   C       -10.2569  -26.3636   -4.3921  C     
14   C        -9.0903  -26.8801   -3.7928  C     
15   C        -8.5169  -26.2277   -2.6813  C     
16   C       -10.5019  -22.5020    1.1635  C     
17   C        -9.8604  -22.4694    2.4256  C     
18   C       -10.5615  -22.7964    3.6043  C     
19   C       -11.9146  -23.1737    3.5359  C     
20   C       -12.5737  -23.1927    2.2946  C     
21   C       -11.8755  -22.8515    1.1232  C     
22   C        -7.6732  -24.3408   -0.3190  C     
23   N        -7.5152  -25.2943    0.6208  N     
24   O        -6.7962  -23.5168   -0.5501  O     
25   C        -6.2501  -25.4711    1.3231  C     
26   C        -6.4551  -25.2731    2.8453  C     
27   N        -7.5170  -26.1795    3.3406  N     
28   C        -8.7895  -26.0702    2.5928  C     
29   C        -8.5774  -26.1900    1.0595  C     
30   C        -9.7853  -22.0959   -0.0787  C     
31   H       -14.9699  -20.5988   -3.0954  H     
32   H       -15.1301  -22.9903   -2.7121  H     
33   H       -13.1492  -24.2778   -2.2257  H     
34   H       -10.7837  -20.8214   -2.7463  H     
35   H       -12.7973  -19.5149   -3.0688  H     
36   H       -11.6822  -24.8123   -4.3507  H     
37   H       -10.6659  -26.8359   -5.2057  H     
38   H        -8.6555  -27.7254   -4.1754  H     
39   H        -7.6624  -26.5977   -2.2585  H     
40   H        -8.8772  -22.1985    2.5012  H     
41   H       -10.0869  -22.7672    4.5081  H     
42   H       -12.4230  -23.4298    4.3875  H     
43   H       -13.5675  -23.4409    2.2452  H     
44   H       -12.3886  -22.8346    0.2429  H     
45   H        -5.8862  -26.4875    1.1470  H     
46   H        -5.4556  -24.7949    0.9938  H     
47   H        -5.5286  -25.4949    3.3782  H     
48   H        -6.7265  -24.2346    3.0524  H     
49   H        -7.1875  -27.1453    3.2656  H     
50   H        -7.7075  -25.9714    4.3244  H     
51   H        -9.4671  -26.8576    2.9361  H     
52   H        -9.2484  -25.1113    2.8288  H     
53   H        -9.5381  -25.9981    0.5804  H     
54   H        -8.3016  -27.2194    0.8181  H     
55   H        -8.7596  -21.7953    0.1551  H     
56   H       -10.2786  -21.2033   -0.4582  H     
@<TRIPOS>BOND
     1    1    2 2
     2    1    6 1
     3    2    3 1
     4    3    4 2
     5    4    5 1
     6    4    7 1
     7    5    6 2
     8    7    8 1
     9    7   11 1
    10    8    9 2
    11    8   12 1
    12    9   10 1
    13    9   15 1
    14   10   11 2
    15   10   22 1
    16   11   30 1
    17   12   13 2
    18   13   14 1
    19   14   15 2
    20   16   17 2
    21   16   21 1
    22   16   30 1
    23   17   18 1
    24   18   19 2
    25   19   20 1
    26   20   21 2
    27   22   23 am
    28   22   24 2
    29   23   25 1
    30   23   29 1
    31   25   26 1
    32   26   27 1
    33   27   28 1
    34   28   29 1
    35    1   31 1
    36    2   32 1
    37    3   33 1
    38    5   34 1
    39    6   35 1
    40   12   36 1
    41   13   37 1
    42   14   38 1
    43   15   39 1
    44   17   40 1
    45   18   41 1
    46   19   42 1
    47   20   43 1
    48   21   44 1
    49   25   45 1
    50   25   46 1
    51   26   47 1
    52   26   48 1
    53   27   49 1
    54   27   50 1
    55   28   51 1
    56   28   52 1
    57   29   53 1
    58   29   54 1
    59   30   55 1
    60   30   56 1
@<TRIPOS>PROPERTY_DATA
  Total_Score	| 11.7599
  Crash		| -0.2872
  Polar		| 5.4797
  FragIndex	| 1
  FragRMSD	| 0.512

