@<TRIPOS>MOLECULE
BindingDB_50419724
 76 81 0 0 0
SMALL
NO_CHARGES


@<TRIPOS>ATOM
1    C        -8.8002  -23.9240   -0.9512  C     
2    C        -9.7235  -22.9552   -0.7622  C     
3    N       -10.6627  -23.0338   -1.7278  N     
4    C        -9.1703  -24.6315   -2.0618  C     
5    C       -10.3569  -24.0792   -2.5275  C     
6    C        -7.6627  -24.1588   -0.2327  C     
7    C        -9.6802  -21.9514    0.3096  C     
8    C       -10.9861  -24.5971   -3.6731  C     
9    C        -8.5706  -25.7105   -2.7439  C     
10   N        -7.5164  -25.1358    0.6866  N     
11   C       -10.4091  -25.6746   -4.3901  C     
12   C        -9.8859  -22.4288    1.7164  C     
13   C       -10.9821  -25.6884   -6.9740  C     
14   C        -9.2106  -26.2473   -3.8854  C     
15   C       -11.1397  -26.2221   -5.5735  C     
16   C       -11.0850  -23.0728    2.1644  C     
17   C       -10.1635  -24.5965   -7.4230  C     
18   C       -11.6886  -22.1601   -1.9928  C     
19   O        -6.7258  -23.4391   -0.5577  O     
20   N        -7.5513  -26.2344    3.3302  N     
21   C       -10.1417  -24.2761   -8.8126  C     
22   C       -11.2456  -23.3585    3.5490  C     
23   F       -12.3117  -23.9520    4.0228  F     
24   F        -9.4260  -23.2875   -9.2948  F     
25   O        -8.6298  -27.3282   -4.4700  O     
26   C        -6.2554  -25.3557    1.3880  C     
27   C        -8.5771  -26.0655    1.0517  C     
28   C        -8.8899  -22.1076    2.6737  C     
29   C       -11.7283  -26.4062   -7.9548  C     
30   C       -11.6978  -26.0686   -9.3165  C     
31   C        -9.0569  -22.4158    4.0327  C     
32   C        -8.8117  -26.0527    2.5818  C     
33   C        -6.4690  -25.3099    2.9242  C     
34   C        -9.3634  -23.7569   -6.4909  C     
35   C       -12.1555  -23.4729    1.2115  C     
36   C       -10.2323  -23.0411    4.4695  C     
37   C       -10.9056  -24.9989   -9.7465  C     
38   C       -11.4208  -20.7833   -2.1648  C     
39   C       -13.0236  -22.6161   -2.1146  C     
40   C       -14.0676  -21.7093   -2.3768  C     
41   C       -12.4657  -19.8763   -2.4258  C     
42   C       -13.7908  -20.3389   -2.5306  C     
43   H        -8.7185  -21.4433    0.2025  H     
44   H       -10.4297  -21.1760    0.1555  H     
45   H       -11.8627  -24.1785   -4.0005  H     
46   H        -7.7100  -26.1298   -2.3899  H     
47   H       -10.9470  -27.2955   -5.6330  H     
48   H       -12.2006  -26.1266   -5.3279  H     
49   H        -7.7580  -26.1129    4.3259  H     
50   H        -7.2287  -27.1918    3.1762  H     
51   H        -7.9351  -26.9699   -5.0761  H     
52   H        -5.8677  -26.3414    1.1173  H     
53   H        -5.4777  -24.6348    1.1355  H     
54   H        -9.5399  -25.8562    0.5824  H     
55   H        -8.2841  -27.0740    0.7482  H     
56   H        -8.0228  -21.6363    2.3928  H     
57   H       -12.3228  -27.1992   -7.6853  H     
58   H       -12.2611  -26.5988   -9.9885  H     
59   H        -8.3200  -22.1867    4.7076  H     
60   H        -9.5048  -26.8492    2.8525  H     
61   H        -9.2604  -25.1059    2.8792  H     
62   H        -6.7125  -24.2921    3.2342  H     
63   H        -5.5496  -25.6002    3.4375  H     
64   H       -10.0608  -23.2554   -5.8104  H     
65   H        -8.7702  -22.9858   -6.9852  H     
66   H        -8.6672  -24.3987   -5.9436  H     
67   H       -12.4556  -22.6158    0.6126  H     
68   H       -13.0560  -23.8497    1.6994  H     
69   H       -11.7848  -24.2648    0.5594  H     
70   H       -10.3403  -23.2766    5.4574  H     
71   H       -10.8921  -24.7485  -10.7408  H     
72   H       -10.4626  -20.4287   -2.1035  H     
73   H       -13.2392  -23.6107   -2.0116  H     
74   H       -15.0295  -22.0499   -2.4572  H     
75   H       -12.2660  -18.8813   -2.5403  H     
76   H       -14.5467  -19.6828   -2.7329  H     
@<TRIPOS>BOND
     1    1    2 2
     2    1    4 1
     3    1    6 1
     4    2    3 1
     5    2    7 1
     6    3    5 1
     7    3   18 1
     8    4    5 1
     9    4    9 2
    10    5    8 2
    11    6   10 am
    12    6   19 2
    13    7   12 1
    14    8   11 1
    15    9   14 1
    16   10   26 1
    17   10   27 1
    18   11   14 2
    19   11   15 1
    20   12   16 1
    21   12   28 2
    22   13   15 1
    23   13   17 2
    24   13   29 1
    25   14   25 1
    26   16   22 2
    27   16   35 1
    28   17   21 1
    29   17   34 1
    30   18   38 2
    31   18   39 1
    32   20   32 1
    33   20   33 1
    34   21   24 1
    35   21   37 2
    36   22   23 1
    37   22   36 1
    38   26   33 1
    39   27   32 1
    40   28   31 1
    41   29   30 2
    42   30   37 1
    43   31   36 2
    44   38   41 1
    45   39   40 2
    46   40   42 1
    47   41   42 2
    48    7   43 1
    49    7   44 1
    50    8   45 1
    51    9   46 1
    52   15   47 1
    53   15   48 1
    54   20   49 1
    55   20   50 1
    56   25   51 1
    57   26   52 1
    58   26   53 1
    59   27   54 1
    60   27   55 1
    61   28   56 1
    62   29   57 1
    63   30   58 1
    64   31   59 1
    65   32   60 1
    66   32   61 1
    67   33   62 1
    68   33   63 1
    69   34   64 1
    70   34   65 1
    71   34   66 1
    72   35   67 1
    73   35   68 1
    74   35   69 1
    75   36   70 1
    76   37   71 1
    77   38   72 1
    78   39   73 1
    79   40   74 1
    80   41   75 1
    81   42   76 1
@<TRIPOS>PROPERTY_DATA
  Total_Score	| 14.0673
  Crash		| -1.6812
  Polar		| 5.7425
  FragIndex	| 1
  FragRMSD	| 0.406

