@<TRIPOS>MOLECULE
BindingDB_50329017
 60 64 0 0 0
SMALL
NO_CHARGES


@<TRIPOS>ATOM
1    C        -8.7468  -26.8833   -3.4937  C     
2    C        -9.9596  -26.5590   -4.1428  C     
3    C       -10.7081  -25.4372   -3.7311  C     
4    C        -8.2807  -26.0839   -2.4304  C     
5    N       -10.7273  -23.5348   -2.0693  N     
6    C        -9.8820  -23.1737   -1.0766  C     
7    C        -8.8438  -24.0310   -1.0468  C     
8    C        -9.0418  -24.9680   -2.0230  C     
9    C       -10.2404  -24.6485   -2.6575  C     
10   C       -11.8539  -22.8811   -2.4949  C     
11   C       -11.7566  -21.5985   -3.0796  C     
12   C       -12.9131  -20.9146   -3.5002  C     
13   C       -14.1794  -21.5126   -3.3548  C     
14   C       -14.2861  -22.7987   -2.7937  C     
15   C       -13.1285  -23.4810   -2.3718  C     
16   C        -7.7903  -24.0304   -0.1851  C     
17   N        -7.6745  -24.8246    0.9015  N     
18   O        -6.9064  -23.2333   -0.4853  O     
19   C        -6.5228  -24.6709    1.7806  C     
20   C        -6.3108  -25.8255    2.7964  C     
21   N        -7.5461  -26.3169    3.4465  N     
22   C        -8.8244  -25.9885    2.7868  C     
23   C        -8.6897  -25.8097    1.2566  C     
24   C       -10.0438  -22.0170   -0.1831  C     
25   C       -10.1187  -22.3293    1.2830  C     
26   C        -9.0668  -21.8618    2.1157  C     
27   C        -9.0873  -22.0647    3.5039  C     
28   C       -10.1721  -22.7263    4.0960  C     
29   C       -11.2312  -23.1969    3.2986  C     
30   C       -11.2229  -23.0115    1.8897  C     
31   C       -12.3616  -23.5266    1.0758  C     
32   O        -8.0101  -27.9582   -3.8793  O     
33   F       -12.2075  -23.8051    3.9187  F     
34   H       -10.3030  -27.1396   -4.9121  H     
35   H       -11.5841  -25.2042   -4.2038  H     
36   H        -7.4041  -26.3122   -1.9580  H     
37   H       -10.8413  -21.1567   -3.1998  H     
38   H       -12.8316  -19.9867   -3.9197  H     
39   H       -15.0220  -21.0148   -3.6579  H     
40   H       -15.2057  -23.2351   -2.6883  H     
41   H       -13.2207  -24.4137   -1.9621  H     
42   H        -5.5982  -24.5951    1.1956  H     
43   H        -6.6438  -23.7385    2.3393  H     
44   H        -5.8714  -26.6752    2.2634  H     
45   H        -5.6081  -25.5162    3.5746  H     
46   H        -7.5958  -25.9613    4.4077  H     
47   H        -7.4827  -27.3376    3.4807  H     
48   H        -9.5475  -26.7739    3.0103  H     
49   H        -9.1944  -25.0617    3.2213  H     
50   H        -8.4161  -26.7705    0.8096  H     
51   H        -9.6902  -25.5392    0.8926  H     
52   H       -10.9407  -21.4513   -0.4313  H     
53   H        -9.2148  -21.3382   -0.4015  H     
54   H        -8.2630  -21.3669    1.7159  H     
55   H        -8.3159  -21.7182    4.0833  H     
56   H       -10.1878  -22.8662    5.1088  H     
57   H       -12.7957  -22.7220    0.4811  H     
58   H       -12.0051  -24.3101    0.4080  H     
59   H       -13.1658  -23.9527    1.6788  H     
60   H        -8.3307  -28.2060   -4.7693  H     
@<TRIPOS>BOND
     1    1    2 2
     2    7   16 1
     3    8    4 2
     4   16   17 1
     5    5    6 1
     6   16   18 2
     7   17   19 1
     8    7    8 1
     9    9    5 1
    10    4    1 1
    11    8    9 1
    12   10   11 2
    13   17   23 1
    14   19   20 1
    15   20   21 1
    16   21   22 1
    17   22   23 1
    18    6   24 1
    19   24   25 1
    20   11   12 1
    21    2    3 1
    22   25   26 2
    23   12   13 2
    24   26   27 1
    25    6    7 2
    26   27   28 2
    27   13   14 1
    28   28   29 1
    29    3    9 2
    30   29   30 2
    31   30   25 1
    32   14   15 2
    33   30   31 1
    34   15   10 1
    35    1   32 1
    36    5   10 1
    37   29   33 1
    38    2   34 1
    39    3   35 1
    40    4   36 1
    41   11   37 1
    42   12   38 1
    43   13   39 1
    44   14   40 1
    45   15   41 1
    46   19   42 1
    47   19   43 1
    48   20   44 1
    49   20   45 1
    50   21   46 1
    51   21   47 1
    52   22   48 1
    53   22   49 1
    54   23   50 1
    55   23   51 1
    56   24   52 1
    57   24   53 1
    58   26   54 1
    59   27   55 1
    60   28   56 1
    61   31   57 1
    62   31   58 1
    63   31   59 1
    64   32   60 1
@<TRIPOS>PROPERTY_DATA
  Total_Score	| 12.4220
  Crash		| -0.5701
  Polar		| 6.3773
  FragIndex	| 1
  FragRMSD	| 0.289

