@<TRIPOS>MOLECULE
BindingDB_50329027
 59 63 0 0 0
SMALL
NO_CHARGES


@<TRIPOS>ATOM
1    C        -8.5392  -26.8396   -3.5647  C     
2    C        -9.7407  -26.5306   -4.2380  C     
3    C       -10.5254  -25.4345   -3.8251  C     
4    C        -8.1113  -26.0528   -2.4756  C     
5    N       -10.6143  -23.5582   -2.1349  N     
6    C        -9.8058  -23.2014   -1.1141  C     
7    C        -8.7453  -24.0284   -1.0869  C     
8    C        -8.9045  -24.9596   -2.0727  C     
9    C       -10.0966  -24.6557   -2.7282  C     
10   C       -11.7190  -22.8931   -2.5967  C     
11   C       -11.5753  -21.7454   -3.4068  C     
12   C       -12.7122  -21.0643   -3.8762  C     
13   C       -13.9899  -21.5392   -3.5249  C     
14   N       -14.1068  -22.6540   -2.7579  N     
15   C       -13.0285  -23.3386   -2.2980  C     
16   C        -7.7286  -24.0272   -0.1872  C     
17   N        -7.7412  -24.7326    0.9620  N     
18   O        -6.8068  -23.2714   -0.4765  O     
19   C        -6.6019  -24.6625    1.8704  C     
20   C        -6.4071  -25.9646    2.6828  C     
21   N        -7.6261  -26.3719    3.4071  N     
22   C        -8.9242  -26.0174    2.7998  C     
23   C        -8.8664  -25.6009    1.3078  C     
24   C       -10.0231  -22.0891   -0.1807  C     
25   C       -10.0838  -22.4499    1.2763  C     
26   C        -9.0275  -22.0139    2.1151  C     
27   C        -9.0727  -22.2068    3.5047  C     
28   C       -10.1861  -22.8253    4.0895  C     
29   C       -11.2518  -23.2669    3.2856  C     
30   C       -11.2203  -23.0860    1.8746  C     
31   C       -12.3595  -23.5853    1.0486  C     
32   F       -12.2497  -23.8509    3.8994  F     
33   O       -15.0975  -20.8956   -3.9569  O     
34   H        -7.9737  -27.6341   -3.8716  H     
35   H       -10.0437  -27.1028   -5.0297  H     
36   H       -11.3941  -25.2127   -4.3165  H     
37   H        -7.2369  -26.2725   -1.9924  H     
38   H       -10.6422  -21.4027   -3.6586  H     
39   H       -12.6141  -20.2404   -4.4695  H     
40   H       -13.1794  -24.1669   -1.7218  H     
41   H        -6.7447  -23.8264    2.5624  H     
42   H        -5.6625  -24.4903    1.3342  H     
43   H        -5.5934  -25.8448    3.4018  H     
44   H        -6.1340  -26.7669    1.9935  H     
45   H        -7.6093  -25.9635    4.3467  H     
46   H        -7.6099  -27.3847    3.4818  H     
47   H        -9.3268  -25.1932    3.3823  H     
48   H        -9.6000  -26.8682    2.9138  H     
49   H        -9.8304  -25.1177    1.0849  H     
50   H        -8.7905  -26.5063    0.6987  H     
51   H        -9.2264  -21.3672   -0.3684  H     
52   H       -10.9436  -21.5593   -0.4184  H     
53   H        -8.2060  -21.5455    1.7225  H     
54   H        -8.2961  -21.8881    4.0901  H     
55   H       -10.2114  -22.9650    5.1015  H     
56   H       -12.8639  -22.7478    0.5757  H     
57   H       -11.9985  -24.2581    0.2767  H     
58   H       -13.1032  -24.1366    1.6246  H     
59   H       -15.5714  -20.6356   -3.1433  H     
@<TRIPOS>BOND
     1    1    2 2
     2    7   16 1
     3    8    4 2
     4   16   17 1
     5    5    6 1
     6   16   18 2
     7   17   19 1
     8    7    8 1
     9    9    5 1
    10    4    1 1
    11    8    9 1
    12   10   11 2
    13   17   23 1
    14   19   20 1
    15   20   21 1
    16   21   22 1
    17   22   23 1
    18    6   24 1
    19   24   25 1
    20   11   12 1
    21    2    3 1
    22   25   26 2
    23   12   13 2
    24   26   27 1
    25    6    7 2
    26   27   28 2
    27   13   14 1
    28   28   29 1
    29    3    9 2
    30   29   30 2
    31   30   25 1
    32   14   15 2
    33   30   31 1
    34   15   10 1
    35   29   32 1
    36    5   10 1
    37   13   33 1
    38    1   34 1
    39    2   35 1
    40    3   36 1
    41    4   37 1
    42   11   38 1
    43   12   39 1
    44   15   40 1
    45   19   41 1
    46   19   42 1
    47   20   43 1
    48   20   44 1
    49   21   45 1
    50   21   46 1
    51   22   47 1
    52   22   48 1
    53   23   49 1
    54   23   50 1
    55   24   51 1
    56   24   52 1
    57   26   53 1
    58   27   54 1
    59   28   55 1
    60   31   56 1
    61   31   57 1
    62   31   58 1
    63   33   59 1
@<TRIPOS>PROPERTY_DATA
  Total_Score	| 11.0591
  Crash		| -0.5679
  Polar		| 5.2690
  FragIndex	| 1
  FragRMSD	| 0.116

