@<TRIPOS>MOLECULE
BindingDB_50329010
 67 71 0 0 0
SMALL
NO_CHARGES


@<TRIPOS>ATOM
1    C        -9.1436  -26.2933   -3.9912  C     
2    C       -10.3518  -25.7765   -4.5106  C     
3    C       -10.9641  -24.6906   -3.8444  C     
4    C        -8.5578  -25.7412   -2.8267  C     
5    N       -10.7240  -23.0835   -1.9159  N     
6    C        -9.8198  -22.9753   -0.9209  C     
7    C        -8.8799  -23.9340   -1.0537  C     
8    C        -9.1903  -24.6608   -2.1740  C     
9    C       -10.3692  -24.1307   -2.6896  C     
10   C       -11.7686  -22.2340   -2.2211  C     
11   C       -13.0990  -22.7133   -2.2929  C     
12   C       -14.1690  -21.8512   -2.5995  C     
13   C       -13.9309  -20.4779   -2.7937  C     
14   C       -12.6164  -19.9747   -2.7052  C     
15   C       -11.5354  -20.8526   -2.4424  C     
16   C        -7.7534  -24.1373   -0.3070  C     
17   N        -7.5886  -25.0974    0.6267  N     
18   O        -6.8218  -23.3993   -0.6139  O     
19   C        -6.2948  -25.3470    1.2574  C     
20   C        -6.4063  -25.2949    2.8047  C     
21   N        -7.4850  -26.1870    3.2858  N     
22   C        -8.7882  -25.9875    2.6135  C     
23   C        -8.6536  -25.9924    1.0665  C     
24   C        -9.8890  -21.9918    0.1670  C     
25   C       -10.6085  -22.4906    1.3853  C     
26   C       -11.9758  -22.8520    1.2293  C     
27   C       -12.7583  -23.2905    2.3078  C     
28   C       -12.1882  -23.3732    3.5863  C     
29   C       -10.8453  -22.9957    3.7833  C     
30   C       -10.0399  -22.5400    2.6975  C     
31   O       -10.9420  -26.4109   -5.5833  O     
32   C       -11.5770  -25.6054   -6.5999  C     
33   C        -8.6515  -22.0622    2.9762  C     
34   C       -13.1217  -25.6992   -6.5845  C     
35   O       -13.5490  -26.9723   -7.0650  O     
36   F       -10.3976  -23.0866    5.0135  F     
37   H        -8.7009  -27.0951   -4.4490  H     
38   H       -11.8452  -24.3170   -4.1879  H     
39   H        -7.6861  -26.1345   -2.4622  H     
40   H       -13.2995  -23.6998   -2.1013  H     
41   H       -15.1202  -22.2247   -2.6588  H     
42   H       -14.7131  -19.8466   -2.9852  H     
43   H       -12.4535  -18.9722   -2.8179  H     
44   H       -10.5780  -20.4763   -2.3020  H     
45   H        -5.9473  -26.3441    0.9648  H     
46   H        -5.5118  -24.6453    0.9588  H     
47   H        -6.6021  -24.2710    3.1334  H     
48   H        -5.4675  -25.6167    3.2534  H     
49   H        -7.1926  -27.1496    3.1277  H     
50   H        -7.6208  -26.0454    4.2906  H     
51   H        -9.2178  -25.0416    2.9423  H     
52   H        -9.4645  -26.7843    2.9216  H     
53   H        -8.4184  -27.0117    0.7377  H     
54   H        -9.6328  -25.7403    0.6540  H     
55   H       -10.4414  -21.0869   -0.1785  H     
56   H        -8.8673  -21.6648    0.3732  H     
57   H       -12.4385  -22.7857    0.3244  H     
58   H       -13.7414  -23.5420    2.1635  H     
59   H       -12.7655  -23.6852    4.3756  H     
60   H       -11.2449  -26.0135   -7.5588  H     
61   H       -11.2652  -24.5528   -6.5692  H     
62   H        -8.3365  -22.1796    4.0179  H     
63   H        -7.9406  -22.6103    2.3609  H     
64   H        -8.5804  -21.0019    2.7346  H     
65   H       -13.5396  -24.9201   -7.2285  H     
66   H       -13.5189  -25.5349   -5.5821  H     
67   H       -14.5240  -26.9754   -6.9500  H     
@<TRIPOS>BOND
     1   16   17 1
     2    5    6 1
     3   16   18 2
     4   17   19 1
     5    7    8 1
     6    9    5 1
     7    4    1 1
     8    8    9 1
     9   10   11 2
    10   17   23 1
    11   19   20 1
    12   20   21 1
    13   21   22 1
    14   22   23 1
    15    6   24 1
    16   24   25 1
    17   11   12 1
    18    2    3 1
    19   25   26 2
    20   12   13 2
    21   26   27 1
    22    6    7 2
    23   27   28 2
    24   13   14 1
    25   28   29 1
    26    3    9 2
    27   29   30 2
    28   30   25 1
    29   14   15 2
    30    2   31 1
    31   15   10 1
    32   31   32 1
    33    5   10 1
    34   30   33 1
    35    1    2 2
    36   32   34 1
    37    7   16 1
    38   34   35 1
    39    8    4 2
    40   29   36 1
    41    1   37 1
    42    3   38 1
    43    4   39 1
    44   11   40 1
    45   12   41 1
    46   13   42 1
    47   14   43 1
    48   15   44 1
    49   19   45 1
    50   19   46 1
    51   20   47 1
    52   20   48 1
    53   21   49 1
    54   21   50 1
    55   22   51 1
    56   22   52 1
    57   23   53 1
    58   23   54 1
    59   24   55 1
    60   24   56 1
    61   26   57 1
    62   27   58 1
    63   28   59 1
    64   32   60 1
    65   32   61 1
    66   33   62 1
    67   33   63 1
    68   33   64 1
    69   34   65 1
    70   34   66 1
    71   35   67 1
@<TRIPOS>PROPERTY_DATA
  Total_Score	| 13.5846
  Crash		| -0.9561
  Polar		| 5.4917
  FragIndex	| 1
  FragRMSD	| 0.822

