@<TRIPOS>MOLECULE
BindingDB_50329009
 77 82 0 0 0
SMALL
NO_CHARGES


@<TRIPOS>ATOM
1    C        -9.0276  -26.5871   -3.8516  C     
2    C       -10.2469  -26.1095   -4.3919  C     
3    C       -10.8617  -24.9901   -3.7732  C     
4    C        -8.4277  -25.9631   -2.7364  C     
5    N       -10.6611  -23.3288   -1.9165  N     
6    C        -9.7385  -23.1336   -0.9441  C     
7    C        -8.7651  -24.0521   -1.0750  C     
8    C        -9.0689  -24.8512   -2.1472  C     
9    C       -10.2691  -24.3840   -2.6592  C     
10   C       -11.8010  -22.6095   -2.1782  C     
11   C       -11.7348  -21.2257   -2.4679  C     
12   C       -12.8941  -20.5005   -2.7808  C     
13   C       -14.1414  -21.1515   -2.8245  C     
14   C       -14.2255  -22.5293   -2.5556  C     
15   C       -13.0642  -23.2517   -2.2330  C     
16   C        -7.6615  -24.2073   -0.3029  C     
17   N        -7.5046  -25.1603    0.6411  N     
18   O        -6.7607  -23.4188   -0.5737  O     
19   C        -6.2628  -25.2954    1.3899  C     
20   C        -6.5393  -25.2641    2.9137  C     
21   N        -7.5714  -26.2566    3.2856  N     
22   C        -8.8201  -26.1437    2.4997  C     
23   C        -8.5295  -26.1440    0.9808  C     
24   C        -9.7815  -22.0706    0.0693  C     
25   C        -9.9516  -22.5071    1.4965  C     
26   C        -8.9289  -22.1676    2.4235  C     
27   C        -9.0721  -22.4029    3.7980  C     
28   C       -10.2452  -22.9910    4.2863  C     
29   C       -11.2757  -23.3451    3.3983  C     
30   C       -11.1440  -23.1190    1.9988  C     
31   O       -10.7877  -26.8126   -5.4514  O     
32   C       -11.6525  -26.1003   -6.3621  C     
33   C       -12.2581  -23.5246    1.0971  C     
34   C       -12.0990  -27.0149   -7.5109  C     
35   O       -13.0135  -26.3617   -8.4249  O     
36   C       -12.4385  -25.4287   -9.2548  C     
37   F       -12.3409  -23.8886    3.9303  F     
38   C       -12.8388  -24.0775   -9.1768  C     
39   C       -12.2560  -23.1126  -10.0232  C     
40   C       -11.2931  -23.5016  -10.9733  C     
41   C       -10.9039  -24.8508  -11.0658  C     
42   C       -11.4701  -25.8087  -10.2085  C     
43   H        -8.5722  -27.3993   -4.2735  H     
44   H       -11.7447  -24.6180   -4.1198  H     
45   H        -7.5492  -26.3186   -2.3581  H     
46   H       -10.8275  -20.7457   -2.4577  H     
47   H       -12.8343  -19.4982   -2.9870  H     
48   H       -14.9852  -20.6261   -3.0664  H     
49   H       -15.1296  -23.0044   -2.6032  H     
50   H       -13.1379  -24.2542   -2.0392  H     
51   H        -5.5242  -24.5200    1.1697  H     
52   H        -5.7987  -26.2518    1.1304  H     
53   H        -5.6222  -25.4956    3.4611  H     
54   H        -6.8670  -24.2664    3.2095  H     
55   H        -7.8134  -26.1481    4.2739  H     
56   H        -7.1915  -27.1945    3.1428  H     
57   H        -9.3324  -25.2274    2.7779  H     
58   H        -9.4735  -26.9828    2.7458  H     
59   H        -9.4838  -25.9895    0.4712  H     
60   H        -8.1695  -27.1360    0.6887  H     
61   H        -8.8597  -21.4870   -0.0654  H     
62   H       -10.5822  -21.3708   -0.1273  H     
63   H        -8.0649  -21.7187    2.1057  H     
64   H        -8.3301  -22.1405    4.4508  H     
65   H       -10.3439  -23.1659    5.2873  H     
66   H       -12.5558  -25.7710   -5.8542  H     
67   H       -11.1218  -25.2358   -6.7742  H     
68   H       -13.1232  -23.9285    1.6230  H     
69   H       -11.9174  -24.3057    0.4192  H     
70   H       -12.6054  -22.6600    0.5287  H     
71   H       -11.2262  -27.4099   -8.0340  H     
72   H       -12.6338  -27.8664   -7.0746  H     
73   H       -13.5391  -23.7913   -8.4914  H     
74   H       -12.5368  -22.1325   -9.9494  H     
75   H       -10.8765  -22.8043  -11.5933  H     
76   H       -10.2072  -25.1360  -11.7593  H     
77   H       -11.1755  -26.7865  -10.2689  H     
@<TRIPOS>BOND
     1    4    1 1
     2    8    9 1
     3   10   11 2
     4   17   23 1
     5   19   20 1
     6   20   21 1
     7   21   22 1
     8   22   23 1
     9    6   24 1
    10   24   25 1
    11   11   12 1
    12    2    3 1
    13   25   26 2
    14   12   13 2
    15   26   27 1
    16    6    7 2
    17   27   28 2
    18   13   14 1
    19   28   29 1
    20    3    9 2
    21   29   30 2
    22   30   25 1
    23   14   15 2
    24    2   31 1
    25   15   10 1
    26   31   32 1
    27    5   10 1
    28   30   33 1
    29    1    2 2
    30   32   34 1
    31    7   16 1
    32   34   35 1
    33    8    4 2
    34   35   36 1
    35   16   17 1
    36   29   37 1
    37    5    6 1
    38   36   38 2
    39   16   18 2
    40   38   39 1
    41   17   19 1
    42   39   40 2
    43    7    8 1
    44   40   41 1
    45    9    5 1
    46   41   42 2
    47   42   36 1
    48    1   43 1
    49    3   44 1
    50    4   45 1
    51   11   46 1
    52   12   47 1
    53   13   48 1
    54   14   49 1
    55   15   50 1
    56   19   51 1
    57   19   52 1
    58   20   53 1
    59   20   54 1
    60   21   55 1
    61   21   56 1
    62   22   57 1
    63   22   58 1
    64   23   59 1
    65   23   60 1
    66   24   61 1
    67   24   62 1
    68   26   63 1
    69   27   64 1
    70   28   65 1
    71   32   66 1
    72   32   67 1
    73   33   68 1
    74   33   69 1
    75   33   70 1
    76   34   71 1
    77   34   72 1
    78   38   73 1
    79   39   74 1
    80   40   75 1
    81   41   76 1
    82   42   77 1
@<TRIPOS>PROPERTY_DATA
  Total_Score	| 14.7452
  Crash		| -0.8545
  Polar		| 5.7576
  FragIndex	| 1
  FragRMSD	| 0.251

