@<TRIPOS>MOLECULE
BindingDB_50329048
 56 60 0 0 0
SMALL
NO_CHARGES


@<TRIPOS>ATOM
1    C        -8.8528  -26.5919   -3.8293  C     
2    C       -10.0757  -26.1759   -4.3960  C     
3    C       -10.7934  -25.1022   -3.8219  C     
4    C        -8.3419  -25.9502   -2.6806  C     
5    N       -10.7130  -23.4061   -1.9550  N     
6    C        -9.8284  -23.1725   -0.9580  C     
7    C        -8.8181  -24.0709   -1.0459  C     
8    C        -9.0710  -24.8794   -2.1169  C     
9    C       -10.2797  -24.4638   -2.6759  C     
10   C       -11.8395  -22.6810   -2.2837  C     
11   C       -11.7486  -21.2879   -2.5240  C     
12   C       -12.9073  -20.5346   -2.8226  C     
13   C       -14.1595  -21.1644   -2.9049  C     
14   C       -14.2545  -22.5524   -2.7047  C     
15   C       -13.1004  -23.3107   -2.4009  C     
16   C        -7.7097  -24.1798   -0.2635  C     
17   N        -7.5267  -25.1333    0.6769  N     
18   O        -6.8156  -23.3952   -0.5555  O     
19   C        -6.2682  -25.2694    1.4032  C     
20   C        -6.5016  -25.2892    2.9385  C     
21   N        -7.5281  -26.2924    3.3003  N     
22   C        -8.7890  -26.1513    2.5496  C     
23   C        -8.5334  -26.1283    1.0220  C     
24   C        -9.8861  -22.0830    0.0256  C     
25   C       -10.0197  -22.4908    1.4620  C     
26   C       -11.2257  -23.0647    1.9701  C     
27   C       -11.3615  -23.3491    3.3463  C     
28   C       -10.3166  -23.0769    4.2406  C     
29   C        -9.1257  -22.5140    3.7639  C     
30   C        -8.9792  -22.2229    2.3898  C     
31   F        -7.8401  -21.6922    2.0238  F     
32   Cl      -12.5784  -23.4092    1.0100  Cl    
33   H        -8.3324  -27.3638   -4.2512  H     
34   H       -10.4335  -26.6396   -5.2303  H     
35   H       -11.6687  -24.7940   -4.2457  H     
36   H        -7.4550  -26.2515   -2.2745  H     
37   H       -10.8436  -20.8182   -2.4801  H     
38   H       -12.8268  -19.5320   -2.9828  H     
39   H       -14.9957  -20.6184   -3.1206  H     
40   H       -15.1620  -23.0143   -2.7787  H     
41   H       -13.1962  -24.3159   -2.2397  H     
42   H        -5.7994  -26.2155    1.1140  H     
43   H        -5.5406  -24.4799    1.1858  H     
44   H        -6.8202  -24.3009    3.2767  H     
45   H        -5.5733  -25.5402    3.4555  H     
46   H        -7.1508  -27.2232    3.1164  H     
47   H        -7.7557  -26.2175    4.2946  H     
48   H        -9.4524  -26.9821    2.7949  H     
49   H        -9.2847  -25.2300    2.8513  H     
50   H        -9.5040  -25.9690    0.5418  H     
51   H        -8.1780  -27.1152    0.7081  H     
52   H       -10.7331  -21.4267   -0.1667  H     
53   H        -8.9990  -21.4683   -0.1488  H     
54   H       -12.2282  -23.7605    3.7100  H     
55   H       -10.4270  -23.2904    5.2364  H     
56   H        -8.3669  -22.3146    4.4186  H     
@<TRIPOS>BOND
     1    5   10 1
     2    1    2 2
     3    7   16 1
     4    8    4 2
     5   16   17 1
     6    5    6 1
     7   16   18 2
     8   17   19 1
     9    7    8 1
    10    9    5 1
    11    4    1 1
    12    8    9 1
    13   10   11 2
    14   17   23 1
    15   19   20 1
    16   20   21 1
    17   21   22 1
    18   22   23 1
    19    6   24 1
    20   24   25 1
    21   11   12 1
    22    2    3 1
    23   25   26 2
    24   12   13 2
    25   26   27 1
    26    6    7 2
    27   27   28 2
    28   13   14 1
    29   28   29 1
    30    3    9 2
    31   29   30 2
    32   30   25 1
    33   14   15 2
    34   30   31 1
    35   15   10 1
    36   26   32 1
    37    1   33 1
    38    2   34 1
    39    3   35 1
    40    4   36 1
    41   11   37 1
    42   12   38 1
    43   13   39 1
    44   14   40 1
    45   15   41 1
    46   19   42 1
    47   19   43 1
    48   20   44 1
    49   20   45 1
    50   21   46 1
    51   21   47 1
    52   22   48 1
    53   22   49 1
    54   23   50 1
    55   23   51 1
    56   24   52 1
    57   24   53 1
    58   27   54 1
    59   28   55 1
    60   29   56 1
@<TRIPOS>PROPERTY_DATA
  Total_Score	| 12.0469
  Crash		| -0.3755
  Polar		| 5.6222
  FragIndex	| 1
  FragRMSD	| 0.217

