@<TRIPOS>MOLECULE
BindingDB_50329047
 59 63 0 0 0
SMALL
NO_CHARGES


@<TRIPOS>ATOM
1    C        -9.0324  -26.6138   -3.5436  C     
2    C       -10.1832  -26.1553   -4.2183  C     
3    C       -10.8638  -25.0079   -3.7618  C     
4    C        -8.5458  -25.9189   -2.4180  C     
5    N       -10.8064  -23.2058   -1.9850  N     
6    C        -9.9513  -22.9539   -0.9662  C     
7    C        -8.9899  -23.8955   -0.9560  C     
8    C        -9.2309  -24.7669   -1.9785  C     
9    C       -10.3786  -24.3185   -2.6273  C     
10   C       -11.9269  -22.4971   -2.3530  C     
11   C       -11.8511  -21.1241   -2.6880  C     
12   C       -13.0135  -20.4015   -3.0221  C     
13   C       -14.2613  -21.0480   -3.0625  C     
14   C       -14.3489  -22.4181   -2.7593  C     
15   C       -13.1903  -23.1350   -2.4044  C     
16   C        -7.9074  -23.9612   -0.1370  C     
17   N        -7.8715  -24.5636    1.0683  N     
18   O        -6.9075  -23.4429   -0.6283  O     
19   C        -6.5387  -24.7807    1.6601  C     
20   C        -6.5913  -25.3523    3.1023  C     
21   N        -7.5402  -26.4808    3.2627  N     
22   C        -8.6445  -26.5957    2.2784  C     
23   C        -9.0237  -25.2304    1.6723  C     
24   C        -9.9857  -21.8312   -0.0216  C     
25   C       -10.0937  -22.2344    1.4171  C     
26   C        -8.9528  -22.0382    2.2480  C     
27   C        -9.0614  -22.3101    3.6292  C     
28   C       -10.2247  -22.8585    4.1758  C     
29   C       -11.3091  -23.1658    3.3480  C     
30   C       -11.2745  -22.8404    1.9669  C     
31   C       -12.4584  -23.2383    1.1545  C     
32   F       -12.3349  -23.7642    3.9020  F     
33   H        -8.5464  -27.4503   -3.8752  H     
34   H       -10.5266  -26.6601   -5.0391  H     
35   H       -11.6945  -24.6805   -4.2584  H     
36   H        -7.7085  -26.2478   -1.9331  H     
37   H       -10.9492  -20.6396   -2.6739  H     
38   H       -12.9529  -19.4034   -3.2311  H     
39   H       -15.1058  -20.5213   -3.3023  H     
40   H       -15.2556  -22.8884   -2.7849  H     
41   H       -13.2761  -24.1243   -2.1520  H     
42   H        -6.0160  -25.5150    1.0380  H     
43   H        -5.9010  -23.8740    1.6764  H     
44   H        -5.5945  -25.6826    3.4047  H     
45   H        -6.8969  -24.5559    3.7853  H     
46   H        -7.9544  -26.4074    4.1948  H     
47   H        -7.0259  -27.3572    3.2197  H     
48   H        -8.3271  -27.2566    1.4707  H     
49   H        -9.5163  -27.0446    2.7638  H     
50   H        -9.4018  -24.6218    2.4883  H     
51   H        -9.8513  -25.3931    0.9801  H     
52   H       -10.7963  -21.1380   -0.2330  H     
53   H        -9.0759  -21.2495   -0.1872  H     
54   H        -7.9949  -21.8653    1.8226  H     
55   H        -8.2675  -22.2044    4.2510  H     
56   H       -10.2508  -23.0986    5.1694  H     
57   H       -12.4153  -24.3058    0.9460  H     
58   H       -12.5317  -22.6982    0.2205  H     
59   H       -13.3820  -23.0376    1.6952  H     
@<TRIPOS>BOND
     1    5   10 1
     2    1    2 2
     3    7   16 1
     4    8    4 2
     5   16   17 1
     6    5    6 1
     7   16   18 2
     8   17   19 1
     9    7    8 1
    10    9    5 1
    11    4    1 1
    12    8    9 1
    13   10   11 2
    14   17   23 1
    15   19   20 1
    16   20   21 1
    17   21   22 1
    18   22   23 1
    19    6   24 1
    20   24   25 1
    21   11   12 1
    22    2    3 1
    23   25   26 2
    24   12   13 2
    25   26   27 1
    26    6    7 2
    27   27   28 2
    28   13   14 1
    29   28   29 1
    30    3    9 2
    31   29   30 2
    32   30   25 1
    33   14   15 2
    34   30   31 1
    35   15   10 1
    36   29   32 1
    37    1   33 1
    38    2   34 1
    39    3   35 1
    40    4   36 1
    41   11   37 1
    42   12   38 1
    43   13   39 1
    44   14   40 1
    45   15   41 1
    46   19   42 1
    47   19   43 1
    48   20   44 1
    49   20   45 1
    50   21   46 1
    51   21   47 1
    52   22   48 1
    53   22   49 1
    54   23   50 1
    55   23   51 1
    56   24   52 1
    57   24   53 1
    58   26   54 1
    59   27   55 1
    60   28   56 1
    61   31   57 1
    62   31   58 1
    63   31   59 1
@<TRIPOS>PROPERTY_DATA
  Total_Score	| 11.6958
  Crash		| -0.8056
  Polar		| 5.3759
  FragIndex	| 1
  FragRMSD	| 0.425

