@<TRIPOS>MOLECULE
BindingDB_50329018
 63 67 0 0 0
SMALL
NO_CHARGES


@<TRIPOS>ATOM
1    C       -10.1743  -26.5711   -4.1137  C     
2    C       -10.7939  -25.3919   -3.6671  C     
3    C       -10.1832  -24.6268   -2.6529  C     
4    C        -8.9606  -25.0357   -2.1030  C     
5    C        -8.2712  -26.1719   -2.6056  C     
6    C        -8.9224  -26.9572   -3.5907  C     
7    N       -10.5821  -23.4675   -2.0696  N     
8    C        -9.6847  -23.1426   -1.0964  C     
9    C        -8.6656  -24.1124   -1.0950  C     
10   C        -6.8726  -26.4808   -2.2040  C     
11   O        -8.3714  -28.1066   -4.0487  O     
12   C        -7.6089  -24.1775   -0.2098  C     
13   N        -7.4900  -25.0898    0.7852  N     
14   C        -6.2900  -25.1596    1.6061  C     
15   C        -6.6349  -25.2294    3.1144  C     
16   N        -7.6007  -26.3111    3.3708  N     
17   C        -8.8329  -26.2071    2.5665  C     
18   C        -8.4952  -26.1130    1.0613  C     
19   O        -6.7169  -23.3782   -0.4617  O     
20   C       -11.7242  -22.7777   -2.3994  C     
21   C       -12.9966  -23.3934   -2.2930  C     
22   C       -14.1720  -22.6759   -2.5864  C     
23   C       -14.0960  -21.3308   -2.9892  C     
24   C       -12.8389  -20.7094   -3.1144  C     
25   C       -11.6622  -21.4325   -2.8314  C     
26   C        -9.7655  -22.0039   -0.1307  C     
27   C       -10.4171  -22.3671    1.1691  C     
28   C        -9.7705  -22.3378    2.4451  C     
29   C       -10.5114  -22.7135    3.6043  C     
30   C       -11.8656  -23.0870    3.5096  C     
31   C       -12.5104  -23.0679    2.2671  C     
32   C       -11.7919  -22.7173    1.1189  C     
33   C        -8.3555  -21.8909    2.5863  C     
34   F        -9.9787  -22.7526    4.7978  F     
35   H       -10.6225  -27.1388   -4.8381  H     
36   H       -11.6854  -25.1075   -4.0760  H     
37   H        -6.2569  -25.5864   -2.3060  H     
38   H        -6.4116  -27.2517   -2.8204  H     
39   H        -6.8380  -26.8258   -1.1751  H     
40   H        -8.0799  -27.8997   -4.9577  H     
41   H        -5.7360  -26.0589    1.3272  H     
42   H        -5.6037  -24.3237    1.4603  H     
43   H        -5.7297  -25.4300    3.6894  H     
44   H        -7.0605  -24.2929    3.4525  H     
45   H        -7.1511  -27.2103    3.1714  H     
46   H        -7.8599  -26.2947    4.3541  H     
47   H        -9.4442  -27.0897    2.7473  H     
48   H        -9.3943  -25.3314    2.8694  H     
49   H        -9.4357  -25.9638    0.5213  H     
50   H        -8.1054  -27.0870    0.7435  H     
51   H       -13.0726  -24.3642   -1.9768  H     
52   H       -15.0856  -23.1277   -2.4921  H     
53   H       -14.9502  -20.8065   -3.1940  H     
54   H       -12.7871  -19.7302   -3.4011  H     
55   H       -10.7528  -20.9677   -2.9298  H     
56   H        -8.7600  -21.6112    0.0060  H     
57   H       -10.3350  -21.1807   -0.5616  H     
58   H       -12.3905  -23.3586    4.3444  H     
59   H       -13.5055  -23.2980    2.2029  H     
60   H       -12.2985  -22.6903    0.2340  H     
61   H        -7.7020  -22.4908    1.9586  H     
62   H        -7.9764  -21.9692    3.6093  H     
63   H        -8.2742  -20.8436    2.2801  H     
@<TRIPOS>BOND
     1    1    2 2
     2    1    6 1
     3    2    3 1
     4    3    4 2
     5    3    7 1
     6    4    5 1
     7    4    9 1
     8    5    6 2
     9    5   10 1
    10    6   11 1
    11    7    8 1
    12    7   20 1
    13    8    9 2
    14    8   26 1
    15    9   12 1
    16   12   13 am
    17   12   19 2
    18   13   14 1
    19   13   18 1
    20   14   15 1
    21   15   16 1
    22   16   17 1
    23   17   18 1
    24   20   21 2
    25   20   25 1
    26   21   22 1
    27   22   23 2
    28   23   24 1
    29   24   25 2
    30   26   27 1
    31   27   28 2
    32   27   32 1
    33   28   29 1
    34   28   33 1
    35   29   30 2
    36   29   34 1
    37   30   31 1
    38   31   32 2
    39    1   35 1
    40    2   36 1
    41   10   37 1
    42   10   38 1
    43   10   39 1
    44   11   40 1
    45   14   41 1
    46   14   42 1
    47   15   43 1
    48   15   44 1
    49   16   45 1
    50   16   46 1
    51   17   47 1
    52   17   48 1
    53   18   49 1
    54   18   50 1
    55   21   51 1
    56   22   52 1
    57   23   53 1
    58   24   54 1
    59   25   55 1
    60   26   56 1
    61   26   57 1
    62   30   58 1
    63   31   59 1
    64   32   60 1
    65   33   61 1
    66   33   62 1
    67   33   63 1
@<TRIPOS>PROPERTY_DATA
  Total_Score	| 13.5459
  Crash		| -0.8065
  Polar		| 6.5089
  FragIndex	| 1
  FragRMSD	| 1.368

