@<TRIPOS>MOLECULE
BindingDB_50352905
 59 63 0 0 0
SMALL
NO_CHARGES


@<TRIPOS>ATOM
1    N        -9.1109  -26.7130   -3.5921  N     
2    C       -10.2383  -26.2549   -4.2062  C     
3    C       -10.8427  -25.0577   -3.7663  C     
4    C        -8.5166  -26.0635   -2.5576  C     
5    C        -9.0945  -24.8668   -2.0844  C     
6    C       -10.2505  -24.3725   -2.6843  C     
7    N       -10.5874  -23.2342   -2.0364  N     
8    C        -9.6835  -23.0261   -1.0528  C     
9    C        -8.7649  -24.0133   -1.0712  C     
10   C        -7.6778  -24.1799   -0.2721  C     
11   N        -7.5390  -25.1462    0.6622  N     
12   O        -6.7483  -23.4304   -0.5599  O     
13   C        -8.5890  -26.1005    0.9948  C     
14   C        -8.8441  -26.1400    2.5279  C     
15   N        -7.5843  -26.2739    3.2956  N     
16   C        -6.5580  -25.2754    2.9194  C     
17   C        -6.2925  -25.3388    1.3949  C     
18   C       -11.7091  -22.5028   -2.3309  C     
19   C       -11.6217  -21.1459   -2.7234  C     
20   C       -12.7876  -20.4144   -3.0177  C     
21   C       -14.0519  -21.0225   -2.9328  C     
22   C       -14.1499  -22.3758   -2.5648  C     
23   C       -12.9863  -23.1070   -2.2664  C     
24   C        -9.7360  -21.9398   -0.0612  C     
25   C       -10.3156  -22.3482    1.2623  C     
26   C       -11.6548  -22.8315    1.2653  C     
27   C       -12.2958  -23.2169    2.4516  C     
28   C       -11.6154  -23.1234    3.6727  C     
29   C       -10.2950  -22.6318    3.7078  C     
30   C        -9.6301  -22.2353    2.5139  C     
31   O       -10.7473  -26.9647   -5.2468  O     
32   C        -8.2429  -21.6888    2.5897  C     
33   F        -9.7287  -22.5597    4.8812  F     
34   H       -11.6804  -24.6945   -4.2225  H     
35   H        -7.6736  -26.4442   -2.1311  H     
36   H        -9.5484  -25.8920    0.5132  H     
37   H        -8.2768  -27.0989    0.6709  H     
38   H        -9.3551  -25.2221    2.8393  H     
39   H        -9.4940  -26.9879    2.7718  H     
40   H        -7.8054  -26.1767    4.2889  H     
41   H        -7.2033  -27.2088    3.1321  H     
42   H        -6.8977  -24.2649    3.1972  H     
43   H        -5.6352  -25.5025    3.4625  H     
44   H        -5.8858  -26.3191    1.1407  H     
45   H        -5.5178  -24.6089    1.1561  H     
46   H       -10.7066  -20.6964   -2.7987  H     
47   H       -12.7232  -19.4281   -3.2900  H     
48   H       -14.8992  -20.4888   -3.1423  H     
49   H       -15.0661  -22.8253   -2.5078  H     
50   H       -13.0739  -24.0907   -1.9902  H     
51   H        -8.7268  -21.5431    0.0373  H     
52   H       -10.3483  -21.1073   -0.4280  H     
53   H       -12.1900  -22.8831    0.3922  H     
54   H       -13.2626  -23.5572    2.4250  H     
55   H       -12.0853  -23.4162    4.5305  H     
56   H       -11.2563  -26.3213   -5.7885  H     
57   H        -7.5653  -22.3186    2.0121  H     
58   H        -7.8571  -21.6494    3.6048  H     
59   H        -8.2232  -20.6654    2.2006  H     
@<TRIPOS>BOND
     1    1    2 2
     2    1    4 1
     3    2    3 1
     4    2   31 1
     5    3    6 2
     6    4    5 2
     7    5    6 1
     8    5    9 1
     9    6    7 1
    10    7    8 1
    11    7   18 1
    12    8    9 2
    13    8   24 1
    14    9   10 1
    15   10   11 am
    16   10   12 2
    17   11   13 1
    18   11   17 1
    19   13   14 1
    20   14   15 1
    21   15   16 1
    22   16   17 1
    23   18   19 2
    24   18   23 1
    25   19   20 1
    26   20   21 2
    27   21   22 1
    28   22   23 2
    29   24   25 1
    30   25   26 2
    31   25   30 1
    32   26   27 1
    33   27   28 2
    34   28   29 1
    35   29   30 2
    36   29   33 1
    37   30   32 1
    38    3   34 1
    39    4   35 1
    40   13   36 1
    41   13   37 1
    42   14   38 1
    43   14   39 1
    44   15   40 1
    45   15   41 1
    46   16   42 1
    47   16   43 1
    48   17   44 1
    49   17   45 1
    50   19   46 1
    51   20   47 1
    52   21   48 1
    53   22   49 1
    54   23   50 1
    55   24   51 1
    56   24   52 1
    57   26   53 1
    58   27   54 1
    59   28   55 1
    60   31   56 1
    61   32   57 1
    62   32   58 1
    63   32   59 1
@<TRIPOS>PROPERTY_DATA
  Total_Score	| 11.8719
  Crash		| -0.7980
  Polar		| 5.7197
  FragIndex	| 1
  FragRMSD	| 0.502

