@<TRIPOS>MOLECULE
BindingDB_35019
 42 45 0 0 0
SMALL
NO_CHARGES


@<TRIPOS>ATOM
1    C       -22.5026  -32.4998    1.3826  C     
2    C       -22.8740  -33.8149    1.2388  C     
3    N       -22.4727  -33.6443   -1.0613  N     
4    C       -22.1275  -32.3352   -0.9347  C     
5    N       -22.1339  -31.7872    0.3136  N     
6    O       -22.5092  -31.9430    2.4704  O     
7    C       -21.7449  -31.5530   -2.1190  C     
8    S       -23.4461  -34.8616    2.4650  S     
9    C       -23.6221  -36.0878    1.2513  C     
10   C       -22.8409  -34.3590    0.0094  C     
11   C       -24.0969  -37.3972    1.4457  C     
12   C       -24.2365  -38.2554    0.3350  C     
13   C       -23.9032  -37.8236   -0.9785  C     
14   C       -23.3986  -36.5051   -1.1389  C     
15   C       -23.2692  -35.6524   -0.0250  C     
16   N       -22.6733  -30.4301   -2.4841  N     
17   C       -22.3314  -29.8647   -3.8194  C     
18   C       -24.1224  -30.7626   -2.3701  C     
19   C       -24.0655  -38.6806   -2.1119  C     
20   C       -24.5840  -38.1851   -3.3362  C     
21   C       -24.7095  -39.0166   -4.4643  C     
22   C       -24.3435  -40.3710   -4.3845  C     
23   C       -23.8518  -40.8941   -3.1756  C     
24   C       -23.6972  -40.0515   -2.0556  C     
25   Cl      -23.4471  -42.5334   -3.0730  Cl    
26   H       -21.8778  -30.8503    0.4176  H     
27   H       -20.7559  -31.1408   -1.9158  H     
28   H       -21.6469  -32.2448   -2.9638  H     
29   H       -24.3568  -37.7186    2.3806  H     
30   H       -24.6010  -39.1996    0.4978  H     
31   H       -23.1223  -36.1638   -2.0629  H     
32   H       -22.5117  -29.6788   -1.8065  H     
33   H       -21.2840  -29.5582   -3.8515  H     
34   H       -22.9350  -28.9802   -4.0303  H     
35   H       -22.5014  -30.5987   -4.6155  H     
36   H       -24.3740  -31.6487   -2.9576  H     
37   H       -24.7466  -29.9300   -2.7104  H     
38   H       -24.3761  -30.9421   -1.3263  H     
39   H       -24.8833  -37.2107   -3.4219  H     
40   H       -25.0806  -38.6393   -5.3410  H     
41   H       -24.4525  -40.9715   -5.2029  H     
42   H       -23.3015  -40.4431   -1.1951  H     
@<TRIPOS>BOND
     1    1    2 1
     2    1    5 1
     3    1    6 2
     4    2    8 1
     5    2   10 2
     6    3    4 2
     7    3   10 1
     8    4    5 1
     9    4    7 1
    10    7   16 1
    11    8    9 1
    12    9   11 2
    13    9   15 1
    14   10   15 1
    15   11   12 1
    16   12   13 2
    17   13   14 1
    18   13   19 1
    19   14   15 2
    20   16   17 1
    21   16   18 1
    22   19   20 2
    23   19   24 1
    24   20   21 1
    25   21   22 2
    26   22   23 1
    27   23   24 2
    28   23   25 1
    29    5   26 1
    30    7   27 1
    31    7   28 1
    32   11   29 1
    33   12   30 1
    34   14   31 1
    35   16   32 1
    36   17   33 1
    37   17   34 1
    38   17   35 1
    39   18   36 1
    40   18   37 1
    41   18   38 1
    42   20   39 1
    43   21   40 1
    44   22   41 1
    45   24   42 1
@<TRIPOS>PROPERTY_DATA
  Total_Score	| 7.2954
  Crash		| -1.3779
  Polar		| 3.4167
  FragIndex	| 1
  FragRMSD	| 0.574

