@<TRIPOS>MOLECULE
BindingDB_35026
 44 47 0 0 0
SMALL
NO_CHARGES


@<TRIPOS>ATOM
1    C       -22.5529  -32.5449    1.4075  C     
2    C       -22.9354  -33.8560    1.2849  C     
3    N       -22.5084  -33.7246   -1.0100  N     
4    C       -22.1457  -32.4180   -0.9007  C     
5    N       -22.2006  -31.8362    0.3363  N     
6    O       -22.5329  -31.9894    2.4937  O     
7    C       -21.7168  -31.6645   -2.0942  C     
8    S       -23.4833  -34.8844    2.5448  S     
9    C       -23.6534  -36.1272    1.3516  C     
10   C       -22.8929  -34.4212    0.0658  C     
11   C       -24.0902  -37.4455    1.5734  C     
12   C       -24.2019  -38.3398    0.4832  C     
13   C       -23.8867  -37.9206   -0.8382  C     
14   C       -23.4281  -36.5908   -1.0280  C     
15   C       -23.3202  -35.7142    0.0657  C     
16   N       -22.6084  -30.5231   -2.5114  N     
17   C       -22.2604  -30.0526   -3.9080  C     
18   C       -24.0715  -30.7738   -2.3832  C     
19   C       -24.0463  -38.7869   -1.9621  C     
20   C       -23.5924  -40.1283   -1.9324  C     
21   C       -23.7355  -40.9589   -3.0578  C     
22   C       -24.3269  -40.4730   -4.2417  C     
23   C       -24.7922  -39.1442   -4.2759  C     
24   C       -24.6507  -38.3145   -3.1533  C     
25   N       -24.4680  -41.2572   -5.3201  N     
26   H       -21.9751  -30.8945    0.4277  H     
27   H       -20.7340  -31.2330   -1.8577  H     
28   H       -21.5679  -32.3708   -2.9317  H     
29   H       -24.3334  -37.7637    2.5126  H     
30   H       -24.5456  -39.2827    0.6636  H     
31   H       -23.1641  -36.2514   -1.9551  H     
32   H       -22.3913  -29.7290   -1.8945  H     
33   H       -21.2022  -29.8046   -3.9857  H     
34   H       -22.8286  -29.1564   -4.1722  H     
35   H       -22.4833  -30.8324   -4.6485  H     
36   H       -24.3670  -31.7215   -2.8409  H     
37   H       -24.6713  -29.9874   -2.8427  H     
38   H       -24.3428  -30.8100   -1.3291  H     
39   H       -23.1328  -40.4979   -1.1056  H     
40   H       -23.3883  -41.9143   -3.0093  H     
41   H       -25.2293  -38.7632   -5.1196  H     
42   H       -25.0203  -37.3590   -3.2065  H     
43   H       -24.8685  -40.8991   -6.1336  H     
44   H       -24.1565  -42.1760   -5.2990  H     
@<TRIPOS>BOND
     1    1    2 1
     2    1    5 1
     3    1    6 2
     4    2    8 1
     5    2   10 2
     6    3    4 2
     7    3   10 1
     8    4    5 1
     9    4    7 1
    10    7   16 1
    11    8    9 1
    12    9   11 2
    13    9   15 1
    14   10   15 1
    15   11   12 1
    16   12   13 2
    17   13   14 1
    18   13   19 1
    19   14   15 2
    20   16   17 1
    21   16   18 1
    22   19   20 2
    23   19   24 1
    24   20   21 1
    25   21   22 2
    26   22   23 1
    27   22   25 1
    28   23   24 2
    29    5   26 1
    30    7   27 1
    31    7   28 1
    32   11   29 1
    33   12   30 1
    34   14   31 1
    35   16   32 1
    36   17   33 1
    37   17   34 1
    38   17   35 1
    39   18   36 1
    40   18   37 1
    41   18   38 1
    42   20   39 1
    43   21   40 1
    44   23   41 1
    45   24   42 1
    46   25   43 1
    47   25   44 1
@<TRIPOS>PROPERTY_DATA
  Total_Score	| 7.4137
  Crash		| -1.2021
  Polar		| 3.2593
  FragIndex	| 1
  FragRMSD	| 0.606

