@<TRIPOS>MOLECULE
BindingDB_35024
 43 46 0 0 0
SMALL
NO_CHARGES


@<TRIPOS>ATOM
1    C       -22.4869  -32.5173    1.3737  C     
2    C       -22.8331  -33.8362    1.2205  C     
3    N       -22.4877  -33.6285   -1.0810  N     
4    C       -22.1610  -32.3142   -0.9523  C     
5    N       -22.1772  -31.7761    0.3047  N     
6    O       -22.4686  -31.9882    2.4752  O     
7    C       -21.8197  -31.5392   -2.1674  C     
8    S       -23.3535  -34.9194    2.4449  S     
9    C       -23.5865  -36.1102    1.2015  C     
10   C       -22.8129  -34.3611   -0.0162  C     
11   C       -24.0830  -37.4155    1.3639  C     
12   C       -24.2599  -38.2383    0.2321  C     
13   C       -23.9471  -37.7720   -1.0767  C     
14   C       -23.4267  -36.4573   -1.2086  C     
15   C       -23.2573  -35.6429   -0.0711  C     
16   N       -22.7443  -30.4015   -2.4932  N     
17   C       -22.3796  -29.7725   -3.8000  C     
18   C       -24.1915  -30.7667   -2.4444  C     
19   C       -24.1620  -38.5926   -2.2299  C     
20   C       -23.7752  -39.9551   -2.2379  C     
21   C       -23.9655  -40.7589   -3.3780  C     
22   C       -24.5452  -40.2186   -4.5454  C     
23   C       -24.9459  -38.8664   -4.5510  C     
24   C       -24.7600  -38.0666   -3.4063  C     
25   C       -24.7079  -40.9659   -5.6001  C     
26   N       -24.8469  -41.6275   -6.5280  N     
27   H       -21.9592  -30.8367    0.4191  H     
28   H       -20.8053  -31.1489   -2.0210  H     
29   H       -21.7876  -32.2299   -3.0211  H     
30   H       -24.3405  -37.7548    2.2929  H     
31   H       -24.6412  -39.1776    0.3678  H     
32   H       -23.1729  -36.0894   -2.1335  H     
33   H       -22.5979  -29.6835   -1.7774  H     
34   H       -21.3239  -29.4996   -3.8165  H     
35   H       -22.9549  -28.8575   -3.9543  H     
36   H       -22.5778  -30.4562   -4.6330  H     
37   H       -24.3792  -31.7166   -2.9461  H     
38   H       -24.8169  -30.0055   -2.9128  H     
39   H       -24.4995  -30.8453   -1.4023  H     
40   H       -23.3313  -40.3722   -1.4152  H     
41   H       -23.6628  -41.7374   -3.3467  H     
42   H       -25.3779  -38.4504   -5.3818  H     
43   H       -25.0774  -37.0941   -3.4363  H     
@<TRIPOS>BOND
     1    1    2 1
     2    1    5 1
     3    1    6 2
     4    2    8 1
     5    2   10 2
     6    3    4 2
     7    3   10 1
     8    4    5 1
     9    4    7 1
    10    7   16 1
    11    8    9 1
    12    9   11 2
    13    9   15 1
    14   10   15 1
    15   11   12 1
    16   12   13 2
    17   13   14 1
    18   13   19 1
    19   14   15 2
    20   16   17 1
    21   16   18 1
    22   19   20 2
    23   19   24 1
    24   20   21 1
    25   21   22 2
    26   22   23 1
    27   22   25 1
    28   23   24 2
    29   25   26 3
    30    5   27 1
    31    7   28 1
    32    7   29 1
    33   11   30 1
    34   12   31 1
    35   14   32 1
    36   16   33 1
    37   17   34 1
    38   17   35 1
    39   17   36 1
    40   18   37 1
    41   18   38 1
    42   18   39 1
    43   20   40 1
    44   21   41 1
    45   23   42 1
    46   24   43 1
@<TRIPOS>PROPERTY_DATA
  Total_Score	| 7.2905
  Crash		| -1.1490
  Polar		| 3.4247
  FragIndex	| 1
  FragRMSD	| 0.638

