@<TRIPOS>MOLECULE
BindingDB_35023
 48 51 0 0 0
SMALL
NO_CHARGES


@<TRIPOS>ATOM
1    C       -22.5295  -32.3878    1.3723  C     
2    C       -22.8969  -33.7083    1.2493  C     
3    N       -22.4921  -33.5730   -1.0554  N     
4    C       -22.1556  -32.2609   -0.9434  C     
5    N       -22.1735  -31.6884    0.3016  N     
6    O       -22.4843  -31.8353    2.4662  O     
7    C       -21.7523  -31.4696   -2.1215  C     
8    S       -23.4356  -34.7440    2.5120  S     
9    C       -23.6010  -35.9900    1.3139  C     
10   C       -22.8742  -34.2642    0.0318  C     
11   C       -24.0294  -37.3084    1.5394  C     
12   C       -24.1523  -38.1933    0.4487  C     
13   C       -23.8392  -37.7817   -0.8775  C     
14   C       -23.3805  -36.4523   -1.0666  C     
15   C       -23.2720  -35.5705    0.0254  C     
16   N       -22.6680  -30.3187   -2.4253  N     
17   C       -22.1315  -29.4521   -3.5179  C     
18   C       -24.0686  -30.7313   -2.7288  C     
19   C       -23.9644  -38.6762   -1.9921  C     
20   C       -23.5909  -40.0362   -1.8829  C     
21   C       -23.7349  -40.9236   -2.9658  C     
22   C       -24.2334  -40.4862   -4.2108  C     
23   C       -24.5929  -39.1217   -4.3338  C     
24   C       -24.4790  -38.2429   -3.2405  C     
25   C       -24.3649  -41.4434   -5.3525  C     
26   C       -22.9951  -41.9407   -5.8760  C     
27   H       -21.9340  -30.7497    0.3901  H     
28   H       -20.7497  -31.0856   -1.9156  H     
29   H       -21.6749  -32.1295   -2.9926  H     
30   H       -24.2542  -37.6211    2.4892  H     
31   H       -24.4951  -39.1409    0.6382  H     
32   H       -23.1133  -36.1217   -1.9984  H     
33   H       -22.7037  -29.7352   -1.5848  H     
34   H       -21.1239  -29.1157   -3.2747  H     
35   H       -22.7546  -28.5617   -3.6247  H     
36   H       -22.1102  -29.9915   -4.4658  H     
37   H       -24.1109  -31.4058   -3.5849  H     
38   H       -24.6909  -29.8586   -2.9388  H     
39   H       -24.5119  -31.2265   -1.8646  H     
40   H       -23.1803  -40.3987   -1.0184  H     
41   H       -23.4772  -41.9071   -2.8320  H     
42   H       -24.9593  -38.7592   -5.2205  H     
43   H       -24.7866  -37.2730   -3.3659  H     
44   H       -24.9535  -42.3040   -5.0263  H     
45   H       -24.9017  -40.9832   -6.1858  H     
46   H       -22.3834  -41.0943   -6.2006  H     
47   H       -23.1460  -42.6129   -6.7272  H     
48   H       -22.4592  -42.4905   -5.0984  H     
@<TRIPOS>BOND
     1    1    2 1
     2    1    5 1
     3    1    6 2
     4    2    8 1
     5    2   10 2
     6    3    4 2
     7    3   10 1
     8    4    5 1
     9    4    7 1
    10    7   16 1
    11    8    9 1
    12    9   11 2
    13    9   15 1
    14   10   15 1
    15   11   12 1
    16   12   13 2
    17   13   14 1
    18   13   19 1
    19   14   15 2
    20   16   17 1
    21   16   18 1
    22   19   20 2
    23   19   24 1
    24   20   21 1
    25   21   22 2
    26   22   23 1
    27   22   25 1
    28   23   24 2
    29   25   26 1
    30    5   27 1
    31    7   28 1
    32    7   29 1
    33   11   30 1
    34   12   31 1
    35   14   32 1
    36   16   33 1
    37   17   34 1
    38   17   35 1
    39   17   36 1
    40   18   37 1
    41   18   38 1
    42   18   39 1
    43   20   40 1
    44   21   41 1
    45   23   42 1
    46   24   43 1
    47   25   44 1
    48   25   45 1
    49   26   46 1
    50   26   47 1
    51   26   48 1
@<TRIPOS>PROPERTY_DATA
  Total_Score	| 7.5257
  Crash		| -1.5285
  Polar		| 3.2677
  FragIndex	| 1
  FragRMSD	| 0.610

