@<TRIPOS>MOLECULE
BindingDB_35017
 48 51 0 0 0
SMALL
NO_CHARGES


@<TRIPOS>ATOM
1    C       -22.3468  -32.6220    1.3389  C     
2    C       -22.7935  -33.9062    1.2117  C     
3    N       -22.6033  -33.7209   -1.1137  N     
4    C       -22.1537  -32.4403   -0.9991  C     
5    N       -22.0397  -31.9132    0.2502  N     
6    O       -22.2409  -32.0887    2.4330  O     
7    C       -21.8085  -31.6383   -2.1912  C     
8    S       -23.2164  -34.9364    2.5087  S     
9    C       -23.5826  -36.1437    1.3269  C     
10   C       -22.9227  -34.4328   -0.0182  C     
11   C       -24.0583  -37.4392    1.5919  C     
12   C       -24.3538  -38.2925    0.5151  C     
13   C       -24.1617  -37.8821   -0.8318  C     
14   C       -23.6721  -36.5666   -1.0714  C     
15   C       -23.3884  -35.7106    0.0133  C     
16   N       -22.6212  -30.3916   -2.3658  N     
17   C       -22.1820  -29.6009   -3.5540  C     
18   C       -24.0974  -30.6134   -2.3873  C     
19   C       -24.5512  -38.8479   -1.9249  C     
20   C       -24.4635  -38.3142   -3.3276  C     
21   C       -23.7609  -40.1879   -1.8406  C     
22   C       -25.6168  -38.1773   -4.1413  C     
23   C       -23.2093  -37.9533   -3.8785  C     
24   C       -23.1099  -37.4379   -5.1864  C     
25   C       -24.2664  -37.2849   -5.9692  C     
26   C       -25.5210  -37.6557   -5.4463  C     
27   H       -21.7445  -30.9949    0.3458  H     
28   H       -20.7591  -31.3537   -2.0768  H     
29   H       -21.8917  -32.2622   -3.0936  H     
30   H       -24.1882  -37.7600    2.5498  H     
31   H       -24.7207  -39.2205    0.7369  H     
32   H       -23.5262  -36.2266   -2.0270  H     
33   H       -22.4444  -29.7836   -1.5589  H     
34   H       -21.1143  -29.3793   -3.4977  H     
35   H       -22.7061  -28.6403   -3.5985  H     
36   H       -22.3771  -30.1465   -4.4888  H     
37   H       -24.3890  -31.3205   -3.1738  H     
38   H       -24.6352  -29.6778   -2.5388  H     
39   H       -24.4265  -31.0043   -1.4238  H     
40   H       -25.6021  -39.0987   -1.7262  H     
41   H       -22.6810  -40.0125   -1.8923  H     
42   H       -24.0396  -40.8629   -2.6593  H     
43   H       -23.9671  -40.7104   -0.9023  H     
44   H       -26.5326  -38.4304   -3.7753  H     
45   H       -22.3605  -38.0422   -3.3321  H     
46   H       -22.2014  -37.1762   -5.5673  H     
47   H       -24.2060  -36.9132   -6.9139  H     
48   H       -26.3590  -37.5585   -6.0161  H     
@<TRIPOS>BOND
     1    1    2 1
     2    1    5 1
     3    1    6 2
     4    2    8 1
     5    2   10 2
     6    3    4 2
     7    3   10 1
     8    4    5 1
     9    4    7 1
    10    7   16 1
    11    8    9 1
    12    9   11 2
    13    9   15 1
    14   10   15 1
    15   11   12 1
    16   12   13 2
    17   13   14 1
    18   13   19 1
    19   14   15 2
    20   16   17 1
    21   16   18 1
    22   19   20 1
    23   19   21 1
    24   20   22 1
    25   20   23 2
    26   22   26 2
    27   23   24 1
    28   24   25 2
    29   25   26 1
    30    5   27 1
    31    7   28 1
    32    7   29 1
    33   11   30 1
    34   12   31 1
    35   14   32 1
    36   16   33 1
    37   17   34 1
    38   17   35 1
    39   17   36 1
    40   18   37 1
    41   18   38 1
    42   18   39 1
    43   19   40 1
    44   21   41 1
    45   21   42 1
    46   21   43 1
    47   22   44 1
    48   23   45 1
    49   24   46 1
    50   25   47 1
    51   26   48 1
@<TRIPOS>PROPERTY_DATA
  Total_Score	| 7.2389
  Crash		| -2.2000
  Polar		| 3.3281
  FragIndex	| 1
  FragRMSD	| 0.375

