@<TRIPOS>MOLECULE
BindingDB_35016
 42 45 0 0 0
SMALL
NO_CHARGES


@<TRIPOS>ATOM
1    C       -22.5180  -32.5018    1.3806  C     
2    C       -22.9069  -33.8086    1.2481  C     
3    N       -22.5192  -33.6645   -1.0551  N     
4    C       -22.1719  -32.3519   -0.9444  C     
5    N       -22.1761  -31.7931    0.2975  N     
6    O       -22.4952  -31.9455    2.4695  O     
7    C       -21.8073  -31.5829   -2.1488  C     
8    S       -23.4431  -34.8499    2.5023  S     
9    C       -23.6407  -36.0835    1.2949  C     
10   C       -22.8881  -34.3641    0.0247  C     
11   C       -24.0981  -37.3934    1.5110  C     
12   C       -24.2125  -38.2734    0.4170  C     
13   C       -23.8857  -37.8619   -0.9032  C     
14   C       -23.4133  -36.5355   -1.0894  C     
15   C       -23.2993  -35.6608    0.0114  C     
16   N       -22.6974  -30.4283   -2.4958  N     
17   C       -22.3412  -29.8411   -3.8216  C     
18   C       -24.1555  -30.7314   -2.4066  C     
19   C       -24.0137  -38.7526   -2.0128  C     
20   C       -24.5425  -38.3088   -3.2535  C     
21   C       -24.6418  -39.1781   -4.3549  C     
22   C       -24.2300  -40.5170   -4.2344  C     
23   C       -23.7220  -40.9829   -3.0085  C     
24   C       -23.6075  -40.1059   -1.9130  C     
25   H       -21.9328  -30.8565    0.3935  H     
26   H       -20.7959  -31.2075   -1.9994  H     
27   H       -21.7680  -32.2788   -2.9993  H     
28   H       -24.3559  -37.6996    2.4511  H     
29   H       -24.5661  -39.2146    0.5882  H     
30   H       -23.1396  -36.2058   -2.0178  H     
31   H       -22.5243  -29.6999   -1.8027  H     
32   H       -21.2847  -29.5686   -3.8442  H     
33   H       -22.9107  -28.9295   -4.0114  H     
34   H       -22.5327  -30.5463   -4.6344  H     
35   H       -24.4134  -31.6279   -2.9747  H     
36   H       -24.7704  -29.9011   -2.7855  H     
37   H       -24.4380  -30.8788   -1.3633  H     
38   H       -24.8677  -37.3464   -3.3648  H     
39   H       -25.0159  -38.8400   -5.2458  H     
40   H       -24.3037  -41.1514   -5.0353  H     
41   H       -23.4163  -41.9556   -2.9228  H     
42   H       -23.2030  -40.4658   -1.0466  H     
@<TRIPOS>BOND
     1    1    2 1
     2    1    5 1
     3    1    6 2
     4    2    8 1
     5    2   10 2
     6    3    4 2
     7    3   10 1
     8    4    5 1
     9    4    7 1
    10    7   16 1
    11    8    9 1
    12    9   11 2
    13    9   15 1
    14   10   15 1
    15   11   12 1
    16   12   13 2
    17   13   14 1
    18   13   19 1
    19   14   15 2
    20   16   17 1
    21   16   18 1
    22   19   20 2
    23   19   24 1
    24   20   21 1
    25   21   22 2
    26   22   23 1
    27   23   24 2
    28    5   25 1
    29    7   26 1
    30    7   27 1
    31   11   28 1
    32   12   29 1
    33   14   30 1
    34   16   31 1
    35   17   32 1
    36   17   33 1
    37   17   34 1
    38   18   35 1
    39   18   36 1
    40   18   37 1
    41   20   38 1
    42   21   39 1
    43   22   40 1
    44   23   41 1
    45   24   42 1
@<TRIPOS>PROPERTY_DATA
  Total_Score	| 7.1525
  Crash		| -1.2692
  Polar		| 3.4259
  FragIndex	| 1
  FragRMSD	| 0.600

