@<TRIPOS>MOLECULE
BindingDB_35022
 45 48 0 0 0
SMALL
NO_CHARGES


@<TRIPOS>ATOM
1    C       -22.3080  -32.6539    1.2659  C     
2    C       -22.7172  -33.9536    1.0872  C     
3    N       -22.4286  -33.6839   -1.2228  N     
4    C       -22.0585  -32.3889   -1.0569  C     
5    N       -21.9956  -31.8966    0.2140  N     
6    O       -22.2125  -32.1603    2.3805  O     
7    C       -21.7815  -31.5413   -2.2375  C     
8    S       -23.2725  -35.0406    2.2908  S     
9    C       -23.5726  -36.1915    1.0237  C     
10   C       -22.7506  -34.4358   -0.1646  C     
11   C       -24.1609  -37.4635    1.1543  C     
12   C       -24.4074  -38.2333   -0.0046  C     
13   C       -24.0324  -37.7647   -1.2932  C     
14   C       -23.4123  -36.4927   -1.3874  C     
15   C       -23.2200  -35.7088   -0.2368  C     
16   N       -22.7017  -30.3713   -2.4171  N     
17   C       -22.4212  -29.6280   -3.6850  C     
18   C       -24.1521  -30.6986   -2.2979  C     
19   C       -24.3162  -38.5004   -2.4909  C     
20   C       -24.9736  -37.8178   -3.5496  C     
21   C       -25.2494  -38.4463   -4.7728  C     
22   C       -24.8592  -39.7749   -4.9752  C     
23   C       -24.2051  -40.4746   -3.9458  C     
24   C       -23.9336  -39.8630   -2.6957  C     
25   C       -23.2550  -40.6730   -1.6464  C     
26   H       -21.7451  -30.9619    0.3389  H     
27   H       -20.7584  -31.1684   -2.1365  H     
28   H       -21.8074  -32.1678   -3.1439  H     
29   H       -24.4460  -37.8173    2.0728  H     
30   H       -24.9035  -39.1268    0.0928  H     
31   H       -23.1239  -36.1227   -2.2955  H     
32   H       -22.4995  -29.7056   -1.6640  H     
33   H       -21.3699  -29.3392   -3.7400  H     
34   H       -23.0119  -28.7103   -3.7319  H     
35   H       -22.6609  -30.2386   -4.5619  H     
36   H       -24.4188  -31.5536   -2.9274  H     
37   H       -24.7849  -29.8555   -2.5773  H     
38   H       -24.3900  -30.9315   -1.2624  H     
39   H       -25.2697  -36.8427   -3.4353  H     
40   H       -25.7353  -37.9339   -5.5128  H     
41   H       -25.0664  -40.2365   -5.8626  H     
42   H       -23.9397  -41.4472   -4.1183  H     
43   H       -22.4498  -40.0963   -1.1862  H     
44   H       -22.8264  -41.6024   -2.0442  H     
45   H       -23.9837  -40.9362   -0.8721  H     
@<TRIPOS>BOND
     1    1    2 1
     2    1    5 1
     3    1    6 2
     4    2    8 1
     5    2   10 2
     6    3    4 2
     7    3   10 1
     8    4    5 1
     9    4    7 1
    10    7   16 1
    11    8    9 1
    12    9   11 2
    13    9   15 1
    14   10   15 1
    15   11   12 1
    16   12   13 2
    17   13   14 1
    18   13   19 1
    19   14   15 2
    20   16   17 1
    21   16   18 1
    22   19   20 2
    23   19   24 1
    24   20   21 1
    25   21   22 2
    26   22   23 1
    27   23   24 2
    28   24   25 1
    29    5   26 1
    30    7   27 1
    31    7   28 1
    32   11   29 1
    33   12   30 1
    34   14   31 1
    35   16   32 1
    36   17   33 1
    37   17   34 1
    38   17   35 1
    39   18   36 1
    40   18   37 1
    41   18   38 1
    42   20   39 1
    43   21   40 1
    44   22   41 1
    45   23   42 1
    46   25   43 1
    47   25   44 1
    48   25   45 1
@<TRIPOS>PROPERTY_DATA
  Total_Score	| 6.8297
  Crash		| -2.1841
  Polar		| 3.4700
  FragIndex	| 1
  FragRMSD	| 0.648

