@<TRIPOS>MOLECULE
BindingDB_35011
 36 38 0 0 0
SMALL
NO_CHARGES


@<TRIPOS>ATOM
1    C       -22.4018  -32.6799    1.2478  C     
2    C       -22.8713  -33.9575    1.1085  C     
3    N       -22.6358  -33.7633   -1.2062  N     
4    C       -22.1644  -32.4913   -1.0838  C     
5    N       -22.0472  -31.9757    0.1704  N     
6    O       -22.2523  -32.1665    2.3456  O     
7    C       -21.7758  -31.6990   -2.2730  C     
8    S       -23.2956  -35.0214    2.3862  S     
9    C       -23.6181  -36.2243    1.1805  C     
10   C       -22.9822  -34.4773   -0.1244  C     
11   C       -24.0160  -37.5504    1.4230  C     
12   C       -24.2003  -38.4218    0.3315  C     
13   C       -24.0069  -37.9784   -1.0045  C     
14   C       -23.6317  -36.6269   -1.2199  C     
15   C       -23.4193  -35.7693   -0.1241  C     
16   N       -22.6221  -30.4870   -2.5368  N     
17   C       -22.3252  -29.8813   -3.8678  C     
18   C       -24.0850  -30.7230   -2.3603  C     
19   C       -24.1714  -38.8082   -2.1119  C     
20   C       -23.6991  -40.0615   -2.2346  C     
21   H       -21.7054  -31.0717    0.2754  H     
22   H       -20.7414  -31.3832   -2.1151  H     
23   H       -21.7805  -32.3513   -3.1561  H     
24   H       -24.1521  -37.8841    2.3807  H     
25   H       -24.4934  -39.3814    0.5312  H     
26   H       -23.4798  -36.2730   -2.1676  H     
27   H       -22.3684  -29.7712   -1.8444  H     
28   H       -21.2613  -29.6528   -3.9546  H     
29   H       -22.8677  -28.9384   -3.9850  H     
30   H       -22.6106  -30.5499   -4.6870  H     
31   H       -24.4246  -31.5726   -2.9596  H     
32   H       -24.6640  -29.8421   -2.6457  H     
33   H       -24.3012  -30.9126   -1.3093  H     
34   H       -24.6258  -38.4365   -2.9144  H     
35   H       -23.8628  -40.5741   -3.0668  H     
36   H       -23.1586  -40.4890   -1.5222  H     
@<TRIPOS>BOND
     1    1    2 1
     2    1    5 1
     3    1    6 2
     4    2    8 1
     5    2   10 2
     6    3    4 2
     7    3   10 1
     8    4    5 1
     9    4    7 1
    10    7   16 1
    11    8    9 1
    12    9   11 2
    13    9   15 1
    14   10   15 1
    15   11   12 1
    16   12   13 2
    17   13   14 1
    18   13   19 1
    19   14   15 2
    20   16   17 1
    21   16   18 1
    22   19   20 2
    23    5   21 1
    24    7   22 1
    25    7   23 1
    26   11   24 1
    27   12   25 1
    28   14   26 1
    29   16   27 1
    30   17   28 1
    31   17   29 1
    32   17   30 1
    33   18   31 1
    34   18   32 1
    35   18   33 1
    36   19   34 1
    37   20   35 1
    38   20   36 1
@<TRIPOS>PROPERTY_DATA
  Total_Score	| 6.6291
  Crash		| -0.9574
  Polar		| 3.3705
  FragIndex	| 1
  FragRMSD	| 1.180

