@<TRIPOS>MOLECULE
BindingDB_35012
 43 46 0 0 0
SMALL
NO_CHARGES


@<TRIPOS>ATOM
1    C       -22.5180  -32.4690    1.2205  C     
2    C       -22.9089  -33.7788    1.1289  C     
3    N       -22.5453  -33.6926   -1.1807  N     
4    C       -22.1755  -32.3861   -1.1004  C     
5    N       -22.1547  -31.7967    0.1274  N     
6    O       -22.4859  -31.8921    2.2990  O     
7    C       -21.8334  -31.6278   -2.3214  C     
8    S       -23.4155  -34.7832    2.4287  S     
9    C       -23.5743  -36.0651    1.2732  C     
10   C       -22.9087  -34.3674   -0.0791  C     
11   C       -23.9139  -37.3963    1.5623  C     
12   C       -23.9843  -38.3305    0.5145  C     
13   C       -23.7464  -37.9411   -0.8366  C     
14   C       -23.3788  -36.5953   -1.0947  C     
15   C       -23.2854  -35.6748   -0.0365  C     
16   N       -22.6905  -30.4192   -2.5860  N     
17   C       -22.3005  -29.7416   -3.8550  C     
18   C       -24.1592  -30.6951   -2.5308  C     
19   C       -23.8646  -38.8934   -1.8439  C     
20   C       -24.3059  -38.6447   -3.1001  C     
21   C       -24.4417  -39.7001   -4.0843  C     
22   C       -25.2125  -39.4614   -5.3903  C     
23   C       -23.6791  -39.4576   -5.3990  C     
24   H       -21.9007  -30.8656    0.2044  H     
25   H       -20.7937  -31.2953   -2.2117  H     
26   H       -21.8731  -32.3057   -3.1958  H     
27   H       -24.1086  -37.6817    2.5251  H     
28   H       -24.2459  -39.2969    0.7409  H     
29   H       -23.1444  -36.2970   -2.0442  H     
30   H       -22.5067  -29.7421   -1.8314  H     
31   H       -21.2577  -29.4378   -3.8070  H     
32   H       -22.8893  -28.8396   -4.0028  H     
33   H       -22.4377  -30.3970   -4.7147  H     
34   H       -24.4192  -31.6085   -3.0744  H     
35   H       -24.7464  -29.8680   -2.9452  H     
36   H       -24.4740  -30.7974   -1.4904  H     
37   H       -23.7212  -39.8469   -1.5955  H     
38   H       -24.5771  -37.7171   -3.3419  H     
39   H       -24.4135  -40.7439   -3.7619  H     
40   H       -25.6825  -40.3472   -5.8208  H     
41   H       -25.6934  -38.4900   -5.5099  H     
42   H       -23.2203  -38.4751   -5.5412  H     
43   H       -23.2034  -40.3401   -5.8278  H     
@<TRIPOS>BOND
     1    1    2 1
     2    1    5 1
     3    1    6 2
     4    2    8 1
     5    2   10 2
     6    3    4 2
     7    3   10 1
     8    4    5 1
     9    4    7 1
    10    7   16 1
    11    8    9 1
    12    9   11 2
    13    9   15 1
    14   10   15 1
    15   11   12 1
    16   12   13 2
    17   13   14 1
    18   13   19 1
    19   14   15 2
    20   16   17 1
    21   16   18 1
    22   19   20 2
    23   20   21 1
    24   21   22 1
    25   21   23 1
    26   22   23 1
    27    5   24 1
    28    7   25 1
    29    7   26 1
    30   11   27 1
    31   12   28 1
    32   14   29 1
    33   16   30 1
    34   17   31 1
    35   17   32 1
    36   17   33 1
    37   18   34 1
    38   18   35 1
    39   18   36 1
    40   19   37 1
    41   20   38 1
    42   21   39 1
    43   22   40 1
    44   22   41 1
    45   23   42 1
    46   23   43 1
@<TRIPOS>PROPERTY_DATA
  Total_Score	| 7.3525
  Crash		| -0.7820
  Polar		| 3.4401
  FragIndex	| 1
  FragRMSD	| 1.053

