@<TRIPOS>MOLECULE
BindingDB_35010
 41 43 0 0 0
SMALL
NO_CHARGES


@<TRIPOS>ATOM
1    C       -22.5858  -32.4507    1.3120  C     
2    C       -22.9308  -33.7750    1.2323  C     
3    N       -22.4839  -33.7094   -1.0666  N     
4    C       -22.1830  -32.3863   -1.0021  C     
5    N       -22.2157  -31.7823    0.2164  N     
6    O       -22.5849  -31.8554    2.3773  O     
7    C       -21.8034  -31.6633   -2.2300  C     
8    S       -23.4990  -34.7760    2.5036  S     
9    C       -23.6073  -36.0609    1.3459  C     
10   C       -22.8535  -34.3745    0.0334  C     
11   C       -24.0575  -37.3735    1.5807  C     
12   C       -24.1020  -38.2941    0.5107  C     
13   C       -23.6755  -37.9269   -0.7962  C     
14   C       -23.2293  -36.5978   -1.0026  C     
15   C       -23.2094  -35.6810    0.0675  C     
16   N       -22.6724  -30.4887   -2.5744  N     
17   C       -22.3673  -29.9636   -3.9391  C     
18   C       -24.1301  -30.7464   -2.3940  C     
19   C       -23.7451  -38.8584   -1.9671  C     
20   C       -23.5221  -40.3558   -1.6267  C     
21   C       -25.0676  -38.6264   -2.7447  C     
22   H       -21.9966  -30.8360    0.2786  H     
23   H       -20.7791  -31.3073   -2.0861  H     
24   H       -21.7874  -32.3627   -3.0775  H     
25   H       -24.3608  -37.6658    2.5150  H     
26   H       -24.4540  -39.2358    0.7000  H     
27   H       -22.9315  -36.2934   -1.9310  H     
28   H       -22.4337  -29.7306   -1.9215  H     
29   H       -21.3035  -29.7439   -4.0348  H     
30   H       -22.9038  -29.0293   -4.1151  H     
31   H       -22.6453  -30.6803   -4.7160  H     
32   H       -24.4425  -31.6534   -2.9189  H     
33   H       -24.7323  -29.9105   -2.7562  H     
34   H       -24.3479  -30.8540   -1.3333  H     
35   H       -22.9314  -38.6028   -2.6536  H     
36   H       -22.5911  -40.4881   -1.0749  H     
37   H       -23.4549  -40.9540   -2.5454  H     
38   H       -24.3430  -40.7516   -1.0332  H     
39   H       -25.9297  -38.8761   -2.1220  H     
40   H       -25.0929  -39.2439   -3.6444  H     
41   H       -25.1549  -37.5823   -3.0542  H     
@<TRIPOS>BOND
     1    1    2 1
     2    1    5 1
     3    1    6 2
     4    2    8 1
     5    2   10 2
     6    3    4 2
     7    3   10 1
     8    4    5 1
     9    4    7 1
    10    7   16 1
    11    8    9 1
    12    9   11 2
    13    9   15 1
    14   10   15 1
    15   11   12 1
    16   12   13 2
    17   13   14 1
    18   13   19 1
    19   14   15 2
    20   16   17 1
    21   16   18 1
    22   19   20 1
    23   19   21 1
    24    5   22 1
    25    7   23 1
    26    7   24 1
    27   11   25 1
    28   12   26 1
    29   14   27 1
    30   16   28 1
    31   17   29 1
    32   17   30 1
    33   17   31 1
    34   18   32 1
    35   18   33 1
    36   18   34 1
    37   19   35 1
    38   20   36 1
    39   20   37 1
    40   20   38 1
    41   21   39 1
    42   21   40 1
    43   21   41 1
@<TRIPOS>PROPERTY_DATA
  Total_Score	| 7.8117
  Crash		| -1.3689
  Polar		| 3.2797
  FragIndex	| 1
  FragRMSD	| 1.101

