@<TRIPOS>MOLECULE
BindingDB_35007
 35 37 0 0 0
SMALL
NO_CHARGES


@<TRIPOS>ATOM
1    C       -22.5516  -32.5160    1.2566  C     
2    C       -22.8994  -33.8333    1.1528  C     
3    N       -22.5227  -33.7114   -1.1505  N     
4    C       -22.1890  -32.3965   -1.0563  C     
5    N       -22.1941  -31.8163    0.1798  N     
6    O       -22.5244  -31.9452    2.3406  O     
7    C       -21.8123  -31.6384   -2.2667  C     
8    S       -23.4297  -34.8441    2.4325  S     
9    C       -23.5923  -36.1123    1.2611  C     
10   C       -22.8744  -34.4106   -0.0656  C     
11   C       -24.0184  -37.4264    1.5244  C     
12   C       -24.1062  -38.3488    0.4619  C     
13   C       -23.7536  -37.9672   -0.8590  C     
14   C       -23.3342  -36.6355   -1.1029  C     
15   C       -23.2515  -35.7183   -0.0340  C     
16   N       -22.6274  -30.4076   -2.5381  N     
17   C       -22.1715  -29.6687   -3.7514  C     
18   C       -24.0975  -30.6787   -2.5992  C     
19   C       -23.8252  -38.9674   -1.9449  C     
20   H       -21.9604  -30.8749    0.2658  H     
21   H       -20.7671  -31.3584   -2.1441  H     
22   H       -21.8543  -32.2977   -3.1473  H     
23   H       -24.2589  -37.7185    2.4746  H     
24   H       -24.4048  -39.3114    0.6606  H     
25   H       -23.0801  -36.3389   -2.0474  H     
26   H       -22.4836  -29.7586   -1.7547  H     
27   H       -21.1159  -29.3975   -3.6644  H     
28   H       -22.7309  -28.7369   -3.8649  H     
29   H       -22.3028  -30.2675   -4.6604  H     
30   H       -24.3324  -31.4963   -3.2914  H     
31   H       -24.6576  -29.7889   -2.8942  H     
32   H       -24.4536  -30.9417   -1.6002  H     
33   H       -23.2080  -39.8325   -1.6889  H     
34   H       -23.4669  -38.5642   -2.8957  H     
35   H       -24.8595  -39.2970   -2.0759  H     
@<TRIPOS>BOND
     1    1    2 1
     2    1    5 1
     3    1    6 2
     4    2    8 1
     5    2   10 2
     6    3    4 2
     7    3   10 1
     8    4    5 1
     9    4    7 1
    10    7   16 1
    11    8    9 1
    12    9   11 2
    13    9   15 1
    14   10   15 1
    15   11   12 1
    16   12   13 2
    17   13   14 1
    18   13   19 1
    19   14   15 2
    20   16   17 1
    21   16   18 1
    22    5   20 1
    23    7   21 1
    24    7   22 1
    25   11   23 1
    26   12   24 1
    27   14   25 1
    28   16   26 1
    29   17   27 1
    30   17   28 1
    31   17   29 1
    32   18   30 1
    33   18   31 1
    34   18   32 1
    35   19   33 1
    36   19   34 1
    37   19   35 1
@<TRIPOS>PROPERTY_DATA
  Total_Score	| 6.3066
  Crash		| -0.8315
  Polar		| 3.3831
  FragIndex	| 1
  FragRMSD	| 1.142

