@<TRIPOS>MOLECULE
BindingDB_35050
 48 52 0 0 0
SMALL
NO_CHARGES


@<TRIPOS>ATOM
1    C       -22.6233  -32.4191    1.2926  C     
2    C       -23.0271  -33.7237    1.1960  C     
3    N       -22.6478  -33.6310   -1.1115  N     
4    C       -22.2366  -32.3365   -1.0301  C     
5    N       -22.2427  -31.7492    0.2006  N     
6    O       -22.5931  -31.8475    2.3721  O     
7    C       -21.7164  -31.6623   -2.2377  C     
8    S       -23.4489  -34.7613    2.5004  S     
9    C       -23.6436  -36.0196    1.3236  C     
10   C       -23.0406  -34.2967   -0.0209  C     
11   C       -23.9574  -37.3601    1.5997  C     
12   C       -24.0706  -38.2722    0.5305  C     
13   C       -23.9001  -37.8616   -0.8217  C     
14   C       -23.5707  -36.5014   -1.0669  C     
15   C       -23.4252  -35.5982    0.0113  C     
16   N       -22.3923  -30.3799   -2.6008  N     
17   C       -24.0177  -38.8122   -1.8419  C     
18   C       -21.7868  -29.7018   -3.7866  C     
19   C       -22.9353  -29.0888   -4.6176  C     
20   C       -24.1449  -29.1959   -3.6785  C     
21   C       -23.8503  -30.4659   -2.8658  C     
22   O       -23.1520  -29.8342   -5.8235  O     
23   C       -24.3442  -38.5661   -3.1294  C     
24   C       -24.3887  -39.6333   -4.1181  C     
25   C       -25.1068  -39.4101   -5.4604  C     
26   C       -23.5767  -39.3952   -5.4079  C     
27   H       -21.9552  -30.8306    0.2828  H     
28   H       -20.6541  -31.4645   -2.0513  H     
29   H       -21.7939  -32.3570   -3.0937  H     
30   H       -24.0824  -37.6751    2.5667  H     
31   H       -24.2923  -39.2468    0.7556  H     
32   H       -23.4001  -36.1658   -2.0191  H     
33   H       -22.2768  -29.7381   -1.8013  H     
34   H       -23.8616  -39.7680   -1.5830  H     
35   H       -21.1311  -28.9090   -3.4242  H     
36   H       -21.1918  -30.3743   -4.4125  H     
37   H       -22.7267  -28.0445   -4.8882  H     
38   H       -24.1668  -28.3179   -3.0213  H     
39   H       -25.0920  -29.2673   -4.2224  H     
40   H       -24.1127  -31.3513   -3.4564  H     
41   H       -24.4190  -30.4658   -1.9310  H     
42   H       -23.8594  -29.3558   -6.3146  H     
43   H       -24.6222  -37.6479   -3.4080  H     
44   H       -24.3682  -40.6772   -3.7818  H     
45   H       -25.5571  -40.3058   -5.8996  H     
46   H       -25.5892  -38.4418   -5.6145  H     
47   H       -23.1294  -38.4094   -5.5667  H     
48   H       -23.0993  -40.2700   -5.8535  H     
@<TRIPOS>BOND
     1    1    2 1
     2    1    5 1
     3    1    6 2
     4    2    8 1
     5    2   10 2
     6    3    4 2
     7    3   10 1
     8    4    5 1
     9    4    7 1
    10    7   16 1
    11    8    9 1
    12    9   11 2
    13    9   15 1
    14   10   15 1
    15   11   12 1
    16   12   13 2
    17   13   14 1
    18   13   17 1
    19   14   15 2
    20   16   18 1
    21   16   21 1
    22   17   23 2
    23   18   19 1
    24   19   20 1
    25   19   22 1
    26   20   21 1
    27   23   24 1
    28   24   25 1
    29   24   26 1
    30   25   26 1
    31    5   27 1
    32    7   28 1
    33    7   29 1
    34   11   30 1
    35   12   31 1
    36   14   32 1
    37   16   33 1
    38   17   34 1
    39   18   35 1
    40   18   36 1
    41   19   37 1
    42   20   38 1
    43   20   39 1
    44   21   40 1
    45   21   41 1
    46   22   42 1
    47   23   43 1
    48   24   44 1
    49   25   45 1
    50   25   46 1
    51   26   47 1
    52   26   48 1
@<TRIPOS>PROPERTY_DATA
  Total_Score	| 7.4360
  Crash		| -1.4452
  Polar		| 3.3476
  FragIndex	| 1
  FragRMSD	| 0.463

