@<TRIPOS>MOLECULE
BindingDB_35008
 35 37 0 0 0
SMALL
NO_CHARGES


@<TRIPOS>ATOM
1    C       -22.5309  -32.5889    1.4163  C     
2    C       -22.8710  -33.9156    1.2853  C     
3    N       -22.4646  -33.7426   -1.0181  N     
4    C       -22.1665  -32.4177   -0.9002  C     
5    N       -22.2374  -31.8537    0.3362  N     
6    O       -22.4779  -32.0542    2.5145  O     
7    C       -21.7882  -31.6625   -2.1149  C     
8    S       -23.4138  -34.9845    2.5117  S     
9    C       -23.5958  -36.1933    1.2843  C     
10   C       -22.8224  -34.4600    0.0568  C     
11   C       -24.1370  -37.4817    1.4435  C     
12   C       -24.2478  -38.3332    0.3146  C     
13   C       -23.8342  -37.8996   -0.9696  C     
14   C       -23.2777  -36.6085   -1.0956  C     
15   C       -23.1951  -35.7614    0.0163  C     
16   N       -22.6404  -30.4994   -2.5278  N     
17   C       -22.2158  -29.9278   -3.8629  C     
18   C       -24.0976  -30.8250   -2.4548  C     
19   C       -24.0355  -38.7821   -2.1598  C     
20   F       -23.4871  -38.2958   -3.3274  F     
21   F       -23.4825  -40.0236   -1.9573  F     
22   F       -25.3825  -38.9262   -2.3851  F     
23   H       -22.0424  -30.9147    0.4341  H     
24   H       -20.7609  -31.2950   -1.9377  H     
25   H       -21.7122  -32.3926   -2.9499  H     
26   H       -24.4819  -37.7843    2.3548  H     
27   H       -24.6657  -39.2532    0.4444  H     
28   H       -22.9765  -36.2529   -2.0142  H     
29   H       -22.4771  -29.7357   -1.8461  H     
30   H       -21.1780  -29.6096   -3.8071  H     
31   H       -22.7975  -29.0501   -4.1062  H     
32   H       -22.3205  -30.6574   -4.6779  H     
33   H       -24.2920  -31.8230   -2.8522  H     
34   H       -24.7339  -30.1042   -2.9813  H     
35   H       -24.4083  -30.7846   -1.4182  H     
@<TRIPOS>BOND
     1    1    2 1
     2    1    5 1
     3    1    6 2
     4    2    8 1
     5    2   10 2
     6    3    4 2
     7    3   10 1
     8    4    5 1
     9    4    7 1
    10    7   16 1
    11    8    9 1
    12    9   11 2
    13    9   15 1
    14   10   15 1
    15   11   12 1
    16   12   13 2
    17   13   14 1
    18   13   19 1
    19   14   15 2
    20   16   17 1
    21   16   18 1
    22   19   20 1
    23   19   21 1
    24   19   22 1
    25    5   23 1
    26    7   24 1
    27    7   25 1
    28   11   26 1
    29   12   27 1
    30   14   28 1
    31   16   29 1
    32   17   30 1
    33   17   31 1
    34   17   32 1
    35   18   33 1
    36   18   34 1
    37   18   35 1
@<TRIPOS>PROPERTY_DATA
  Total_Score	| 6.6595
  Crash		| -0.8456
  Polar		| 3.2909
  FragIndex	| 1
  FragRMSD	| 1.068

