@<TRIPOS>MOLECULE
BindingDB_14786
 38 40 0 0 0
SMALL
NO_CHARGES


@<TRIPOS>ATOM
1    C         1.8427   48.9765  -10.3972  C     
2    C         1.3362   48.3177  -11.5126  C     
3    C         2.4437   47.6360  -12.0520  C     
4    N         3.4935   47.9610  -11.2672  N     
5    N         3.1679   48.7521  -10.2931  N     
6    C        -0.0350   48.3809  -11.8683  C     
7    O        -0.4433   47.9715  -13.1001  O     
8    O        -0.9604   48.8684  -10.9847  O     
9    C        -2.3804   48.9349  -11.1794  C     
10   C        -3.0460   49.9051  -10.1703  C     
11   C         4.0661   49.1795   -9.3375  C     
12   C         5.4648   48.9993   -9.5202  C     
13   C         6.3877   49.3957   -8.5365  C     
14   C         5.9237   49.9879   -7.3441  C     
15   C         4.5467   50.1597   -7.1335  C     
16   C         3.6294   49.7659   -8.1201  C     
17   C         2.6146   46.6613  -13.0849  C     
18   C         1.9497   45.5249  -15.1684  C     
19   C         1.7302   46.5041  -14.1781  C     
20   C         3.7473   45.8063  -13.0306  C     
21   C         3.9598   44.8114  -14.0038  C     
22   C         3.0588   44.6657  -15.0760  C     
23   Cl        3.3192   43.4674  -16.2461  Cl    
24   H         1.2856   49.5537   -9.7645  H     
25   H        -2.5950   49.2681  -12.2048  H     
26   H        -2.7924   47.9319  -11.0573  H     
27   H        -2.9034   49.5439   -9.1453  H     
28   H        -4.1140   49.9556  -10.3885  H     
29   H        -2.6172   50.9079  -10.2690  H     
30   H         5.8278   48.5628  -10.3718  H     
31   H         7.3860   49.2552   -8.6892  H     
32   H         6.5913   50.2807   -6.6327  H     
33   H         4.2033   50.5780   -6.2712  H     
34   H         2.6325   49.8921   -7.9345  H     
35   H         1.2999   45.4480  -15.9494  H     
36   H         0.9220   47.1186  -14.2907  H     
37   H         4.4279   45.8712  -12.2544  H     
38   H         4.7640   44.1896  -13.9095  H     
@<TRIPOS>BOND
     1    1    2 2
     2    1    5 1
     3    2    3 1
     4    2    6 1
     5    3    4 2
     6    3   17 1
     7    4    5 1
     8    5   11 1
     9    6    7 2
    10    6    8 1
    11    8    9 1
    12    9   10 1
    13   11   12 2
    14   11   16 1
    15   12   13 1
    16   13   14 2
    17   14   15 1
    18   15   16 2
    19   17   19 1
    20   17   20 2
    21   18   19 2
    22   18   22 1
    23   20   21 1
    24   21   22 2
    25   22   23 1
    26    1   24 1
    27    9   25 1
    28    9   26 1
    29   10   27 1
    30   10   28 1
    31   10   29 1
    32   12   30 1
    33   13   31 1
    34   14   32 1
    35   15   33 1
    36   16   34 1
    37   18   35 1
    38   19   36 1
    39   20   37 1
    40   21   38 1
@<TRIPOS>PROPERTY_DATA
  Total_Score	| 2.5412
  Crash		| -1.3465
  Polar		| 1.1481
  FragIndex	| 1
  FragRMSD	| 0.891

