@<TRIPOS>MOLECULE
BindingDB_14795
 36 37 0 0 0
SMALL
NO_CHARGES


@<TRIPOS>ATOM
1    C         2.6880   48.3560  -11.7467  C     
2    C         1.5123   48.6887  -11.0680  C     
3    N         3.7242   48.7801  -11.0079  N     
4    N         3.2941   49.3350   -9.9183  N     
5    C         2.8684   47.6591  -13.0309  C     
6    C         0.1863   48.4522  -11.5056  C     
7    O        -0.0362   47.8358  -12.6911  O     
8    O        -0.8761   48.8929  -10.7838  O     
9    C        -2.2693   48.7044  -11.0728  C     
10   C        -3.1110   49.6768  -10.2232  C     
11   C         4.1649   49.8321   -8.9939  C     
12   C         4.8629   51.0279   -9.2454  C     
13   C         5.7556   51.5507   -8.2893  C     
14   C         5.9910   50.8914   -7.0546  C     
15   C         5.2930   49.6790   -6.8254  C     
16   C         4.3943   49.1556   -7.7772  C     
17   C         1.9391   49.3136   -9.8885  C     
18   C         1.0716   49.8884   -8.8325  C     
19   N         6.8380   51.4245   -6.1193  N     
20   O         7.0506   50.9156   -5.0507  O     
21   O         7.4871   52.5394   -6.3329  O     
22   H         2.4185   46.6649  -12.9773  H     
23   H         3.9270   47.5487  -13.2664  H     
24   H         2.3908   48.2267  -13.8337  H     
25   H        -2.4682   48.8988  -12.1305  H     
26   H        -2.5391   47.6705  -10.8442  H     
27   H        -2.9443   49.4946   -9.1599  H     
28   H        -4.1730   49.5397  -10.4418  H     
29   H        -2.8353   50.7055  -10.4560  H     
30   H         4.7071   51.5392  -10.1189  H     
31   H         6.2221   52.4359   -8.5029  H     
32   H         5.4182   49.1661   -5.9500  H     
33   H         3.9016   48.2793   -7.5785  H     
34   H         0.4397   50.6732   -9.2522  H     
35   H         1.6526   50.3286   -8.0224  H     
36   H         0.4416   49.1030   -8.4110  H     
@<TRIPOS>BOND
     1    1    2 1
     2    1    3 2
     3    1    5 1
     4    2    6 1
     5    2   17 2
     6    3    4 1
     7    4   11 1
     8    4   17 1
     9    6    7 2
    10    6    8 1
    11    8    9 1
    12    9   10 1
    13   11   12 2
    14   11   16 1
    15   12   13 1
    16   13   14 2
    17   14   15 1
    18   14   19 am
    19   15   16 2
    20   17   18 1
    21   19   20 2
    22   19   21 1
    23    5   22 1
    24    5   23 1
    25    5   24 1
    26    9   25 1
    27    9   26 1
    28   10   27 1
    29   10   28 1
    30   10   29 1
    31   12   30 1
    32   13   31 1
    33   15   32 1
    34   16   33 1
    35   18   34 1
    36   18   35 1
    37   18   36 1
@<TRIPOS>PROPERTY_DATA
  Total_Score	| 5.1330
  Crash		| -0.3609
  Polar		| 1.9224
  FragIndex	| 1
  FragRMSD	| 0.655

