@<TRIPOS>MOLECULE
BindingDB_24165
 47 50 0 0 0
SMALL
NO_CHARGES


@<TRIPOS>ATOM
1    C        20.1364   15.7682   28.5475  C     
2    C        20.3271   14.4919   29.1238  C     
3    S        21.6621   13.7468   28.3489  S     
4    O        19.5145   17.7780   29.1748  O     
5    N        19.6234   13.7989   30.0529  N     
6    O        19.4364   15.3427   31.6344  O     
7    C        22.0062   15.0450   27.2859  C     
8    C        23.0315   15.0326   26.2297  C     
9    C        22.6630   16.0301   25.1042  C     
10   C        22.2805   17.4140   25.6887  C     
11   C        21.0798   17.3020   26.6761  C     
12   C        21.0844   16.0771   27.5321  C     
13   C        19.1318   14.2407   31.1987  C     
14   C        19.1256   16.6379   28.9538  C     
15   C        18.2951   13.4263   31.9364  C     
16   C        17.6105   12.2842   31.4934  C     
17   C        16.7927   11.6640   32.4517  C     
18   C        16.7883   12.2933   33.6962  C     
19   S        17.8318   13.6531   33.5812  S     
20   C        16.9695   17.1778   29.9907  C     
21   C        17.2007   15.1253   28.6629  C     
22   C        15.9884   15.5156   27.7758  C     
23   C        15.0162   16.4658   28.5190  C     
24   C        15.7741   17.6669   29.1372  C     
25   N        17.8430   16.3124   29.2076  N     
26   H        19.5205   12.8480   29.8826  H     
27   H        23.9939   15.2975   26.6721  H     
28   H        23.1087   14.0290   25.8053  H     
29   H        23.5040   16.1244   24.4200  H     
30   H        21.8132   15.6370   24.5414  H     
31   H        23.1475   17.8272   26.2129  H     
32   H        22.0254   18.1004   24.8762  H     
33   H        21.0901   18.1900   27.3081  H     
34   H        20.1484   17.3091   26.1039  H     
35   H        17.6807   11.9289   30.5395  H     
36   H        16.2494   10.8229   32.2539  H     
37   H        16.2584   12.0059   34.5204  H     
38   H        17.4709   18.0562   30.4043  H     
39   H        16.5915   16.6150   30.8492  H     
40   H        16.8573   14.4917   29.4852  H     
41   H        17.8665   14.5169   28.0474  H     
42   H        16.3541   16.0127   26.8733  H     
43   H        15.4527   14.6139   27.4695  H     
44   H        14.2581   16.8315   27.8220  H     
45   H        14.5058   15.9130   29.3121  H     
46   H        15.0901   18.2489   29.7603  H     
47   H        16.1441   18.3158   28.3385  H     
@<TRIPOS>BOND
     1    1    2 2
     2    1   12 1
     3    1   14 1
     4    2    3 1
     5    2    5 1
     6    3    7 1
     7    4   14 2
     8    5   13 am
     9    6   13 2
    10    7    8 1
    11    7   12 2
    12    8    9 1
    13    9   10 1
    14   10   11 1
    15   11   12 1
    16   13   15 1
    17   14   25 am
    18   15   16 2
    19   15   19 1
    20   16   17 1
    21   17   18 2
    22   18   19 1
    23   20   24 1
    24   20   25 1
    25   21   22 1
    26   21   25 1
    27   22   23 1
    28   23   24 1
    29    5   26 1
    30    8   27 1
    31    8   28 1
    32    9   29 1
    33    9   30 1
    34   10   31 1
    35   10   32 1
    36   11   33 1
    37   11   34 1
    38   16   35 1
    39   17   36 1
    40   18   37 1
    41   20   38 1
    42   20   39 1
    43   21   40 1
    44   21   41 1
    45   22   42 1
    46   22   43 1
    47   23   44 1
    48   23   45 1
    49   24   46 1
    50   24   47 1
@<TRIPOS>PROPERTY_DATA
  Total_Score	| 4.1723
  Crash		| -1.6921
  Polar		| 0.2569
  FragIndex	| 1
  FragRMSD	| 1.434

