@<TRIPOS>MOLECULE
BindingDB_24173
 46 48 0 0 0
SMALL
NO_CHARGES


@<TRIPOS>ATOM
1    C        19.7359   15.4705   28.0358  C     
2    C        20.1904   14.5685   29.0330  C     
3    S        21.8589   14.2428   28.7521  S     
4    O        17.9707   15.8953   26.8044  O     
5    N        19.5998   14.0169   30.1276  N     
6    O        17.5596   13.6356   29.3503  O     
7    C        18.3365   13.6591   30.2946  C     
8    C        17.8923   13.2413   31.5334  C     
9    C        16.6674   12.6261   31.8426  C     
10   C        16.4788   12.3293   33.2040  C     
11   C        17.5297   12.7203   34.0315  C     
12   S        18.7239   13.4417   33.0304  S     
13   C        18.4561   16.0197   27.9247  C     
14   N        17.7541   16.6721   28.8809  N     
15   C        18.3356   17.0846   30.1550  C     
16   C        18.5555   18.6128   30.2584  C     
17   C        16.3722   17.0851   28.6266  C     
18   C        15.3822   15.9037   28.4842  C     
19   C        20.7610   15.7977   27.1146  C     
20   C        21.9892   15.2222   27.3540  C     
21   C        23.0271   15.5742   26.4012  C     
22   C        22.3250   16.6670   25.5362  C     
23   C        20.8114   16.6599   25.9329  C     
24   C        22.9690   18.0661   25.7208  C     
25   H        20.1930   13.8395   30.8759  H     
26   H        15.9627   12.3971   31.1373  H     
27   H        15.6382   11.8771   33.5657  H     
28   H        17.5826   12.6044   35.0449  H     
29   H        17.6863   16.7602   30.9750  H     
30   H        19.3088   16.6358   30.3488  H     
31   H        19.0794   18.9745   29.3713  H     
32   H        19.1622   18.8412   31.1373  H     
33   H        17.6074   19.1447   30.3517  H     
34   H        15.9753   17.7085   29.4330  H     
35   H        16.3300   17.7028   27.7236  H     
36   H        15.6563   15.2566   27.6514  H     
37   H        14.3747   16.2852   28.3043  H     
38   H        15.3699   15.3148   29.4022  H     
39   H        23.9124   15.9391   26.9270  H     
40   H        23.2900   14.6955   25.8070  H     
41   H        22.4222   16.3976   24.4787  H     
42   H        20.1991   16.2265   25.1382  H     
43   H        20.4314   17.6569   26.1754  H     
44   H        22.8477   18.4177   26.7481  H     
45   H        22.4964   18.7804   25.0451  H     
46   H        24.0339   18.0288   25.4912  H     
@<TRIPOS>BOND
     1    1    2 2
     2    1   13 1
     3    1   19 1
     4    2    3 1
     5    2    5 1
     6    3   20 1
     7    4   13 2
     8    5    7 am
     9    6    7 2
    10    7    8 1
    11    8    9 2
    12    8   12 1
    13    9   10 1
    14   10   11 2
    15   11   12 1
    16   13   14 am
    17   14   15 1
    18   14   17 1
    19   15   16 1
    20   17   18 1
    21   19   20 2
    22   19   23 1
    23   20   21 1
    24   21   22 1
    25   22   23 1
    26   22   24 1
    27    5   25 1
    28    9   26 1
    29   10   27 1
    30   11   28 1
    31   15   29 1
    32   15   30 1
    33   16   31 1
    34   16   32 1
    35   16   33 1
    36   17   34 1
    37   17   35 1
    38   18   36 1
    39   18   37 1
    40   18   38 1
    41   21   39 1
    42   21   40 1
    43   22   41 1
    44   23   42 1
    45   23   43 1
    46   24   44 1
    47   24   45 1
    48   24   46 1
@<TRIPOS>PROPERTY_DATA
  Total_Score	| 3.9900
  Crash		| -1.4106
  Polar		| 0.0000
  FragIndex	| 1
  FragRMSD	| 1.107

