@<TRIPOS>MOLECULE
BindingDB_24164
 44 47 0 0 0
SMALL
NO_CHARGES


@<TRIPOS>ATOM
1    C        19.7918   15.8415   27.7637  C     
2    C        20.2552   14.7692   28.5565  C     
3    S        21.9351   14.5822   28.2629  S     
4    O        17.7547   16.1604   26.9523  O     
5    N        19.6404   14.0345   29.5150  N     
6    O        17.5379   14.0693   28.7930  O     
7    C        22.0544   15.8402   27.1016  C     
8    C        23.3012   16.3238   26.4859  C     
9    C        23.1117   17.7276   25.8456  C     
10   C        21.7921   17.7790   25.0298  C     
11   C        20.5671   17.5235   25.9536  C     
12   C        20.7772   16.3932   26.9081  C     
13   C        18.3455   13.7982   29.6718  C     
14   C        18.5206   16.3878   27.8890  C     
15   C        17.8792   13.2691   30.8609  C     
16   C        18.6314   12.7369   31.9281  C     
17   C        17.8834   12.2968   33.0303  C     
18   C        16.5066   12.4545   32.8861  C     
19   S        16.2329   13.1939   31.3596  S     
20   C        16.7526   17.5515   29.1072  C     
21   C        18.9469   17.5354   30.0298  C     
22   C        18.0161   18.1697   31.0766  C     
23   C        16.7805   18.5733   30.2598  C     
24   N        18.0988   17.0847   28.9602  N     
25   H        20.2268   13.6800   30.2014  H     
26   H        24.0692   16.3881   27.2603  H     
27   H        23.6254   15.6043   25.7292  H     
28   H        23.0739   18.4875   26.6338  H     
29   H        23.9592   17.9572   25.1990  H     
30   H        21.6955   18.7478   24.5393  H     
31   H        21.8182   17.0141   24.2482  H     
32   H        20.3636   18.4272   26.5354  H     
33   H        19.7007   17.3167   25.3174  H     
34   H        19.6512   12.6820   31.9089  H     
35   H        18.3111   11.8922   33.8656  H     
36   H        15.7982   12.2075   33.5731  H     
37   H        16.0897   16.7130   29.3396  H     
38   H        16.3924   18.0420   28.1961  H     
39   H        19.6480   18.2814   29.6402  H     
40   H        19.5097   16.7196   30.4966  H     
41   H        17.7412   17.4250   31.8286  H     
42   H        18.4783   19.0325   31.5660  H     
43   H        16.9101   19.5844   29.8599  H     
44   H        15.8666   18.5341   30.8545  H     
@<TRIPOS>BOND
     1    1    2 2
     2    1   12 1
     3    1   14 1
     4    2    3 1
     5    2    5 1
     6    3    7 1
     7    4   14 2
     8    5   13 am
     9    6   13 2
    10    7    8 1
    11    7   12 2
    12    8    9 1
    13    9   10 1
    14   10   11 1
    15   11   12 1
    16   13   15 1
    17   14   24 1
    18   15   16 2
    19   15   19 1
    20   16   17 1
    21   17   18 2
    22   18   19 1
    23   20   23 1
    24   20   24 1
    25   21   22 1
    26   21   24 1
    27   22   23 1
    28    5   25 1
    29    8   26 1
    30    8   27 1
    31    9   28 1
    32    9   29 1
    33   10   30 1
    34   10   31 1
    35   11   32 1
    36   11   33 1
    37   16   34 1
    38   17   35 1
    39   18   36 1
    40   20   37 1
    41   20   38 1
    42   21   39 1
    43   21   40 1
    44   22   41 1
    45   22   42 1
    46   23   43 1
    47   23   44 1
@<TRIPOS>PROPERTY_DATA
  Total_Score	| 4.6121
  Crash		| -2.4000
  Polar		| 0.0000
  FragIndex	| 1
  FragRMSD	| 1.396

