@<TRIPOS>MOLECULE
BindingDB_24170
 49 51 0 0 0
SMALL
NO_CHARGES


@<TRIPOS>ATOM
1    C        19.7141   15.4235   28.3304  C     
2    C        20.1354   14.4868   29.3015  C     
3    S        21.7763   14.1059   28.9810  S     
4    O        17.7354   15.4940   27.3990  O     
5    N        19.5381   13.9381   30.3918  N     
6    O        17.4916   13.5542   29.6206  O     
7    C        21.9429   15.1138   27.6039  C     
8    C        23.1686   15.2817   26.8042  C     
9    C        23.1398   16.6049   25.9984  C     
10   C        21.7666   16.8265   25.2972  C     
11   C        20.5900   16.8025   26.3264  C     
12   C        20.7202   15.7669   27.3884  C     
13   C        18.2741   13.5827   30.5603  C     
14   C        17.8469   13.1468   31.7989  C     
15   C        16.6583   12.4636   32.1103  C     
16   C        16.4877   12.1567   33.4714  C     
17   C        17.5193   12.6010   34.2968  C     
18   S        18.6715   13.3834   33.2916  S     
19   C        18.4322   15.9559   28.2953  C     
20   N        17.9181   16.8128   29.1989  N     
21   C        16.4804   17.0375   29.2749  C     
22   C        15.9926   18.1212   28.2898  C     
23   C        18.7621   17.6512   30.0379  C     
24   C        18.8875   17.1627   31.4978  C     
25   C        21.7650   18.1296   24.4569  C     
26   H        20.1310   13.7505   31.1365  H     
27   H        24.0399   15.2819   27.4636  H     
28   H        23.2538   14.4301   26.1226  H     
29   H        23.3431   17.4373   26.6785  H     
30   H        23.9369   16.5744   25.2562  H     
31   H        21.6083   15.9926   24.6056  H     
32   H        20.5151   17.7735   26.8231  H     
33   H        19.6615   16.6337   25.7759  H     
34   H        15.9702   12.1937   31.4049  H     
35   H        15.6763   11.6565   33.8354  H     
36   H        17.5813   12.4828   35.3087  H     
37   H        15.9339   16.1120   29.0791  H     
38   H        16.1852   17.3437   30.2804  H     
39   H        16.4276   19.0878   28.5412  H     
40   H        14.9070   18.2086   28.3422  H     
41   H        16.2710   17.8599   27.2688  H     
42   H        19.7705   17.7541   29.6272  H     
43   H        18.3626   18.6698   30.0541  H     
44   H        17.9339   16.8267   31.8930  H     
45   H        19.2577   17.9718   32.1283  H     
46   H        19.6025   16.3467   31.5582  H     
47   H        22.1823   18.9539   25.0324  H     
48   H        20.7513   18.3963   24.1656  H     
49   H        22.3594   18.0022   23.5521  H     
@<TRIPOS>BOND
     1    1    2 2
     2    1   12 1
     3    1   19 1
     4    2    3 1
     5    2    5 1
     6    3    7 1
     7    4   19 2
     8    5   13 am
     9    6   13 2
    10    7    8 1
    11    7   12 2
    12    8    9 1
    13    9   10 1
    14   10   11 1
    15   10   25 1
    16   11   12 1
    17   13   14 1
    18   14   15 2
    19   14   18 1
    20   15   16 1
    21   16   17 2
    22   17   18 1
    23   19   20 am
    24   20   21 1
    25   20   23 1
    26   21   22 1
    27   23   24 1
    28    5   26 1
    29    8   27 1
    30    8   28 1
    31    9   29 1
    32    9   30 1
    33   10   31 1
    34   11   32 1
    35   11   33 1
    36   15   34 1
    37   16   35 1
    38   17   36 1
    39   21   37 1
    40   21   38 1
    41   22   39 1
    42   22   40 1
    43   22   41 1
    44   23   42 1
    45   23   43 1
    46   24   44 1
    47   24   45 1
    48   24   46 1
    49   25   47 1
    50   25   48 1
    51   25   49 1
@<TRIPOS>PROPERTY_DATA
  Total_Score	| 4.8472
  Crash		| -2.1889
  Polar		| 0.0000
  FragIndex	| 1
  FragRMSD	| 1.356

