@<TRIPOS>MOLECULE
BindingDB_24163
 40 42 0 0 0
SMALL
NO_CHARGES


@<TRIPOS>ATOM
1    C        19.7178   15.7622   28.0903  C     
2    C        20.2458   14.8534   29.0342  C     
3    S        21.9522   14.8326   28.8490  S     
4    O        17.7482   15.5096   27.1598  O     
5    N        19.6716   14.1447   30.0368  N     
6    O        17.6865   13.6960   29.1613  O     
7    C        22.0090   15.9420   27.5424  C     
8    C        23.2318   16.4606   26.9125  C     
9    C        22.9347   17.2363   25.6034  C     
10   C        21.6889   18.1479   25.7262  C     
11   C        20.4323   17.3537   26.1766  C     
12   C        20.6979   16.3607   27.2571  C     
13   C        18.4254   13.7051   30.1376  C     
14   C        18.3696   16.1017   28.0380  C     
15   C        17.9695   13.2118   31.3448  C     
16   C        18.6834   13.0663   32.5497  C     
17   C        17.9507   12.5292   33.6197  C     
18   C        16.6179   12.2460   33.3195  C     
19   S        16.3607   12.6847   31.6785  S     
20   N        17.7554   17.0009   28.8326  N     
21   C        18.5062   17.8445   29.7358  C     
22   C        16.3140   17.1486   28.7570  C     
23   H        20.2493   13.9669   30.7958  H     
24   H        23.7175   17.1317   27.6239  H     
25   H        23.9059   15.6308   26.7002  H     
26   H        23.8008   17.8534   25.3528  H     
27   H        22.7780   16.5228   24.7898  H     
28   H        21.9042   18.9423   26.4505  H     
29   H        21.4900   18.6132   24.7582  H     
30   H        19.6953   18.0852   26.5193  H     
31   H        20.0120   16.8181   25.3185  H     
32   H        19.6647   13.3290   32.6504  H     
33   H        18.3573   12.3587   34.5418  H     
34   H        15.9296   11.8560   33.9598  H     
35   H        18.9756   17.2447   30.5154  H     
36   H        17.8898   18.6001   30.2217  H     
37   H        19.2891   18.3799   29.1848  H     
38   H        16.0196   17.4612   27.7521  H     
39   H        15.9177   17.8889   29.4557  H     
40   H        15.8353   16.1911   28.9778  H     
@<TRIPOS>BOND
     1    1    2 2
     2    1   12 1
     3    1   14 1
     4    2    3 1
     5    2    5 1
     6    3    7 1
     7    4   14 2
     8    5   13 am
     9    6   13 2
    10    7    8 1
    11    7   12 2
    12    8    9 1
    13    9   10 1
    14   10   11 1
    15   11   12 1
    16   13   15 1
    17   14   20 am
    18   15   16 2
    19   15   19 1
    20   16   17 1
    21   17   18 2
    22   18   19 1
    23   20   21 1
    24   20   22 1
    25    5   23 1
    26    8   24 1
    27    8   25 1
    28    9   26 1
    29    9   27 1
    30   10   28 1
    31   10   29 1
    32   11   30 1
    33   11   31 1
    34   16   32 1
    35   17   33 1
    36   18   34 1
    37   21   35 1
    38   21   36 1
    39   21   37 1
    40   22   38 1
    41   22   39 1
    42   22   40 1
@<TRIPOS>PROPERTY_DATA
  Total_Score	| 2.8483
  Crash		| -1.8041
  Polar		| 0.0000
  FragIndex	| 1
  FragRMSD	| 1.301

