@<TRIPOS>MOLECULE
BindingDB_24174
 52 54 0 0 0
SMALL
NO_CHARGES


@<TRIPOS>ATOM
1    C        20.0084   15.5302   28.4864  C     
2    C        20.2485   14.3136   29.1591  C     
3    S        21.6563   13.6044   28.4852  S     
4    O        19.2962   17.4504   29.2191  O     
5    N        19.5428   13.6515   30.1049  N     
6    O        19.1972   15.3064   31.5432  O     
7    C        18.9700   14.1556   31.1855  C     
8    C        18.1742   13.3442   31.9678  C     
9    C        17.5375   12.1489   31.5877  C     
10   C        16.7503   11.5482   32.5828  C     
11   C        16.7358   12.2368   33.7972  C     
12   S        17.7145   13.6369   33.5999  S     
13   C        18.9379   16.3676   28.7745  C     
14   N        17.6317   16.1316   28.5231  N     
15   C        17.1712   14.9545   27.7972  C     
16   C        15.9271   14.2829   28.4234  C     
17   C        16.6310   17.1373   28.8688  C     
18   C        16.5337   17.3983   30.3893  C     
19   C        21.9535   14.8362   27.3316  C     
20   C        20.9618   15.8192   27.4757  C     
21   C        23.0250   14.8171   26.3249  C     
22   C        22.7399   15.8239   25.1810  C     
23   C        20.8921   16.9685   26.5301  C     
24   C        21.8426   18.0982   24.4468  C     
25   C        22.1917   17.2055   25.6778  C     
26   C        23.2721   17.9456   26.5276  C     
27   H        19.5111   12.6858   30.0127  H     
28   H        17.6106   11.7539   30.6531  H     
29   H        16.2369   10.6824   32.4338  H     
30   H        16.2312   11.9688   34.6442  H     
31   H        16.9286   15.2436   26.7706  H     
32   H        17.9342   14.1814   27.7116  H     
33   H        16.1019   14.0719   29.4768  H     
34   H        15.7170   13.3448   27.9087  H     
35   H        15.0498   14.9226   28.3305  H     
36   H        16.8516   18.0790   28.3545  H     
37   H        15.6325   16.8523   28.5247  H     
38   H        16.2257   16.4890   30.9053  H     
39   H        15.7880   18.1766   30.5800  H     
40   H        17.4919   17.7244   30.7954  H     
41   H        23.9734   15.0468   26.8134  H     
42   H        23.0952   13.8154   25.8962  H     
43   H        23.6467   15.9516   24.5896  H     
44   H        21.9910   15.3702   24.5301  H     
45   H        20.0449   16.7694   25.8685  H     
46   H        20.6610   17.8822   27.0808  H     
47   H        22.7345   18.3706   23.8851  H     
48   H        21.3547   19.0148   24.7688  H     
49   H        21.1662   17.5752   23.7742  H     
50   H        23.4790   17.4147   27.4582  H     
51   H        22.9427   18.9538   26.7879  H     
52   H        24.2038   18.0225   25.9664  H     
@<TRIPOS>BOND
     1    1    2 2
     2    1   13 1
     3    1   20 1
     4    2    3 1
     5    2    5 1
     6    3   19 1
     7    4   13 2
     8    5    7 am
     9    6    7 2
    10    7    8 1
    11    8    9 2
    12    8   12 1
    13    9   10 1
    14   10   11 2
    15   11   12 1
    16   13   14 am
    17   14   15 1
    18   14   17 1
    19   15   16 1
    20   17   18 1
    21   19   20 2
    22   19   21 1
    23   20   23 1
    24   21   22 1
    25   22   25 1
    26   23   25 1
    27   24   25 1
    28   25   26 1
    29    5   27 1
    30    9   28 1
    31   10   29 1
    32   11   30 1
    33   15   31 1
    34   15   32 1
    35   16   33 1
    36   16   34 1
    37   16   35 1
    38   17   36 1
    39   17   37 1
    40   18   38 1
    41   18   39 1
    42   18   40 1
    43   21   41 1
    44   21   42 1
    45   22   43 1
    46   22   44 1
    47   23   45 1
    48   23   46 1
    49   24   47 1
    50   24   48 1
    51   24   49 1
    52   26   50 1
    53   26   51 1
    54   26   52 1
@<TRIPOS>PROPERTY_DATA
  Total_Score	| 4.5020
  Crash		| -3.4697
  Polar		| 0.4744
  FragIndex	| 1
  FragRMSD	| 1.404

