@<TRIPOS>MOLECULE
BindingDB_24169
 49 51 0 0 0
SMALL
NO_CHARGES


@<TRIPOS>ATOM
1    C        19.7688   15.5478   28.1182  C     
2    C        20.0505   14.4688   28.9841  C     
3    S        21.7066   14.0481   28.7766  S     
4    O        18.0542   15.9575   26.8455  O     
5    N        19.2116   13.8776   29.8846  N     
6    O        20.6374   13.8556   31.5964  O     
7    C        22.0668   15.2446   27.6063  C     
8    C        23.4174   15.5007   27.0667  C     
9    C        23.4734   16.7041   26.0879  C     
10   C        22.4192   17.7909   26.4314  C     
11   C        20.9682   17.2063   26.4872  C     
12   C        20.9009   15.9979   27.3753  C     
13   C        19.5278   13.5948   31.1462  C     
14   C        18.5734   13.1398   32.0361  C     
15   C        18.6381   13.1928   33.4387  C     
16   C        17.5272   12.6636   34.1145  C     
17   C        16.5379   12.1594   33.2756  C     
18   S        17.0647   12.3998   31.6587  S     
19   C        18.4996   16.1098   27.9761  C     
20   N        17.7555   16.7468   28.9115  N     
21   C        16.5374   17.4708   28.5243  C     
22   C        16.2640   18.8312   29.2231  C     
23   C        18.0555   16.6566   30.3341  C     
24   C        16.8827   16.0178   31.1187  C     
25   C        20.4398   16.9089   25.0583  C     
26   H        18.2767   13.8067   29.6355  H     
27   H        24.0779   15.7013   27.9100  H     
28   H        23.7804   14.6014   26.5633  H     
29   H        24.4712   17.1490   26.1199  H     
30   H        23.3062   16.3487   25.0681  H     
31   H        22.6688   18.2168   27.4068  H     
32   H        22.4799   18.5996   25.6992  H     
33   H        20.3350   17.9890   26.9161  H     
34   H        19.4293   13.5967   33.9447  H     
35   H        17.4509   12.6470   35.1335  H     
36   H        15.6589   11.7383   33.5720  H     
37   H        16.5370   17.7005   27.4543  H     
38   H        15.6786   16.8182   28.6994  H     
39   H        15.9953   18.6931   30.2735  H     
40   H        15.4361   19.3431   28.7267  H     
41   H        17.1467   19.4682   29.1693  H     
42   H        18.9514   16.0757   30.5519  H     
43   H        18.2651   17.6478   30.7416  H     
44   H        16.0025   16.6607   31.0977  H     
45   H        17.1703   15.8525   32.1592  H     
46   H        16.6088   15.0634   30.6736  H     
47   H        20.6062   17.7716   24.4114  H     
48   H        19.3715   16.7052   25.0594  H     
49   H        20.9542   16.0472   24.6322  H     
@<TRIPOS>BOND
     1    1    2 2
     2    1   12 1
     3    1   19 1
     4    2    3 1
     5    2    5 1
     6    3    7 1
     7    4   19 2
     8    5   13 am
     9    6   13 2
    10    7    8 1
    11    7   12 2
    12    8    9 1
    13    9   10 1
    14   10   11 1
    15   11   12 1
    16   11   25 1
    17   13   14 1
    18   14   15 2
    19   14   18 1
    20   15   16 1
    21   16   17 2
    22   17   18 1
    23   19   20 am
    24   20   21 1
    25   20   23 1
    26   21   22 1
    27   23   24 1
    28    5   26 1
    29    8   27 1
    30    8   28 1
    31    9   29 1
    32    9   30 1
    33   10   31 1
    34   10   32 1
    35   11   33 1
    36   15   34 1
    37   16   35 1
    38   17   36 1
    39   21   37 1
    40   21   38 1
    41   22   39 1
    42   22   40 1
    43   22   41 1
    44   23   42 1
    45   23   43 1
    46   24   44 1
    47   24   45 1
    48   24   46 1
    49   25   47 1
    50   25   48 1
    51   25   49 1
@<TRIPOS>PROPERTY_DATA
  Total_Score	| 4.3544
  Crash		| -2.4159
  Polar		| 0.0003
  FragIndex	| 1
  FragRMSD	| 1.369

