@<TRIPOS>MOLECULE
BindingDB_24176
 52 54 0 0 0
SMALL
NO_CHARGES


@<TRIPOS>ATOM
1    C        19.6951   15.4881   28.3829  C     
2    C        20.1625   14.5198   29.3018  C     
3    S        21.8417   14.3004   29.0158  S     
4    O        17.8651   15.6502   27.2062  O     
5    N        19.5813   13.8745   30.3511  N     
6    O        17.5810   13.4042   29.5322  O     
7    C        18.3270   13.4790   30.4955  C     
8    C        17.8648   13.0674   31.7303  C     
9    C        16.6177   12.4934   32.0286  C     
10   C        16.4111   12.1886   33.3852  C     
11   C        17.4712   12.5289   34.2235  C     
12   S        18.6966   13.2107   33.2353  S     
13   C        18.3674   15.9054   28.2948  C     
14   N        17.6219   16.4711   29.2722  N     
15   C        18.2224   17.0557   30.4679  C     
16   C        18.6509   18.5287   30.2786  C     
17   C        16.1657   16.5277   29.1630  C     
18   C        15.6597   17.7094   28.3053  C     
19   C        21.9710   15.4144   27.7193  C     
20   C        20.7117   15.9951   27.5241  C     
21   C        23.1962   15.7970   27.0029  C     
22   C        20.5450   17.1501   26.5971  C     
23   C        21.8454   17.7204   25.9124  C     
24   C        23.1515   17.3099   26.6713  C     
25   C        21.9298   17.4178   24.3776  C     
26   C        22.3531   18.6398   23.5264  C     
27   H        20.1660   13.7131   31.1083  H     
28   H        15.9017   12.3121   31.3181  H     
29   H        15.5484   11.7735   33.7383  H     
30   H        17.5166   12.3983   35.2351  H     
31   H        17.5281   17.0383   31.3124  H     
32   H        19.0875   16.4824   30.7955  H     
33   H        19.4622   18.6022   29.5568  H     
34   H        19.0024   18.9411   31.2279  H     
35   H        17.8073   19.1277   29.9313  H     
36   H        15.7352   15.6150   28.7382  H     
37   H        15.7321   16.6068   30.1653  H     
38   H        15.7902   18.6497   28.8397  H     
39   H        14.5982   17.5831   28.0891  H     
40   H        16.2037   17.7544   27.3611  H     
41   H        24.0704   15.5750   27.6159  H     
42   H        23.2670   15.2054   26.0882  H     
43   H        19.7960   16.8764   25.8509  H     
44   H        20.1095   17.9604   27.1857  H     
45   H        21.7776   18.8085   26.0059  H     
46   H        23.2031   17.8674   27.6113  H     
47   H        24.0383   17.5758   26.0909  H     
48   H        22.6205   16.5912   24.1929  H     
49   H        20.9564   17.1039   24.0015  H     
50   H        21.5584   19.3830   23.5181  H     
51   H        22.5434   18.3316   22.4948  H     
52   H        23.2478   19.1091   23.9319  H     
@<TRIPOS>BOND
     1    1    2 2
     2    1   13 1
     3    1   20 1
     4    2    3 1
     5    2    5 1
     6    3   19 1
     7    4   13 2
     8    5    7 am
     9    6    7 2
    10    7    8 1
    11    8    9 2
    12    8   12 1
    13    9   10 1
    14   10   11 2
    15   11   12 1
    16   13   14 am
    17   14   15 1
    18   14   17 1
    19   15   16 1
    20   17   18 1
    21   19   20 2
    22   19   21 1
    23   20   22 1
    24   21   24 1
    25   22   23 1
    26   23   24 1
    27   23   25 1
    28   25   26 1
    29    5   27 1
    30    9   28 1
    31   10   29 1
    32   11   30 1
    33   15   31 1
    34   15   32 1
    35   16   33 1
    36   16   34 1
    37   16   35 1
    38   17   36 1
    39   17   37 1
    40   18   38 1
    41   18   39 1
    42   18   40 1
    43   21   41 1
    44   21   42 1
    45   22   43 1
    46   22   44 1
    47   23   45 1
    48   24   46 1
    49   24   47 1
    50   25   48 1
    51   25   49 1
    52   26   50 1
    53   26   51 1
    54   26   52 1
@<TRIPOS>PROPERTY_DATA
  Total_Score	| 4.0087
  Crash		| -4.0282
  Polar		| 0.0000
  FragIndex	| 1
  FragRMSD	| 1.210

