@<TRIPOS>MOLECULE
BindingDB_24153
 49 51 0 0 0
SMALL
NO_CHARGES


@<TRIPOS>ATOM
1    C        19.7155   15.4371   28.1453  C     
2    C        20.2539   14.6602   29.1951  C     
3    S        21.9226   14.4394   28.8803  S     
4    O        17.7915   15.4311   27.1024  O     
5    N        19.7121   14.1829   30.3472  N     
6    C        18.3725   15.8160   28.1117  C     
7    N        17.6933   16.5100   29.0557  N     
8    C        16.2542   16.7333   28.9104  C     
9    C        15.4163   15.4317   28.9587  C     
10   C        18.3351   17.1174   30.2171  C     
11   C        18.4181   18.6592   30.1314  C     
12   C        18.5505   13.5668   30.4989  C     
13   O        17.9115   13.1974   29.5247  O     
14   C        18.0727   13.2511   31.7548  C     
15   C        18.5388   13.6970   33.0011  C     
16   C        17.8160   13.2272   34.1123  C     
17   C        16.7501   12.3860   33.7959  C     
18   S        16.7137   12.2446   32.0860  S     
19   C        20.6659   15.7751   27.1340  C     
20   C        21.9628   15.2891   27.3905  C     
21   C        23.1933   15.4602   26.5918  C     
22   C        23.5749   16.9490   26.3950  C     
23   C        22.6867   17.6989   25.3688  C     
24   C        21.2108   17.8922   25.7994  C     
25   C        20.3862   16.5815   25.9085  C     
26   H        20.2648   14.2645   31.1407  H     
27   H        15.8571   17.3732   29.7047  H     
28   H        16.0546   17.2606   27.9716  H     
29   H        15.6695   14.7658   28.1333  H     
30   H        14.3540   15.6733   28.8877  H     
31   H        15.5913   14.9081   29.9010  H     
32   H        17.7863   16.8376   31.1227  H     
33   H        19.3579   16.7765   30.3745  H     
34   H        19.0112   18.9527   29.2615  H     
35   H        18.9030   19.0484   31.0295  H     
36   H        17.4274   19.1121   30.0539  H     
37   H        19.3363   14.3277   33.1065  H     
38   H        18.0500   13.4821   35.0734  H     
39   H        16.1048   11.9433   34.4522  H     
40   H        24.0210   14.9578   27.0994  H     
41   H        23.0621   14.9724   25.6226  H     
42   H        23.5542   17.4709   27.3569  H     
43   H        24.6043   16.9866   26.0316  H     
44   H        23.1252   18.6863   25.2039  H     
45   H        22.7118   17.1714   24.4119  H     
46   H        21.1674   18.4379   26.7453  H     
47   H        20.7366   18.5208   25.0408  H     
48   H        20.5755   15.9565   25.0332  H     
49   H        19.3363   16.8708   25.8632  H     
@<TRIPOS>BOND
     1    1    2 2
     2    1    6 1
     3    1   19 1
     4    2    3 1
     5    2    5 1
     6    3   20 1
     7    4    6 2
     8    5   12 am
     9    6    7 am
    10    7    8 1
    11    7   10 1
    12    8    9 1
    13   10   11 1
    14   12   13 2
    15   12   14 1
    16   14   15 2
    17   14   18 1
    18   15   16 1
    19   16   17 2
    20   17   18 1
    21   19   20 2
    22   19   25 1
    23   20   21 1
    24   21   22 1
    25   22   23 1
    26   23   24 1
    27   24   25 1
    28    5   26 1
    29    8   27 1
    30    8   28 1
    31    9   29 1
    32    9   30 1
    33    9   31 1
    34   10   32 1
    35   10   33 1
    36   11   34 1
    37   11   35 1
    38   11   36 1
    39   15   37 1
    40   16   38 1
    41   17   39 1
    42   21   40 1
    43   21   41 1
    44   22   42 1
    45   22   43 1
    46   23   44 1
    47   23   45 1
    48   24   46 1
    49   24   47 1
    50   25   48 1
    51   25   49 1
@<TRIPOS>PROPERTY_DATA
  Total_Score	| 4.8068
  Crash		| -1.4495
  Polar		| 0.0000
  FragIndex	| 1
  FragRMSD	| 1.314

