@<TRIPOS>MOLECULE
BindingDB_24171
 49 51 0 0 0
SMALL
NO_CHARGES


@<TRIPOS>ATOM
1    C        19.4511   15.6596   28.0673  C     
2    C        19.9095   14.7733   29.0537  C     
3    S        21.6335   14.7926   28.9835  S     
4    O        17.6819   15.4832   26.7767  O     
5    N        19.1142   14.1104   29.9361  N     
6    O        20.6055   13.6819   31.5489  O     
7    C        21.7713   15.9260   27.7072  C     
8    C        23.0298   16.4805   27.1699  C     
9    C        22.8242   17.1246   25.7671  C     
10   C        21.5556   18.0317   25.7800  C     
11   C        20.2664   17.2774   26.2159  C     
12   C        20.4748   16.2948   27.3213  C     
13   C        19.4463   13.6413   31.1357  C     
14   C        18.4759   13.1618   31.9804  C     
15   C        18.6173   12.7441   33.3248  C     
16   C        17.4486   12.3257   33.9594  C     
17   C        16.3058   12.4018   33.1540  C     
18   S        16.7878   13.0129   31.6177  S     
19   C        18.0972   15.8985   27.8619  C     
20   N        17.2565   16.5007   28.7346  N     
21   C        17.6994   17.0430   30.0195  C     
22   C        18.2312   18.4865   29.9116  C     
23   C        15.8386   16.6206   28.4124  C     
24   C        15.4849   17.8496   27.5404  C     
25   C        22.7613   16.0432   24.6531  C     
26   H        18.1743   14.0721   29.7134  H     
27   H        23.3750   17.2432   27.8655  H     
28   H        23.7940   15.6972   27.1224  H     
29   H        23.6918   17.7584   25.5593  H     
30   H        21.7365   18.8592   26.4779  H     
31   H        21.4021   18.4783   24.7914  H     
32   H        19.5297   18.0208   26.5273  H     
33   H        19.8520   16.7444   25.3598  H     
34   H        19.5153   12.7777   33.8162  H     
35   H        17.4135   12.0255   34.9395  H     
36   H        15.3627   12.1507   33.4385  H     
37   H        16.8851   17.0190   30.7520  H     
38   H        18.4963   16.4572   30.4789  H     
39   H        19.1219   18.5072   29.2818  H     
40   H        18.5104   18.8634   30.9000  H     
41   H        17.4779   19.1517   29.4819  H     
42   H        15.5133   15.7112   27.8899  H     
43   H        15.2143   16.6937   29.3135  H     
44   H        15.7734   18.7682   28.0574  H     
45   H        14.4084   17.8751   27.3460  H     
46   H        16.0179   17.8054   26.5804  H     
47   H        23.7110   15.5064   24.5920  H     
48   H        22.5715   16.5208   23.6900  H     
49   H        21.9647   15.3206   24.8450  H     
@<TRIPOS>BOND
     1    1    2 2
     2    1   12 1
     3    1   19 1
     4    2    3 1
     5    2    5 1
     6    3    7 1
     7    4   19 2
     8    5   13 am
     9    6   13 2
    10    7    8 1
    11    7   12 2
    12    8    9 1
    13    9   10 1
    14    9   25 1
    15   10   11 1
    16   11   12 1
    17   13   14 1
    18   14   15 2
    19   14   18 1
    20   15   16 1
    21   16   17 2
    22   17   18 1
    23   19   20 am
    24   20   21 1
    25   20   23 1
    26   21   22 1
    27   23   24 1
    28    5   26 1
    29    8   27 1
    30    8   28 1
    31    9   29 1
    32   10   30 1
    33   10   31 1
    34   11   32 1
    35   11   33 1
    36   15   34 1
    37   16   35 1
    38   17   36 1
    39   21   37 1
    40   21   38 1
    41   22   39 1
    42   22   40 1
    43   22   41 1
    44   23   42 1
    45   23   43 1
    46   24   44 1
    47   24   45 1
    48   24   46 1
    49   25   47 1
    50   25   48 1
    51   25   49 1
@<TRIPOS>PROPERTY_DATA
  Total_Score	| 3.1551
  Crash		| -3.3149
  Polar		| 0.0000
  FragIndex	| 1
  FragRMSD	| 1.126

