@<TRIPOS>MOLECULE
BindingDB_24175
 52 54 0 0 0
SMALL
NO_CHARGES


@<TRIPOS>ATOM
1    C        19.0367   15.2692   28.1376  C     
2    C        19.5598   14.4494   29.1558  C     
3    S        21.2755   14.5026   29.0148  S     
4    O        17.0937   14.8110   27.2844  O     
5    N        18.8308   13.8483   30.1371  N     
6    O        20.3861   13.7346   31.7335  O     
7    C        19.2392   13.5309   31.3582  C     
8    C        18.3356   13.0373   32.2764  C     
9    C        18.5362   12.8755   33.6597  C     
10   C        17.4469   12.3466   34.3673  C     
11   C        16.3373   12.0606   33.5760  C     
12   S        16.7314   12.4993   31.9597  S     
13   C        17.6895   15.5627   28.0532  C     
14   N        17.0509   16.5547   28.7155  N     
15   C        15.5952   16.6558   28.5353  C     
16   C        14.7933   17.8448   29.1354  C     
17   C        17.6896   17.5457   29.5889  C     
18   C        19.2120   17.6790   29.8206  C     
19   C        21.3300   15.5521   27.6588  C     
20   C        20.0117   15.8427   27.2799  C     
21   C        22.5363   16.2409   27.1820  C     
22   C        19.7300   16.7563   26.1427  C     
23   C        20.8952   17.7441   25.8708  C     
24   C        23.3800   18.1933   25.7923  C     
25   C        22.3133   17.0669   25.8690  C     
26   C        22.4681   16.1269   24.6344  C     
27   H        17.8814   13.7487   29.9611  H     
28   H        19.4106   13.1236   34.1293  H     
29   H        17.4632   12.1836   35.3749  H     
30   H        15.4517   11.6779   33.9045  H     
31   H        15.3949   16.6691   27.4602  H     
32   H        15.1374   15.7494   28.9451  H     
33   H        14.9342   17.9062   30.2131  H     
34   H        13.7288   17.7061   28.9478  H     
35   H        15.0974   18.7860   28.6763  H     
36   H        17.3955   18.5355   29.2204  H     
37   H        17.2637   17.4189   30.5890  H     
38   H        19.6277   16.7823   30.2917  H     
39   H        19.4106   18.5305   30.4822  H     
40   H        19.7249   17.8774   28.8791  H     
41   H        22.8388   16.9087   27.9918  H     
42   H        23.3373   15.5099   27.0510  H     
43   H        19.5381   16.1471   25.2575  H     
44   H        18.8289   17.3407   26.3420  H     
45   H        20.7092   18.2517   24.9219  H     
46   H        20.8671   18.5052   26.6541  H     
47   H        23.2574   18.8862   26.6276  H     
48   H        23.2800   18.7603   24.8637  H     
49   H        24.3885   17.7753   25.8488  H     
50   H        23.4859   15.7298   24.5689  H     
51   H        22.2491   16.6683   23.7117  H     
52   H        21.7860   15.2773   24.7082  H     
@<TRIPOS>BOND
     1    1    2 2
     2    1   13 1
     3    1   20 1
     4    2    3 1
     5    2    5 1
     6    3   19 1
     7    4   13 2
     8    5    7 am
     9    6    7 2
    10    7    8 1
    11    8    9 2
    12    8   12 1
    13    9   10 1
    14   10   11 2
    15   11   12 1
    16   13   14 am
    17   14   15 1
    18   14   17 1
    19   15   16 1
    20   17   18 1
    21   19   20 2
    22   19   21 1
    23   20   22 1
    24   21   25 1
    25   22   23 1
    26   23   25 1
    27   24   25 1
    28   25   26 1
    29    5   27 1
    30    9   28 1
    31   10   29 1
    32   11   30 1
    33   15   31 1
    34   15   32 1
    35   16   33 1
    36   16   34 1
    37   16   35 1
    38   17   36 1
    39   17   37 1
    40   18   38 1
    41   18   39 1
    42   18   40 1
    43   21   41 1
    44   21   42 1
    45   22   43 1
    46   22   44 1
    47   23   45 1
    48   23   46 1
    49   24   47 1
    50   24   48 1
    51   24   49 1
    52   26   50 1
    53   26   51 1
    54   26   52 1
@<TRIPOS>PROPERTY_DATA
  Total_Score	| 5.2889
  Crash		| -2.5927
  Polar		| 0.0008
  FragIndex	| 1
  FragRMSD	| 1.384

