@<TRIPOS>MOLECULE
BindingDB_24152
 46 48 0 0 0
SMALL
NO_CHARGES


@<TRIPOS>ATOM
1    C        19.6197   15.9716   27.5978  C     
2    C        19.9408   14.9666   28.5317  C     
3    S        21.6479   14.7703   28.5396  S     
4    O        17.9824   16.1617   26.1741  O     
5    N        19.0204   14.3106   29.2927  N     
6    C        18.3097   16.3727   27.3334  C     
7    N        17.4347   16.8983   28.2190  N     
8    C        17.7711   17.1364   29.6178  C     
9    C        18.1553   18.5982   29.9323  C     
10   C        16.0758   17.2656   27.7943  C     
11   C        14.9913   16.2624   28.2486  C     
12   C        19.1958   13.5812   30.3741  C     
13   O        20.3111   13.3078   30.8008  O     
14   C        18.0926   13.1864   31.1043  C     
15   C        16.7506   13.5130   30.8746  C     
16   C        15.8442   13.0166   31.8224  C     
17   C        16.4299   12.2471   32.8325  C     
18   S        18.1151   12.2267   32.5338  S     
19   C        21.9712   15.9524   27.3415  C     
20   C        20.7482   16.4838   26.9054  C     
21   C        23.3073   16.3513   26.8574  C     
22   C        23.2604   17.6917   26.0804  C     
23   C        22.0589   17.7266   25.0998  C     
24   C        20.7105   17.5406   25.8549  C     
25   H        18.0928   14.4998   29.0558  H     
26   H        16.9237   16.8658   30.2415  H     
27   H        18.5963   16.5459   29.9937  H     
28   H        19.0311   18.8866   29.3444  H     
29   H        18.4036   18.6856   30.9983  H     
30   H        17.3354   19.2872   29.7178  H     
31   H        15.8001   18.2534   28.1650  H     
32   H        15.9922   17.3561   26.7053  H     
33   H        15.2597   15.2497   27.9356  H     
34   H        14.0327   16.5293   27.7935  H     
35   H        14.8606   16.2760   29.3311  H     
36   H        16.4328   14.0918   30.0899  H     
37   H        14.8518   13.2255   31.7805  H     
38   H        15.9549   11.8133   33.6179  H     
39   H        23.9796   16.4555   27.7035  H     
40   H        23.6824   15.5637   26.2071  H     
41   H        23.1681   18.5310   26.7826  H     
42   H        24.1925   17.8240   25.5268  H     
43   H        22.0470   18.6736   24.5540  H     
44   H        22.1848   16.9194   24.3689  H     
45   H        19.9485   17.2997   25.1161  H     
46   H        20.4378   18.4768   26.3438  H     
@<TRIPOS>BOND
     1    1    2 2
     2    1    6 1
     3    1   20 1
     4    2    3 1
     5    2    5 1
     6    3   19 1
     7    4    6 2
     8    5   12 am
     9    6    7 am
    10    7    8 1
    11    7   10 1
    12    8    9 1
    13   10   11 1
    14   12   13 2
    15   12   14 1
    16   14   15 2
    17   14   18 1
    18   15   16 1
    19   16   17 2
    20   17   18 1
    21   19   20 2
    22   19   21 1
    23   20   24 1
    24   21   22 1
    25   22   23 1
    26   23   24 1
    27    5   25 1
    28    8   26 1
    29    8   27 1
    30    9   28 1
    31    9   29 1
    32    9   30 1
    33   10   31 1
    34   10   32 1
    35   11   33 1
    36   11   34 1
    37   11   35 1
    38   15   36 1
    39   16   37 1
    40   17   38 1
    41   21   39 1
    42   21   40 1
    43   22   41 1
    44   22   42 1
    45   23   43 1
    46   23   44 1
    47   24   45 1
    48   24   46 1
@<TRIPOS>PROPERTY_DATA
  Total_Score	| 3.3678
  Crash		| -2.7206
  Polar		| 0.0107
  FragIndex	| 1
  FragRMSD	| 0.426

