@<TRIPOS>MOLECULE
BindingDB_24168
 52 54 0 0 0
SMALL
NO_CHARGES


@<TRIPOS>ATOM
1    C        19.5276   15.7109   27.2368  C     
2    C        19.8557   14.7387   28.2021  C     
3    S        21.5710   14.6066   28.2422  S     
4    O        17.9129   15.9670   25.7879  O     
5    N        18.9569   14.0847   28.9791  N     
6    O        20.2870   13.2977   30.5873  O     
7    C        21.8924   15.7835   27.0400  C     
8    C        23.2247   16.2815   26.6378  C     
9    C        23.1418   17.7090   26.0342  C     
10   C        22.0003   17.7833   24.9901  C     
11   C        20.6213   17.4074   25.6106  C     
12   C        20.6623   16.2797   26.5859  C     
13   C        19.1571   13.4814   30.1414  C     
14   C        18.2284   16.1427   26.9585  C     
15   C        18.0796   13.1518   30.9391  C     
16   C        16.7191   13.3999   30.6926  C     
17   C        15.8465   13.0098   31.7179  C     
18   C        16.4669   12.4161   32.8193  C     
19   S        18.1532   12.4251   32.5005  S     
20   C        17.6385   17.0070   29.2055  C     
21   C        18.9602   17.7695   29.5034  C     
22   C        18.4002   18.5438   31.8093  C     
23   N        17.3570   16.7525   27.7976  N     
24   C        16.0576   17.1582   27.2701  C     
25   N        19.3599   17.8132   30.9451  N     
26   C        19.7661   16.5040   31.5331  C     
27   H        18.0293   14.2069   28.7209  H     
28   H        23.8778   16.2977   27.5095  H     
29   H        23.6519   15.5951   25.9046  H     
30   H        22.9550   18.4360   26.8290  H     
31   H        24.0936   17.9711   25.5666  H     
32   H        21.9503   18.7895   24.5685  H     
33   H        22.2265   17.0914   24.1743  H     
34   H        20.2290   18.2849   26.1297  H     
35   H        19.9400   17.1639   24.7932  H     
36   H        16.3713   13.8443   29.8369  H     
37   H        14.8408   13.1607   31.6593  H     
38   H        16.0099   12.0629   33.6643  H     
39   H        17.6316   16.0633   29.7363  H     
40   H        16.8413   17.5863   29.6763  H     
41   H        19.7957   17.3304   28.9661  H     
42   H        18.8674   18.7839   29.1098  H     
43   H        18.2036   19.5280   31.3795  H     
44   H        18.8333   18.6982   32.8037  H     
45   H        17.4497   18.0059   31.8942  H     
46   H        16.1892   17.8714   26.4500  H     
47   H        15.4052   17.6337   28.0023  H     
48   H        15.5192   16.2858   26.8912  H     
49   H        20.1968   18.3952   30.9590  H     
50   H        18.8926   15.9039   31.8181  H     
51   H        20.3641   16.6892   32.4299  H     
52   H        20.3751   15.9165   30.8358  H     
@<TRIPOS>BOND
     1    1    2 2
     2    1   12 1
     3    1   14 1
     4    2    3 1
     5    2    5 1
     6    3    7 1
     7    4   14 2
     8    5   13 am
     9    6   13 2
    10    7    8 1
    11    7   12 2
    12    8    9 1
    13    9   10 1
    14   10   11 1
    15   11   12 1
    16   13   15 1
    17   14   23 am
    18   15   16 2
    19   15   19 1
    20   16   17 1
    21   17   18 2
    22   18   19 1
    23   20   21 1
    24   20   23 1
    25   21   25 1
    26   22   25 1
    27   23   24 1
    28   25   26 1
    29    5   27 1
    30    8   28 1
    31    8   29 1
    32    9   30 1
    33    9   31 1
    34   10   32 1
    35   10   33 1
    36   11   34 1
    37   11   35 1
    38   16   36 1
    39   17   37 1
    40   18   38 1
    41   20   39 1
    42   20   40 1
    43   21   41 1
    44   21   42 1
    45   22   43 1
    46   22   44 1
    47   22   45 1
    48   24   46 1
    49   24   47 1
    50   24   48 1
    51   25   49 1
    52   26   50 1
    53   26   51 1
    54   26   52 1
@<TRIPOS>PROPERTY_DATA
  Total_Score	| 3.5457
  Crash		| -4.3788
  Polar		| 0.0050
  FragIndex	| 1
  FragRMSD	| 0.653

