@<TRIPOS>MOLECULE
BindingDB_24167
 49 51 0 0 0
SMALL
NO_CHARGES


@<TRIPOS>ATOM
1    C        19.7459   15.5567   28.0637  C     
2    C        20.3303   14.7773   29.0944  C     
3    S        22.0278   14.7906   28.8657  S     
4    O        17.8558   15.8785   26.8799  O     
5    N        19.8343   14.1598   30.2053  N     
6    O        17.9937   13.2848   29.3637  O     
7    C        22.0371   15.7815   27.4686  C     
8    C        23.2494   16.3009   26.8062  C     
9    C        22.9367   17.1270   25.5278  C     
10   C        21.6515   17.9788   25.6849  C     
11   C        20.4270   17.0998   26.0770  C     
12   C        20.7073   16.1305   27.1787  C     
13   C        18.6751   13.5336   30.3455  C     
14   C        18.3845   15.8350   27.9831  C     
15   C        18.2181   13.1426   31.5869  C     
16   C        18.8011   13.3674   32.8447  C     
17   C        18.0762   12.8613   33.9388  C     
18   C        16.8719   12.2463   33.5977  C     
19   S        16.7281   12.3250   31.8889  S     
20   C        16.2921   16.4360   29.1330  C     
21   C        15.4131   19.3380   30.8150  C     
22   C        16.0353   17.9389   28.8302  C     
23   N        17.6721   16.0819   29.0765  N     
24   N        16.4867   18.9352   29.8577  N     
25   C        17.7525   18.5769   30.5574  C     
26   H        20.4096   14.1712   30.9832  H     
27   H        23.7690   16.9454   27.5202  H     
28   H        23.9061   15.4682   26.5471  H     
29   H        23.7809   17.7926   25.3173  H     
30   H        22.8098   16.4495   24.6763  H     
31   H        21.8184   18.7313   26.4643  H     
32   H        21.4370   18.4994   24.7472  H     
33   H        19.6184   17.7796   26.3654  H     
34   H        20.0958   16.5276   25.2027  H     
35   H        19.6931   13.8527   32.9703  H     
36   H        18.4015   12.9383   34.9035  H     
37   H        16.2024   11.8316   34.2457  H     
38   H        15.9260   16.1908   30.1332  H     
39   H        15.7333   15.8123   28.4337  H     
40   H        14.5635   19.7622   30.2680  H     
41   H        15.7758   20.1147   31.4968  H     
42   H        15.0562   18.4937   31.4113  H     
43   H        16.5039   18.1905   27.8772  H     
44   H        14.9607   18.0623   28.6723  H     
45   H        18.1328   16.0217   29.9281  H     
46   H        16.7030   19.7843   29.3308  H     
47   H        18.1056   19.4382   31.1230  H     
48   H        18.5307   18.3092   29.8407  H     
49   H        17.6085   17.7500   31.2538  H     
@<TRIPOS>BOND
     1    1    2 2
     2    1   12 1
     3    1   14 1
     4    2    3 1
     5    2    5 1
     6    3    7 1
     7    4   14 2
     8    5   13 am
     9    6   13 2
    10    7    8 1
    11    7   12 2
    12    8    9 1
    13    9   10 1
    14   10   11 1
    15   11   12 1
    16   13   15 1
    17   14   23 am
    18   15   16 2
    19   15   19 1
    20   16   17 1
    21   17   18 2
    22   18   19 1
    23   20   22 1
    24   20   23 1
    25   21   24 1
    26   22   24 1
    27   24   25 1
    28    5   26 1
    29    8   27 1
    30    8   28 1
    31    9   29 1
    32    9   30 1
    33   10   31 1
    34   10   32 1
    35   11   33 1
    36   11   34 1
    37   16   35 1
    38   17   36 1
    39   18   37 1
    40   20   38 1
    41   20   39 1
    42   21   40 1
    43   21   41 1
    44   21   42 1
    45   22   43 1
    46   22   44 1
    47   23   45 1
    48   24   46 1
    49   25   47 1
    50   25   48 1
    51   25   49 1
@<TRIPOS>PROPERTY_DATA
  Total_Score	| 2.8752
  Crash		| -1.8619
  Polar		| 0.0000
  FragIndex	| 1
  FragRMSD	| 1.343

