@<TRIPOS>MOLECULE
BindingDB_24177
 52 54 0 0 0
SMALL
NO_CHARGES


@<TRIPOS>ATOM
1    C        19.1896   15.2403   28.7398  C     
2    C        19.9648   14.5935   29.7327  C     
3    S        21.6187   14.9173   29.3979  S     
4    O        17.2588   14.7255   27.8369  O     
5    N        19.5700   13.9154   30.8468  N     
6    O        17.8919   12.8083   29.9387  O     
7    C        18.4884   13.1592   30.9541  C     
8    C        17.9698   12.8326   32.1949  C     
9    C        16.7732   12.1340   32.4624  C     
10   C        16.4600   11.9923   33.8240  C     
11   C        17.4067   12.5567   34.6929  C     
12   S        18.6369   13.2661   33.7302  S     
13   C        17.7948   15.3178   28.7686  C     
14   N        17.0408   15.9794   29.6767  N     
15   C        17.6221   16.8853   30.6712  C     
16   C        17.6432   18.3575   30.2002  C     
17   C        15.5818   15.9816   29.5481  C     
18   C        14.9428   14.5779   29.6899  C     
19   C        21.3534   15.8225   27.9654  C     
20   C        19.9721   15.8334   27.7161  C     
21   C        22.3900   16.4769   27.1459  C     
22   C        19.4476   16.4382   26.4690  C     
23   C        20.5444   16.7144   25.4051  C     
24   C        21.7841   17.4093   26.0414  C     
25   C        22.8707   17.7833   24.9994  C     
26   C        22.4050   18.6836   23.8178  C     
27   H        20.1055   14.0338   31.6440  H     
28   H        16.1536   11.7680   31.7355  H     
29   H        15.6152   11.5216   34.1610  H     
30   H        17.3627   12.5846   35.7175  H     
31   H        17.0620   16.8179   31.6060  H     
32   H        18.6439   16.6270   30.9455  H     
33   H        18.3038   18.4712   29.3448  H     
34   H        18.0290   18.9990   30.9984  H     
35   H        16.6411   18.6846   29.9212  H     
36   H        15.1074   16.5993   30.3139  H     
37   H        15.2915   16.4338   28.5931  H     
38   H        15.3174   13.8924   28.9221  H     
39   H        13.8523   14.6432   29.5963  H     
40   H        15.1513   14.1678   30.6776  H     
41   H        23.0189   17.0669   27.8159  H     
42   H        23.0105   15.6961   26.6944  H     
43   H        18.7195   15.7639   26.0118  H     
44   H        18.9478   17.3720   26.7282  H     
45   H        20.8699   15.7729   24.9483  H     
46   H        20.0967   17.3351   24.6300  H     
47   H        21.4495   18.3429   26.5080  H     
48   H        23.6635   18.3132   25.5357  H     
49   H        23.2909   16.8524   24.6053  H     
50   H        22.4713   18.1397   22.8741  H     
51   H        23.0373   19.5701   23.7450  H     
52   H        21.3775   19.0155   23.9346  H     
@<TRIPOS>BOND
     1    1    2 2
     2    1   13 1
     3    1   20 1
     4    2    3 1
     5    2    5 1
     6    3   19 1
     7    4   13 2
     8    5    7 am
     9    6    7 2
    10    7    8 1
    11    8    9 2
    12    8   12 1
    13    9   10 1
    14   10   11 2
    15   11   12 1
    16   13   14 am
    17   14   15 1
    18   14   17 1
    19   15   16 1
    20   17   18 1
    21   19   20 2
    22   19   21 1
    23   20   22 1
    24   21   24 1
    25   22   23 1
    26   23   24 1
    27   24   25 1
    28   25   26 1
    29    5   27 1
    30    9   28 1
    31   10   29 1
    32   11   30 1
    33   15   31 1
    34   15   32 1
    35   16   33 1
    36   16   34 1
    37   16   35 1
    38   17   36 1
    39   17   37 1
    40   18   38 1
    41   18   39 1
    42   18   40 1
    43   21   41 1
    44   21   42 1
    45   22   43 1
    46   22   44 1
    47   23   45 1
    48   23   46 1
    49   24   47 1
    50   25   48 1
    51   25   49 1
    52   26   50 1
    53   26   51 1
    54   26   52 1
@<TRIPOS>PROPERTY_DATA
  Total_Score	| 4.3069
  Crash		| -3.8236
  Polar		| 0.0000
  FragIndex	| 1
  FragRMSD	| 1.493

