@<TRIPOS>MOLECULE
BindingDB_6695
 45 48 0 0 0
SMALL
NO_CHARGES


@<TRIPOS>ATOM
1    C         9.4053   -6.2740   26.7580  C     
2    C        10.4325   -5.3239   26.7823  C     
3    C        11.4208   -5.3483   25.7893  C     
4    C        10.3593   -7.3008   24.7353  C     
5    C         9.3604   -7.2454   25.7404  C     
6    C        11.4149   -6.3464   24.7801  C     
7    C        10.2989   -8.3238   23.7672  C     
8    C        11.3515   -9.1818   23.5437  C     
9    C        12.6939  -10.4183   21.9997  C     
10   C        11.6492   -9.5938   22.2529  C     
11   C        12.1516   -9.5767   24.5513  C     
12   C        13.4906  -10.8036   23.0705  C     
13   C        14.1948  -10.8568   25.1546  C     
14   C        15.0417  -11.6192   24.3206  C     
15   N        14.6001  -11.5557   23.0550  N     
16   N        13.2227  -10.3954   24.3352  N     
17   N        16.1553  -12.2934   24.6411  N     
18   C        14.3815  -10.6630   26.5425  C     
19   C        13.8524   -9.5737   27.2281  C     
20   C        12.8402   -9.7617   28.2039  C     
21   C        14.3231   -8.2661   26.9762  C     
22   C        13.7159   -7.1594   27.6064  C     
23   C        12.6433   -7.3492   28.4927  C     
24   C        12.2136   -8.6507   28.7998  C     
25   F        15.3216   -8.0561   26.1571  F     
26   F        12.4416  -10.9559   28.5421  F     
27   O        15.1616  -11.3492   27.1859  O     
28   O         9.1982   -8.7048   23.3972  O     
29   O        12.3426   -6.2453   23.7732  O     
30   C        13.7165   -6.4625   24.1831  C     
31   H         8.6971   -6.2752   27.4945  H     
32   H        10.4584   -4.6119   27.5143  H     
33   H        12.1476   -4.6381   25.7949  H     
34   H         8.6045   -7.9382   25.7623  H     
35   H        12.8727  -10.7427   21.0785  H     
36   H        11.0835   -9.3020   21.4892  H     
37   H        11.9095   -9.3519   25.4841  H     
38   H        16.6591  -12.7490   23.9479  H     
39   H        16.4843  -12.2903   25.5511  H     
40   H        14.0455   -6.2143   27.4121  H     
41   H        12.1926   -6.5429   28.9365  H     
42   H        11.4433   -8.7872   29.4586  H     
43   H        14.0138   -5.8077   25.0410  H     
44   H        14.3728   -6.1711   23.3344  H     
45   H        13.8581   -7.5333   24.4331  H     
@<TRIPOS>BOND
     1    1    2 2
     2    1    5 1
     3    2    3 1
     4    3    6 2
     5    4    5 2
     6    4    6 1
     7    4    7 1
     8    6   29 1
     9    7    8 1
    10    7   28 2
    11    8   10 1
    12    8   11 2
    13    9   10 2
    14    9   12 1
    15   11   16 1
    16   12   15 2
    17   12   16 1
    18   13   14 2
    19   13   16 1
    20   13   18 1
    21   14   15 1
    22   14   17 1
    23   18   19 1
    24   18   27 2
    25   19   20 1
    26   19   21 2
    27   20   24 2
    28   20   26 1
    29   21   22 1
    30   21   25 1
    31   22   23 2
    32   23   24 1
    33   29   30 1
    34    1   31 1
    35    2   32 1
    36    3   33 1
    37    5   34 1
    38    9   35 1
    39   10   36 1
    40   11   37 1
    41   17   38 1
    42   17   39 1
    43   22   40 1
    44   23   41 1
    45   24   42 1
    46   30   43 1
    47   30   44 1
    48   30   45 1
@<TRIPOS>PROPERTY_DATA
  Total_Score	| 5.5974
  Crash		| -2.3838
  Polar		| 1.3583
  FragIndex	| 1
  FragRMSD	| 0.336

