@<TRIPOS>MOLECULE
BindingDB_6681
 41 44 0 0 0
SMALL
NO_CHARGES


@<TRIPOS>ATOM
1    C        11.8341   -5.3658   25.3814  C     
2    C        10.8395   -5.1059   26.3358  C     
3    C         9.7181   -5.9458   26.4229  C     
4    C        10.5842   -7.3352   24.5842  C     
5    C        11.7117   -6.4670   24.5123  C     
6    C         9.5873   -7.0486   25.5570  C     
7    C        10.4876   -8.4738   23.7644  C     
8    O         9.3907   -8.8226   23.3400  O     
9    C        11.5368   -9.3250   23.5479  C     
10   C        12.9051  -10.5837   22.0464  C     
11   C        11.8535   -9.7691   22.2735  C     
12   C        12.3095   -9.7355   24.5862  C     
13   C        13.6921  -10.9464   23.1290  C     
14   C        14.3594  -10.9588   25.2189  C     
15   C        15.2087  -11.7416   24.4227  C     
16   N        14.7860  -11.7162   23.1477  N     
17   N        13.4066  -10.4955   24.3734  N     
18   N        16.3238  -12.3937   24.7926  N     
19   F        12.6694   -6.6426   23.6371  F     
20   F         8.5484   -7.8252   25.7331  F     
21   C        14.5127  -10.6829   26.5836  C     
22   O        15.0190  -11.5186   27.3193  O     
23   C        14.4636   -9.3817   27.0802  C     
24   C        15.5321   -8.4772   26.8316  C     
25   C        13.3683   -8.9263   27.8605  C     
26   C        13.2815   -7.5782   28.2530  C     
27   C        14.3042   -6.6764   27.9236  C     
28   C        15.4364   -7.1311   27.2334  C     
29   Cl       16.9987   -8.9859   26.1549  Cl    
30   Cl       12.1379   -9.9634   28.3872  Cl    
31   H        12.6484   -4.7493   25.3223  H     
32   H        10.9313   -4.3075   26.9681  H     
33   H         9.0028   -5.7560   27.1292  H     
34   H        13.1200  -10.9054   21.1317  H     
35   H        11.2944   -9.4953   21.4965  H     
36   H        12.0708   -9.4767   25.5126  H     
37   H        16.8573  -12.8471   24.1223  H     
38   H        16.6266  -12.3679   25.7120  H     
39   H        12.4797   -7.2465   28.7928  H     
40   H        14.2286   -5.6971   28.2180  H     
41   H        16.2027   -6.4766   27.0453  H     
@<TRIPOS>BOND
     1    1    2 2
     2    1    5 1
     3    2    3 1
     4    3    6 2
     5    4    5 2
     6    4    6 1
     7    4    7 1
     8    5   19 1
     9    6   20 1
    10    7    8 2
    11    7    9 1
    12    9   11 1
    13    9   12 2
    14   10   11 2
    15   10   13 1
    16   12   17 1
    17   13   16 2
    18   13   17 1
    19   14   15 2
    20   14   17 1
    21   14   21 1
    22   15   16 1
    23   15   18 1
    24   21   22 2
    25   21   23 1
    26   23   24 1
    27   23   25 2
    28   24   28 2
    29   24   29 1
    30   25   26 1
    31   25   30 1
    32   26   27 2
    33   27   28 1
    34    1   31 1
    35    2   32 1
    36    3   33 1
    37   10   34 1
    38   11   35 1
    39   12   36 1
    40   18   37 1
    41   18   38 1
    42   26   39 1
    43   27   40 1
    44   28   41 1
@<TRIPOS>PROPERTY_DATA
  Total_Score	| 5.1847
  Crash		| -2.6218
  Polar		| 1.5374
  FragIndex	| 1
  FragRMSD	| 0.771

