@<TRIPOS>MOLECULE
BindingDB_6676
 41 44 0 0 0
SMALL
NO_CHARGES


@<TRIPOS>ATOM
1    C        11.8629   -5.4497   25.2684  C     
2    C        10.9086   -5.2125   26.2744  C     
3    C         9.7591   -6.0211   26.3530  C     
4    C        10.5224   -7.3429   24.4148  C     
5    C        11.6685   -6.4996   24.3486  C     
6    C         9.5614   -7.0737   25.4349  C     
7    C        10.3859   -8.4580   23.5586  C     
8    O         9.2954   -8.7412   23.0779  O     
9    C        11.4015   -9.3508   23.3529  C     
10   C        12.8095  -10.5648   21.8494  C     
11   C        11.7121   -9.8110   22.0799  C     
12   C        12.2002   -9.7111   24.3913  C     
13   C        13.6050  -10.9035   22.9329  C     
14   C        14.2609  -10.9157   25.0295  C     
15   C        15.1251  -11.6832   24.2368  C     
16   N        14.7096  -11.6617   22.9560  N     
17   N        13.3095  -10.4559   24.1804  N     
18   N        16.2231  -12.3524   24.6267  N     
19   F        12.6179   -6.6943   23.4533  F     
20   F         8.5009   -7.8251   25.5967  F     
21   C        14.3668  -10.6972   26.4061  C     
22   O        15.1786  -11.3462   27.0685  O     
23   C        13.7669   -9.6406   27.0652  C     
24   C        12.8468   -9.8748   28.1172  C     
25   C        14.0686   -8.3013   26.7129  C     
26   C        13.4734   -7.2293   27.3926  C     
27   C        12.5399   -7.4735   28.4179  C     
28   C        12.2283   -8.7981   28.7777  C     
29   H        12.6950   -4.8622   25.2175  H     
30   H        11.0628   -4.4703   26.9596  H     
31   H         9.0810   -5.8490   27.0960  H     
32   H        13.0105  -10.9127   20.9423  H     
33   H        11.1268   -9.5768   21.3059  H     
34   H        11.9629   -9.4311   25.3131  H     
35   H        16.7615  -12.8180   23.9727  H     
36   H        16.5031  -12.3274   25.5589  H     
37   H        12.6124  -10.8283   28.4010  H     
38   H        14.7324   -8.1010   25.9600  H     
39   H        13.7111   -6.2687   27.1405  H     
40   H        12.0937   -6.6914   28.9016  H     
41   H        11.5594   -8.9756   29.5273  H     
@<TRIPOS>BOND
     1    1    2 2
     2    1    5 1
     3    2    3 1
     4    3    6 2
     5    4    5 2
     6    4    6 1
     7    4    7 1
     8    5   19 1
     9    6   20 1
    10    7    8 2
    11    7    9 1
    12    9   11 1
    13    9   12 2
    14   10   11 2
    15   10   13 1
    16   12   17 1
    17   13   16 2
    18   13   17 1
    19   14   15 2
    20   14   17 1
    21   14   21 1
    22   15   16 1
    23   15   18 1
    24   21   22 2
    25   21   23 1
    26   23   24 1
    27   23   25 2
    28   24   28 2
    29   25   26 1
    30   26   27 2
    31   27   28 1
    32    1   29 1
    33    2   30 1
    34    3   31 1
    35   10   32 1
    36   11   33 1
    37   12   34 1
    38   18   35 1
    39   18   36 1
    40   24   37 1
    41   25   38 1
    42   26   39 1
    43   27   40 1
    44   28   41 1
@<TRIPOS>PROPERTY_DATA
  Total_Score	| 7.1381
  Crash		| -1.0235
  Polar		| 1.5476
  FragIndex	| 1
  FragRMSD	| 0.071

