@<TRIPOS>MOLECULE
BindingDB_6680
 45 48 0 0 0
SMALL
NO_CHARGES


@<TRIPOS>ATOM
1    C        11.8177   -5.3390   25.4089  C     
2    C        10.7869   -5.0999   26.3276  C     
3    C         9.6899   -5.9693   26.3828  C     
4    C        10.6263   -7.3226   24.5424  C     
5    C        11.7505   -6.4439   24.5390  C     
6    C         9.6067   -7.0652   25.5033  C     
7    C        10.5462   -8.4338   23.6691  C     
8    O         9.4573   -8.7946   23.2400  O     
9    C        11.5946   -9.2777   23.4065  C     
10   C        12.8840  -10.5825   21.8730  C     
11   C        11.8657   -9.7335   22.1236  C     
12   C        12.3904   -9.7013   24.4194  C     
13   C        13.6880  -10.9616   22.9385  C     
14   C        14.3945  -11.0138   25.0202  C     
15   C        15.1858  -11.8358   24.1979  C     
16   N        14.7373  -11.7898   22.9329  N     
17   N        13.4562  -10.4921   24.1883  N     
18   N        16.2759  -12.5464   24.5329  N     
19   F        12.7816   -6.6246   23.7547  F     
20   F         8.5840   -7.8628   25.6652  F     
21   C        14.6038  -10.7793   26.3923  C     
22   O        15.4191  -11.4415   27.0201  O     
23   C        14.1220   -9.6682   27.0603  C     
24   C        14.7851   -8.4049   27.0594  C     
25   C        12.9221   -9.8136   27.7970  C     
26   C        12.3101   -8.7089   28.4120  C     
27   C        12.9161   -7.4465   28.3343  C     
28   C        14.1529   -7.3051   27.6821  C     
29   O        16.0827   -8.1448   26.6823  O     
30   C        17.0041   -9.1569   26.2585  C     
31   H        12.6266   -4.7125   25.3877  H     
32   H        10.8456   -4.3049   26.9675  H     
33   H         8.9568   -5.8057   27.0766  H     
34   H        13.0604  -10.9227   20.9557  H     
35   H        11.2926   -9.4484   21.3608  H     
36   H        12.1685   -9.4438   25.3465  H     
37   H        16.7708  -13.0125   23.8437  H     
38   H        16.6079  -12.5410   25.4430  H     
39   H        12.4627  -10.7218   27.8648  H     
40   H        11.4252   -8.8254   28.9125  H     
41   H        12.4779   -6.6401   28.7847  H     
42   H        14.6131   -6.3911   27.6933  H     
43   H        17.3348   -9.7664   27.1076  H     
44   H        17.8840   -8.6595   25.8545  H     
45   H        16.5666   -9.7738   25.4677  H     
@<TRIPOS>BOND
     1    1    2 2
     2    1    5 1
     3    2    3 1
     4    3    6 2
     5    4    5 2
     6    4    6 1
     7    4    7 1
     8    5   19 1
     9    6   20 1
    10    7    8 2
    11    7    9 1
    12    9   11 1
    13    9   12 2
    14   10   11 2
    15   10   13 1
    16   12   17 1
    17   13   16 2
    18   13   17 1
    19   14   15 2
    20   14   17 1
    21   14   21 1
    22   15   16 1
    23   15   18 1
    24   21   22 2
    25   21   23 1
    26   23   24 1
    27   23   25 2
    28   24   28 2
    29   24   29 1
    30   25   26 1
    31   26   27 2
    32   27   28 1
    33   29   30 1
    34    1   31 1
    35    2   32 1
    36    3   33 1
    37   10   34 1
    38   11   35 1
    39   12   36 1
    40   18   37 1
    41   18   38 1
    42   25   39 1
    43   26   40 1
    44   27   41 1
    45   28   42 1
    46   30   43 1
    47   30   44 1
    48   30   45 1
@<TRIPOS>PROPERTY_DATA
  Total_Score	| 7.0934
  Crash		| -1.4706
  Polar		| 1.3642
  FragIndex	| 1
  FragRMSD	| 0.293

