@<TRIPOS>MOLECULE
BindingDB_6701
 40 43 0 0 0
SMALL
NO_CHARGES


@<TRIPOS>ATOM
1    C        11.8596   -5.4633   25.2576  C     
2    C        10.9078   -5.2145   26.2583  C     
3    C         9.7712   -6.0254   26.3509  C     
4    C        10.5434   -7.3664   24.4275  C     
5    C        11.6846   -6.5237   24.3500  C     
6    C         9.5857   -7.0877   25.4435  C     
7    C        10.4055   -8.4782   23.5732  C     
8    C        11.4311   -9.3612   23.3605  C     
9    C        12.8556  -10.5403   21.8479  C     
10   C        11.7597   -9.7911   22.0825  C     
11   C        12.1993   -9.7744   24.3999  C     
12   C        13.6463  -10.8933   22.9327  C     
13   C        14.2916  -10.9284   25.0325  C     
14   C        15.1689  -11.6708   24.2309  C     
15   N        14.7633  -11.6263   22.9508  N     
16   N        13.3237  -10.4896   24.1884  N     
17   N        16.2661  -12.3434   24.6161  N     
18   C        14.4236  -10.6994   26.4063  C     
19   O        15.2806  -11.2952   27.0388  O     
20   F        12.6021   -6.6916   23.4354  F     
21   F         8.5284   -7.8402   25.6174  F     
22   O         9.2964   -8.8131   23.1744  O     
23   C        13.8247   -9.6483   27.0817  C     
24   C        12.2666   -8.8190   28.7657  C     
25   C        13.4892   -7.2617   27.4523  C     
26   C        14.1264   -8.3037   26.7528  C     
27   C        12.8913   -9.8998   28.1154  C     
28   N        12.5861   -7.5465   28.4246  N     
29   H        12.6817   -4.8644   25.1887  H     
30   H        11.0415   -4.4395   26.9179  H     
31   H         9.0828   -5.8390   27.0874  H     
32   H        13.1016  -10.8194   20.9263  H     
33   H        11.1852   -9.5395   21.3087  H     
34   H        11.9475   -9.5236   25.3260  H     
35   H        16.7957  -12.8196   23.9627  H     
36   H        16.5483  -12.3370   25.5416  H     
37   H        11.5747   -8.9826   29.4992  H     
38   H        13.7045   -6.2869   27.2359  H     
39   H        14.8041   -8.0796   26.0222  H     
40   H        12.6470  -10.8561   28.3873  H     
@<TRIPOS>BOND
     1    1    2 2
     2    1    5 1
     3    2    3 1
     4    3    6 2
     5    4    5 2
     6    4    6 1
     7    4    7 1
     8    5   20 1
     9    6   21 1
    10    7    8 1
    11    7   22 2
    12    8   10 1
    13    8   11 2
    14    9   10 2
    15    9   12 1
    16   11   16 1
    17   12   15 2
    18   12   16 1
    19   13   14 2
    20   13   16 1
    21   13   18 1
    22   14   15 1
    23   14   17 1
    24   18   19 2
    25   18   23 1
    26   23   26 1
    27   23   27 2
    28   24   27 1
    29   24   28 2
    30   25   26 2
    31   25   28 1
    32    1   29 1
    33    2   30 1
    34    3   31 1
    35    9   32 1
    36   10   33 1
    37   11   34 1
    38   17   35 1
    39   17   36 1
    40   24   37 1
    41   25   38 1
    42   26   39 1
    43   27   40 1
@<TRIPOS>PROPERTY_DATA
  Total_Score	| 7.2312
  Crash		| -0.8746
  Polar		| 1.5500
  FragIndex	| 1
  FragRMSD	| 0.072

