@<TRIPOS>MOLECULE
BindingDB_6700
 41 44 0 0 0
SMALL
NO_CHARGES


@<TRIPOS>ATOM
1    C        11.8255   -5.4166   25.2768  C     
2    C        10.8576   -5.1641   26.2676  C     
3    C         9.7178   -5.9821   26.3582  C     
4    C        10.5238   -7.3513   24.4838  C     
5    C        11.6569   -6.4938   24.3912  C     
6    C         9.5479   -7.0597   25.4725  C     
7    C        10.4196   -8.4924   23.6575  C     
8    C        11.4827   -9.3281   23.4261  C     
9    C        12.8529  -10.5554   21.8870  C     
10   C        11.7882   -9.7567   22.1369  C     
11   C        12.2987   -9.7140   24.4455  C     
12   C        13.6615  -10.9218   22.9608  C     
13   C        14.3328  -10.9644   25.0532  C     
14   C        15.1614  -11.7598   24.2508  C     
15   N        14.7407  -11.7211   22.9782  N     
16   N        13.3868  -10.4673   24.2057  N     
17   N        16.2697  -12.4345   24.6163  N     
18   C        14.4777  -10.7224   26.4215  C     
19   O        15.2258  -11.4156   27.1037  O     
20   F        12.5976   -6.6743   23.4958  F     
21   F         8.5078   -7.8328   25.6677  F     
22   O         9.3096   -8.8751   23.2916  O     
23   C        14.0554   -9.5525   27.0148  C     
24   C        12.9492   -9.5457   27.8952  C     
25   C        14.7221   -8.3345   26.7389  C     
26   C        14.2883   -7.1339   27.3230  C     
27   C        13.1666   -7.1341   28.1845  C     
28   C        12.4985   -8.3465   28.4668  C     
29   Cl       12.6367   -5.6909   28.8782  Cl    
30   H        12.6540   -4.8193   25.2226  H     
31   H        10.9828   -4.3876   26.9176  H     
32   H         9.0246   -5.7939   27.0889  H     
33   H        13.0584  -10.8756   20.9636  H     
34   H        11.2027   -9.4963   21.3707  H     
35   H        12.0701   -9.4690   25.3781  H     
36   H        16.8033  -12.8809   23.9361  H     
37   H        16.5798  -12.4253   25.5384  H     
38   H        12.4570  -10.4220   28.1166  H     
39   H        15.5407   -8.3197   26.1179  H     
40   H        14.7861   -6.2584   27.1260  H     
41   H        11.6721   -8.3487   29.0704  H     
@<TRIPOS>BOND
     1    1    2 2
     2    1    5 1
     3    2    3 1
     4    3    6 2
     5    4    5 2
     6    4    6 1
     7    4    7 1
     8    5   20 1
     9    6   21 1
    10    7    8 1
    11    7   22 2
    12    8   10 1
    13    8   11 2
    14    9   10 2
    15    9   12 1
    16   11   16 1
    17   12   15 2
    18   12   16 1
    19   13   14 2
    20   13   16 1
    21   13   18 1
    22   14   15 1
    23   14   17 1
    24   18   19 2
    25   18   23 1
    26   23   24 1
    27   23   25 2
    28   24   28 2
    29   25   26 1
    30   26   27 2
    31   27   28 1
    32   27   29 1
    33    1   30 1
    34    2   31 1
    35    3   32 1
    36    9   33 1
    37   10   34 1
    38   11   35 1
    39   17   36 1
    40   17   37 1
    41   24   38 1
    42   25   39 1
    43   26   40 1
    44   28   41 1
@<TRIPOS>PROPERTY_DATA
  Total_Score	| 7.4975
  Crash		| -0.8766
  Polar		| 2.2695
  FragIndex	| 1
  FragRMSD	| 0.318

