@<TRIPOS>MOLECULE
BindingDB_6688
 43 46 0 0 0
SMALL
NO_CHARGES


@<TRIPOS>ATOM
1    C         9.7588   -5.9571   26.3698  C     
2    C        10.9085   -5.1624   26.2379  C     
3    C        11.8637   -5.4781   25.2614  C     
4    C        10.5169   -7.4065   24.5168  C     
5    C         9.5754   -7.0770   25.5337  C     
6    C        11.6649   -6.5776   24.4076  C     
7    C        10.3723   -8.5702   23.7180  C     
8    C        11.4499   -9.4037   23.4989  C     
9    C        12.9022  -10.5850   21.9987  C     
10   C        11.8110   -9.8206   22.2199  C     
11   C        12.2257   -9.7924   24.5431  C     
12   C        13.6889  -10.9182   23.0889  C     
13   C        14.3381  -10.9103   25.1786  C     
14   C        15.2201  -11.6624   24.3909  C     
15   N        14.8126  -11.6474   23.1137  N     
16   N        13.3658  -10.4889   24.3328  N     
17   N        16.3330  -12.3003   24.7888  N     
18   C        14.4667  -10.6661   26.5494  C     
19   C        13.8647   -9.5985   27.2103  C     
20   C        14.1675   -8.2547   26.8608  C     
21   C        12.9325   -9.8301   28.2564  C     
22   C        12.2826   -8.7537   28.8882  C     
23   C        12.5912   -7.4323   28.5296  C     
24   C        13.5457   -7.1835   27.5314  C     
25   F        12.6317  -11.0391   28.6529  F     
26   F        15.0560   -7.9672   25.9469  F     
27   O        15.2195  -11.3615   27.2193  O     
28   F        12.5786   -6.7963   23.5040  F     
29   F         8.5438   -7.8357   25.7837  F     
30   C         9.1758   -8.9209   23.2096  C     
31   H         9.0680   -5.7272   27.0918  H     
32   H        11.0504   -4.3577   26.8580  H     
33   H        12.7039   -4.9011   25.1771  H     
34   H        13.1426  -10.8955   21.0870  H     
35   H        11.2454   -9.5829   21.4355  H     
36   H        11.9548   -9.5591   25.4655  H     
37   H        16.8723  -12.7734   24.1417  H     
38   H        16.6066  -12.2783   25.7188  H     
39   H        11.5882   -8.9298   29.6188  H     
40   H        12.1306   -6.6539   29.0020  H     
41   H        13.7875   -6.2191   27.2946  H     
42   H         9.0391   -9.8037   22.7712  H     
43   H         8.3988   -8.3041   23.2457  H     
@<TRIPOS>BOND
     1    1    2 2
     2    1    5 1
     3    2    3 1
     4    3    6 2
     5    4    5 2
     6    4    6 1
     7    4    7 1
     8    5   29 1
     9    6   28 1
    10    7    8 1
    11    7   30 2
    12    8   10 1
    13    8   11 2
    14    9   10 2
    15    9   12 1
    16   11   16 1
    17   12   15 2
    18   12   16 1
    19   13   14 2
    20   13   16 1
    21   13   18 1
    22   14   15 1
    23   14   17 1
    24   18   19 1
    25   18   27 2
    26   19   20 1
    27   19   21 2
    28   20   24 2
    29   20   26 1
    30   21   22 1
    31   21   25 1
    32   22   23 2
    33   23   24 1
    34    1   31 1
    35    2   32 1
    36    3   33 1
    37    9   34 1
    38   10   35 1
    39   11   36 1
    40   17   37 1
    41   17   38 1
    42   22   39 1
    43   23   40 1
    44   24   41 1
    45   30   42 1
    46   30   43 1
@<TRIPOS>PROPERTY_DATA
  Total_Score	| 6.3039
  Crash		| -2.0099
  Polar		| 1.4974
  FragIndex	| 1
  FragRMSD	| 0.173

