@<TRIPOS>MOLECULE
BindingDB_6692
 41 44 0 0 0
SMALL
NO_CHARGES


@<TRIPOS>ATOM
1    C         9.4183   -5.9114   26.4389  C     
2    C        10.5653   -5.1126   26.5564  C     
3    C        11.6851   -5.3853   25.7573  C     
4    C        10.5031   -7.2685   24.6873  C     
5    C         9.3892   -6.9709   25.5168  C     
6    C        11.6730   -6.4609   24.8443  C     
7    C        10.4091   -8.3500   23.7852  C     
8    C        11.4255   -9.2381   23.5496  C     
9    C        12.7432  -10.5203   22.0200  C     
10   C        11.7032   -9.6975   22.2689  C     
11   C        12.2127   -9.6638   24.5724  C     
12   C        13.5542  -10.8833   23.0829  C     
13   C        14.2769  -10.9027   25.1526  C     
14   C        15.1062  -11.6861   24.3289  C     
15   N        14.6498  -11.6534   23.0666  N     
16   N        13.3006  -10.4357   24.3347  N     
17   N        16.2245  -12.3433   24.6753  N     
18   C        14.4562  -10.6676   26.5209  C     
19   C        13.8713   -9.6035   27.2058  C     
20   C        14.2056   -8.2622   26.8815  C     
21   C        12.9186   -9.8317   28.2352  C     
22   C        12.3002   -8.7509   28.8928  C     
23   C        12.6361   -7.4310   28.5526  C     
24   C        13.5946   -7.1860   27.5564  C     
25   F        12.5628  -11.0391   28.5793  F     
26   F        15.1028   -7.9808   25.9753  F     
27   O        15.2282  -11.3741   27.1588  O     
28   O         9.3195   -8.6252   23.3012  O     
29   Cl       13.1041   -6.6763   23.9610  Cl    
30   H         8.6059   -5.7106   27.0248  H     
31   H        10.5858   -4.3291   27.2124  H     
32   H        12.4987   -4.7717   25.8441  H     
33   H         8.5410   -7.5465   25.4788  H     
34   H        12.9419  -10.8391   21.1011  H     
35   H        11.1310   -9.4199   21.5010  H     
36   H        11.9940   -9.3936   25.4998  H     
37   H        16.7273  -12.8242   23.9997  H     
38   H        16.5491  -12.3129   25.5878  H     
39   H        11.5988   -8.9211   29.6143  H     
40   H        12.1773   -6.6481   29.0272  H     
41   H        13.8402   -6.2239   27.3191  H     
@<TRIPOS>BOND
     1    1    2 2
     2    1    5 1
     3    2    3 1
     4    3    6 2
     5    4    5 2
     6    4    6 1
     7    4    7 1
     8    6   29 1
     9    7    8 1
    10    7   28 2
    11    8   10 1
    12    8   11 2
    13    9   10 2
    14    9   12 1
    15   11   16 1
    16   12   15 2
    17   12   16 1
    18   13   14 2
    19   13   16 1
    20   13   18 1
    21   14   15 1
    22   14   17 1
    23   18   19 1
    24   18   27 2
    25   19   20 1
    26   19   21 2
    27   20   24 2
    28   20   26 1
    29   21   22 1
    30   21   25 1
    31   22   23 2
    32   23   24 1
    33    1   30 1
    34    2   31 1
    35    3   32 1
    36    5   33 1
    37    9   34 1
    38   10   35 1
    39   11   36 1
    40   17   37 1
    41   17   38 1
    42   22   39 1
    43   23   40 1
    44   24   41 1
@<TRIPOS>PROPERTY_DATA
  Total_Score	| 5.4438
  Crash		| -2.0988
  Polar		| 1.5031
  FragIndex	| 1
  FragRMSD	| 0.243

