@<TRIPOS>MOLECULE
BindingDB_6693
 44 47 0 0 0
SMALL
NO_CHARGES


@<TRIPOS>ATOM
1    C         9.3523   -5.9104   26.2966  C     
2    C        10.5460   -5.3022   26.6969  C     
3    C        11.7421   -5.6523   26.0605  C     
4    C        10.5524   -7.2437   24.6032  C     
5    C         9.3580   -6.8760   25.2780  C     
6    C        11.7695   -6.5743   24.9797  C     
7    C        10.4509   -8.3011   23.6689  C     
8    C        11.4135   -9.2602   23.4679  C     
9    C        12.7666  -10.5099   21.9339  C     
10   C        11.7095   -9.7054   22.1860  C     
11   C        12.1596   -9.7360   24.4946  C     
12   C        13.5627  -10.8888   23.0036  C     
13   C        14.2565  -10.9165   25.0743  C     
14   C        15.1046  -11.6873   24.2659  C     
15   N        14.6663  -11.6489   22.9986  N     
16   N        13.2713  -10.4729   24.2576  N     
17   N        16.2142  -12.3505   24.6380  N     
18   C        14.4127  -10.6780   26.4384  C     
19   C        14.3320   -9.4030   26.9738  C     
20   C        13.1717   -8.9822   27.6748  C     
21   C        15.4587   -8.5371   26.9464  C     
22   C        15.4083   -7.2776   27.5744  C     
23   C        14.2375   -6.8626   28.2406  C     
24   C        13.1158   -7.7135   28.2692  C     
25   F        16.5758   -8.9018   26.3835  F     
26   F        12.1199   -9.7497   27.7862  F     
27   O        15.0239  -11.4871   27.1221  O     
28   O         9.3846   -8.4554   23.0755  O     
29   C        13.1013   -6.7477   24.3118  C     
30   F        13.0423   -7.2346   23.0289  F     
31   F        13.7751   -5.5568   24.1687  F     
32   F        13.8916   -7.5870   25.0619  F     
33   H         8.4791   -5.6833   26.7744  H     
34   H        10.5510   -4.6160   27.4578  H     
35   H        12.6020   -5.2033   26.3865  H     
36   H         8.4726   -7.3428   25.0624  H     
37   H        12.9838  -10.8091   21.0108  H     
38   H        11.1414   -9.4171   21.4142  H     
39   H        11.9069   -9.5183   25.4305  H     
40   H        16.7428  -12.8287   23.9799  H     
41   H        16.5038  -12.3330   25.5630  H     
42   H        16.2230   -6.6664   27.5647  H     
43   H        14.1955   -5.9540   28.7032  H     
44   H        12.2661   -7.4140   28.7656  H     
@<TRIPOS>BOND
     1    1    2 2
     2    1    5 1
     3    2    3 1
     4    3    6 2
     5    4    5 2
     6    4    6 1
     7    4    7 1
     8    6   29 1
     9    7    8 1
    10    7   28 2
    11    8   10 1
    12    8   11 2
    13    9   10 2
    14    9   12 1
    15   11   16 1
    16   12   15 2
    17   12   16 1
    18   13   14 2
    19   13   16 1
    20   13   18 1
    21   14   15 1
    22   14   17 1
    23   18   19 1
    24   18   27 2
    25   19   20 1
    26   19   21 2
    27   20   24 2
    28   20   26 1
    29   21   22 1
    30   21   25 1
    31   22   23 2
    32   23   24 1
    33   29   30 1
    34   29   31 1
    35   29   32 1
    36    1   33 1
    37    2   34 1
    38    3   35 1
    39    5   36 1
    40    9   37 1
    41   10   38 1
    42   11   39 1
    43   17   40 1
    44   17   41 1
    45   22   42 1
    46   23   43 1
    47   24   44 1
@<TRIPOS>PROPERTY_DATA
  Total_Score	| 5.5287
  Crash		| -2.0218
  Polar		| 1.4392
  FragIndex	| 1
  FragRMSD	| 0.779

