@<TRIPOS>MOLECULE
BindingDB_6677
 41 44 0 0 0
SMALL
NO_CHARGES


@<TRIPOS>ATOM
1    C        11.7994   -5.3522   25.3745  C     
2    C        10.8017   -5.1047   26.3299  C     
3    C         9.6859   -5.9540   26.4101  C     
4    C        10.5552   -7.3157   24.5490  C     
5    C        11.6802   -6.4438   24.4933  C     
6    C         9.5603   -7.0472   25.5348  C     
7    C        10.4572   -8.4357   23.7039  C     
8    O         9.3523   -8.8054   23.3117  O     
9    C        11.5103   -9.2745   23.4530  C     
10   C        12.8163  -10.5613   21.9147  C     
11   C        11.7705   -9.7429   22.1719  C     
12   C        12.3236   -9.6695   24.4661  C     
13   C        13.6466  -10.9047   22.9697  C     
14   C        14.3721  -10.9208   25.0414  C     
15   C        15.1815  -11.7155   24.2243  C     
16   N        14.7314  -11.6888   22.9616  N     
17   N        13.4044  -10.4400   24.2212  N     
18   N        16.2799  -12.3978   24.5908  N     
19   F        12.6390   -6.6024   23.6164  F     
20   F         8.5310   -7.8370   25.7077  F     
21   C        14.5560  -10.6739   26.4087  C     
22   O        15.2305  -11.4555   27.0768  O     
23   C        14.3646   -9.4215   26.9735  C     
24   C        13.1925   -9.1221   27.7170  C     
25   C        15.3571   -8.4168   26.8391  C     
26   C        15.1523   -7.1350   27.3812  C     
27   C        13.9452   -6.8229   28.0310  C     
28   C        12.9738   -7.8177   28.2104  C     
29   F        12.2758  -10.0252   27.9325  F     
30   F        16.4872   -8.6478   26.2192  F     
31   H        12.6132   -4.7342   25.3254  H     
32   H        10.8883   -4.3097   26.9664  H     
33   H         8.9727   -5.7756   27.1220  H     
34   H        12.9786  -10.9215   21.0011  H     
35   H        11.1626   -9.5090   21.4192  H     
36   H        12.1212   -9.4027   25.4059  H     
37   H        16.7862  -12.8825   23.9262  H     
38   H        16.5855  -12.3670   25.5092  H     
39   H        15.8830   -6.4256   27.3069  H     
40   H        13.7864   -5.8764   28.3847  H     
41   H        12.1068   -7.5935   28.7065  H     
@<TRIPOS>BOND
     1    1    2 2
     2    1    5 1
     3    2    3 1
     4    3    6 2
     5    4    5 2
     6    4    6 1
     7    4    7 1
     8    5   19 1
     9    6   20 1
    10    7    8 2
    11    7    9 1
    12    9   11 1
    13    9   12 2
    14   10   11 2
    15   10   13 1
    16   12   17 1
    17   13   16 2
    18   13   17 1
    19   14   15 2
    20   14   17 1
    21   14   21 1
    22   15   16 1
    23   15   18 1
    24   21   22 2
    25   21   23 1
    26   23   24 1
    27   23   25 2
    28   24   28 2
    29   24   29 1
    30   25   26 1
    31   25   30 1
    32   26   27 2
    33   27   28 1
    34    1   31 1
    35    2   32 1
    36    3   33 1
    37   10   34 1
    38   11   35 1
    39   12   36 1
    40   18   37 1
    41   18   38 1
    42   26   39 1
    43   27   40 1
    44   28   41 1
@<TRIPOS>PROPERTY_DATA
  Total_Score	| 6.7951
  Crash		| -1.0243
  Polar		| 1.4413
  FragIndex	| 1
  FragRMSD	| 0.634

