@<TRIPOS>MOLECULE
BindingDB_6697
 41 44 0 0 0
SMALL
NO_CHARGES


@<TRIPOS>ATOM
1    C         9.8510   -5.7823   26.6941  C     
2    C        11.0054   -5.0017   26.8503  C     
3    C        12.1165   -5.2220   26.0146  C     
4    C        10.8840   -6.9853   24.8116  C     
5    C         9.7803   -6.7714   25.6940  C     
6    C        12.0695   -6.2147   25.0111  C     
7    C        10.7974   -7.9364   23.7894  C     
8    C        11.7050   -8.9606   23.5730  C     
9    C        12.7939  -10.4917   22.0452  C     
10   C        11.8822   -9.5251   22.2999  C     
11   C        12.4884   -9.4170   24.5897  C     
12   C        13.6023  -10.8877   23.1132  C     
13   C        14.3821  -10.9071   25.1698  C     
14   C        15.1268  -11.7582   24.3441  C     
15   N        14.6280  -11.7498   23.0927  N     
16   N        13.4407  -10.3561   24.3581  N     
17   N        16.2203  -12.4628   24.6589  N     
18   C        14.6437  -10.6680   26.5300  C     
19   C        14.2262   -9.5306   27.2024  C     
20   C        13.1218   -9.5912   28.0965  C     
21   C        14.9330   -8.3064   27.0463  C     
22   C        14.5195   -7.1586   27.7581  C     
23   C        13.3845   -7.2149   28.5953  C     
24   C        12.6999   -8.4329   28.7809  C     
25   F        15.9844   -8.2086   26.2640  F     
26   F        12.4848  -10.7124   28.3176  F     
27   O        15.4575  -11.3627   27.1333  O     
28   O         9.8088   -7.8382   23.0471  O     
29   Cl        8.3433   -7.6707   25.6295  Cl    
30   Cl       13.4755   -6.4056   24.0762  Cl    
31   H         9.0594   -5.6411   27.3236  H     
32   H        11.0641   -4.2920   27.5882  H     
33   H        12.9528   -4.6423   26.1424  H     
34   H        12.8683  -10.9184   21.1365  H     
35   H        11.3054   -9.2223   21.5399  H     
36   H        12.3421   -9.0751   25.5186  H     
37   H        16.6942  -12.9475   23.9628  H     
38   H        16.5838  -12.4190   25.5562  H     
39   H        15.0346   -6.2768   27.6557  H     
40   H        13.0881   -6.3802   29.1086  H     
41   H        11.8881   -8.4697   29.4043  H     
@<TRIPOS>BOND
     1    1    2 2
     2    1    5 1
     3    2    3 1
     4    3    6 2
     5    4    5 2
     6    4    6 1
     7    4    7 1
     8    5   29 1
     9    6   30 1
    10    7    8 1
    11    7   28 2
    12    8   10 1
    13    8   11 2
    14    9   10 2
    15    9   12 1
    16   11   16 1
    17   12   15 2
    18   12   16 1
    19   13   14 2
    20   13   16 1
    21   13   18 1
    22   14   15 1
    23   14   17 1
    24   18   19 1
    25   18   27 2
    26   19   20 1
    27   19   21 2
    28   20   24 2
    29   20   26 1
    30   21   22 1
    31   21   25 1
    32   22   23 2
    33   23   24 1
    34    1   31 1
    35    2   32 1
    36    3   33 1
    37    9   34 1
    38   10   35 1
    39   11   36 1
    40   17   37 1
    41   17   38 1
    42   22   39 1
    43   23   40 1
    44   24   41 1
@<TRIPOS>PROPERTY_DATA
  Total_Score	| 3.3254
  Crash		| -3.1687
  Polar		| 1.2860
  FragIndex	| 1
  FragRMSD	| 0.585

