@<TRIPOS>MOLECULE
BindingDB_6678
 41 44 0 0 0
SMALL
NO_CHARGES


@<TRIPOS>ATOM
1    C         9.8072   -5.9894   26.3698  C     
2    C        10.9681   -5.2010   26.2915  C     
3    C        11.9133   -5.4501   25.2873  C     
4    C        10.5487   -7.3244   24.4379  C     
5    C         9.6016   -7.0408   25.4611  C     
6    C        11.7166   -6.5056   24.3770  C     
7    C        10.4007   -8.4368   23.5962  C     
8    O         9.2841   -8.7282   23.1694  O     
9    C        11.4262   -9.3093   23.3718  C     
10   C        12.8537  -10.5107   21.8676  C     
11   C        11.7730   -9.7176   22.0910  C     
12   C        12.1581   -9.7685   24.4234  C     
13   C        13.6381  -10.8700   22.9559  C     
14   C        14.2566  -10.8518   25.0622  C     
15   C        15.1524  -11.6121   24.2945  C     
16   N        14.7581  -11.6105   23.0068  N     
17   N        13.2952  -10.4559   24.1996  N     
18   N        16.2395  -12.2642   24.7309  N     
19   F         8.5501   -7.8048   25.6450  F     
20   F        12.6663   -6.7295   23.5040  F     
21   C        14.3042  -10.5973   26.4276  C     
22   O        14.7978  -11.4575   27.1386  O     
23   C        14.1679   -9.3116   26.9486  C     
24   C        15.2840   -8.4227   27.0123  C     
25   C        12.9439   -8.8931   27.5376  C     
26   C        12.8042   -7.6067   28.0945  C     
27   C        13.8846   -6.7150   28.0702  C     
28   C        15.1223   -7.1302   27.5514  C     
29   Cl       16.8336   -8.7993   26.4231  Cl    
30   F        11.9065   -9.6795   27.6294  F     
31   H         9.1315   -5.8121   27.1158  H     
32   H        11.1167   -4.4395   26.9572  H     
33   H        12.7622   -4.8800   25.2397  H     
34   H        13.1040  -10.7929   20.9484  H     
35   H        11.2221   -9.4459   21.3098  H     
36   H        11.8941   -9.5713   25.3633  H     
37   H        16.8064  -12.7416   24.1001  H     
38   H        16.4729  -12.2424   25.6732  H     
39   H        11.9128   -7.3072   28.4931  H     
40   H        13.7725   -5.7691   28.4480  H     
41   H        15.9003   -6.4654   27.5477  H     
@<TRIPOS>BOND
     1    1    2 2
     2    1    5 1
     3    2    3 1
     4    3    6 2
     5    4    5 2
     6    4    6 1
     7    4    7 1
     8    5   19 1
     9    6   20 1
    10    7    8 2
    11    7    9 1
    12    9   11 1
    13    9   12 2
    14   10   11 2
    15   10   13 1
    16   12   17 1
    17   13   16 2
    18   13   17 1
    19   14   15 2
    20   14   17 1
    21   14   21 1
    22   15   16 1
    23   15   18 1
    24   21   22 2
    25   21   23 1
    26   23   24 1
    27   23   25 2
    28   24   28 2
    29   24   29 1
    30   25   26 1
    31   25   30 1
    32   26   27 2
    33   27   28 1
    34    1   31 1
    35    2   32 1
    36    3   33 1
    37   10   34 1
    38   11   35 1
    39   12   36 1
    40   18   37 1
    41   18   38 1
    42   26   39 1
    43   27   40 1
    44   28   41 1
@<TRIPOS>PROPERTY_DATA
  Total_Score	| 5.9238
  Crash		| -1.5234
  Polar		| 1.7524
  FragIndex	| 1
  FragRMSD	| 0.654

