@<TRIPOS>MOLECULE
BindingDB_6687
 41 44 0 0 0
SMALL
NO_CHARGES


@<TRIPOS>ATOM
1    C        11.7655   -5.4111   25.7295  C     
2    C        10.6658   -5.1572   26.5654  C     
3    C         9.5243   -5.9640   26.4785  C     
4    C        10.5715   -7.3047   24.6870  C     
5    C        11.7303   -6.4739   24.8058  C     
6    C         9.4794   -7.0270   25.5580  C     
7    C        10.4897   -8.3839   23.7723  C     
8    O         9.4005   -8.6672   23.2817  O     
9    C        11.5116   -9.2644   23.5263  C     
10   C        12.8347  -10.5353   21.9877  C     
11   C        11.7896   -9.7194   22.2416  C     
12   C        12.2861   -9.7121   24.5480  C     
13   C        13.6431  -10.9101   23.0498  C     
14   C        14.3458  -10.9485   25.1301  C     
15   C        15.1693  -11.7341   24.3105  C     
16   N        14.7302  -11.6934   23.0425  N     
17   N        13.3787  -10.4725   24.3067  N     
18   N        16.2659  -12.4231   24.6664  N     
19   C        14.5219  -10.7229   26.4998  C     
20   C        13.9539   -9.6543   27.1818  C     
21   C        12.9566   -9.8698   28.1658  C     
22   C        14.4112   -8.3289   26.9614  C     
23   C        13.8521   -7.2548   27.6820  C     
24   C        12.8082   -7.4751   28.5950  C     
25   C        12.3605   -8.7846   28.8355  C     
26   F        15.3737   -8.0634   26.1172  F     
27   F        12.5568  -11.0737   28.4748  F     
28   Cl       13.1375   -6.6466   23.8687  Cl    
29   O        15.4197  -11.3040   27.0957  O     
30   F         8.4134   -7.7865   25.5943  F     
31   H        12.5879   -4.8081   25.8112  H     
32   H        10.6975   -4.3880   27.2392  H     
33   H         8.7341   -5.7838   27.1035  H     
34   H        13.0203  -10.8687   21.0694  H     
35   H        11.1977   -9.4635   21.4812  H     
36   H        12.0670   -9.4547   25.4802  H     
37   H        16.7794  -12.8895   23.9933  H     
38   H        16.5644  -12.4226   25.5890  H     
39   H        14.2123   -6.3060   27.5534  H     
40   H        12.3942   -6.6890   29.1031  H     
41   H        11.6100   -8.9437   29.5127  H     
@<TRIPOS>BOND
     1    1    2 2
     2    1    5 1
     3    2    3 1
     4    3    6 2
     5    4    5 2
     6    4    6 1
     7    4    7 1
     8    5   28 1
     9    6   30 1
    10    7    8 2
    11    7    9 1
    12    9   11 1
    13    9   12 2
    14   10   11 2
    15   10   13 1
    16   12   17 1
    17   13   16 2
    18   13   17 1
    19   14   15 2
    20   14   17 1
    21   14   19 1
    22   15   16 1
    23   15   18 1
    24   19   20 1
    25   19   29 2
    26   20   21 1
    27   20   22 2
    28   21   25 2
    29   21   27 1
    30   22   23 1
    31   22   26 1
    32   23   24 2
    33   24   25 1
    34    1   31 1
    35    2   32 1
    36    3   33 1
    37   10   34 1
    38   11   35 1
    39   12   36 1
    40   18   37 1
    41   18   38 1
    42   23   39 1
    43   24   40 1
    44   25   41 1
@<TRIPOS>PROPERTY_DATA
  Total_Score	| 5.3563
  Crash		| -2.2636
  Polar		| 1.5220
  FragIndex	| 1
  FragRMSD	| 0.255

