@<TRIPOS>MOLECULE
BindingDB_6691
 41 44 0 0 0
SMALL
NO_CHARGES


@<TRIPOS>ATOM
1    C         9.6762   -5.9769   26.3936  C     
2    C        10.8004   -5.1364   26.3047  C     
3    C        11.7716   -5.3738   25.3133  C     
4    C        10.5011   -7.3225   24.5105  C     
5    C         9.5253   -7.0569   25.5050  C     
6    C        11.6308   -6.4669   24.4386  C     
7    C        10.3839   -8.4565   23.6919  C     
8    C        11.4358   -9.3086   23.4584  C     
9    C        12.8134  -10.5478   21.9480  C     
10   C        11.7434   -9.7548   22.1822  C     
11   C        12.2060   -9.7238   24.4939  C     
12   C        13.6175  -10.8876   23.0273  C     
13   C        14.2850  -10.9118   25.1178  C     
14   C        15.1485  -11.6724   24.3135  C     
15   N        14.7284  -11.6349   23.0345  N     
16   N        13.3198  -10.4601   24.2777  N     
17   N        16.2479  -12.3399   24.6926  N     
18   C        14.4111  -10.6846   26.4981  C     
19   C        13.9057   -9.5739   27.1778  C     
20   C        14.3375   -8.2589   26.8588  C     
21   C        12.9364   -9.7283   28.2073  C     
22   C        12.3961   -8.6048   28.8674  C     
23   C        12.8366   -7.3149   28.5418  C     
24   C        13.8227   -7.1430   27.5512  C     
25   F        12.5030  -10.9049   28.5600  F     
26   F        15.2415   -8.0411   25.9422  F     
27   O        15.0739  -11.4615   27.1686  O     
28   O         9.2897   -8.7017   23.1779  O     
29   H         8.9753   -5.8001   27.1160  H     
30   H        10.9212   -4.3638   26.9600  H     
31   H        12.5858   -4.7614   25.2348  H     
32   H         8.7093   -7.6696   25.6083  H     
33   H        12.3566   -6.6253   23.7355  H     
34   H        13.0274  -10.8708   21.0371  H     
35   H        11.1627   -9.5188   21.4083  H     
36   H        11.9564   -9.4771   25.4179  H     
37   H        16.7747  -12.8051   24.0322  H     
38   H        16.5392  -12.3343   25.6180  H     
39   H        11.6810   -8.7266   29.5909  H     
40   H        12.4494   -6.5018   29.0247  H     
41   H        14.1521   -6.1993   27.3324  H     
@<TRIPOS>BOND
     1    1    2 2
     2    1    5 1
     3    2    3 1
     4    3    6 2
     5    4    5 2
     6    4    6 1
     7    4    7 1
     8    7    8 1
     9    7   28 2
    10    8   10 1
    11    8   11 2
    12    9   10 2
    13    9   12 1
    14   11   16 1
    15   12   15 2
    16   12   16 1
    17   13   14 2
    18   13   16 1
    19   13   18 1
    20   14   15 1
    21   14   17 1
    22   18   19 1
    23   18   27 2
    24   19   20 1
    25   19   21 2
    26   20   24 2
    27   20   26 1
    28   21   22 1
    29   21   25 1
    30   22   23 2
    31   23   24 1
    32    1   29 1
    33    2   30 1
    34    3   31 1
    35    5   32 1
    36    6   33 1
    37    9   34 1
    38   10   35 1
    39   11   36 1
    40   17   37 1
    41   17   38 1
    42   22   39 1
    43   23   40 1
    44   24   41 1
@<TRIPOS>PROPERTY_DATA
  Total_Score	| 6.2787
  Crash		| -1.3511
  Polar		| 1.4943
  FragIndex	| 1
  FragRMSD	| 0.199

