@<TRIPOS>MOLECULE
BindingDB_6694
 44 47 0 0 0
SMALL
NO_CHARGES


@<TRIPOS>ATOM
1    C         9.5913   -5.8338   26.3607  C     
2    C        10.7863   -5.1271   26.5515  C     
3    C        11.9171   -5.4615   25.7932  C     
4    C        10.6627   -7.2485   24.6383  C     
5    C         9.5347   -6.8829   25.4237  C     
6    C        11.8764   -6.5097   24.8338  C     
7    C        10.5093   -8.3147   23.7266  C     
8    C        11.4841   -9.2414   23.4780  C     
9    C        12.8255  -10.4647   21.9037  C     
10   C        11.8146   -9.6071   22.1740  C     
11   C        12.1616   -9.8236   24.4988  C     
12   C        13.5759  -10.9216   22.9786  C     
13   C        14.2338  -11.0143   25.0638  C     
14   C        15.0919  -11.7667   24.2507  C     
15   N        14.6767  -11.6888   22.9725  N     
16   N        13.2673  -10.5500   24.2438  N     
17   N        16.2236  -12.3945   24.6305  N     
18   C        14.3848  -10.7507   26.4207  C     
19   C        14.2137   -9.4503   26.8948  C     
20   C        13.0602   -9.0812   27.6290  C     
21   C        15.2448   -8.4800   26.7185  C     
22   C        15.1010   -7.1886   27.2624  C     
23   C        13.9561   -6.8354   27.9954  C     
24   C        12.9311   -7.7872   28.1753  C     
25   F        16.3456   -8.7547   26.0601  F     
26   F        12.0847   -9.9283   27.8330  F     
27   O        15.1362  -11.4463   27.0929  O     
28   O         9.4174   -8.4900   23.1823  O     
29   C        13.1295   -6.7592   24.0620  C     
30   H         8.7665   -5.5827   26.9109  H     
31   H        10.8325   -4.3619   27.2312  H     
32   H        12.7813   -4.9359   25.9539  H     
33   H         8.6453   -7.3880   25.3426  H     
34   H        13.0496  -10.7356   20.9761  H     
35   H        11.2957   -9.2469   21.4016  H     
36   H        11.8710   -9.6935   25.4355  H     
37   H        16.7756  -12.8314   23.9610  H     
38   H        16.5187  -12.3628   25.5555  H     
39   H        15.8423   -6.5007   27.1358  H     
40   H        13.8589   -5.8960   28.3875  H     
41   H        12.1018   -7.5335   28.7146  H     
42   H        13.7776   -5.8800   24.0496  H     
43   H        12.8928   -7.0041   23.0248  H     
44   H        13.6820   -7.5803   24.5229  H     
@<TRIPOS>BOND
     1    1    2 2
     2    1    5 1
     3    2    3 1
     4    3    6 2
     5    4    5 2
     6    4    6 1
     7    4    7 1
     8    6   29 1
     9    7    8 1
    10    7   28 2
    11    8   10 1
    12    8   11 2
    13    9   10 2
    14    9   12 1
    15   11   16 1
    16   12   15 2
    17   12   16 1
    18   13   14 2
    19   13   16 1
    20   13   18 1
    21   14   15 1
    22   14   17 1
    23   18   19 1
    24   18   27 2
    25   19   20 1
    26   19   21 2
    27   20   24 2
    28   20   26 1
    29   21   22 1
    30   21   25 1
    31   22   23 2
    32   23   24 1
    33    1   30 1
    34    2   31 1
    35    3   32 1
    36    5   33 1
    37    9   34 1
    38   10   35 1
    39   11   36 1
    40   17   37 1
    41   17   38 1
    42   22   39 1
    43   23   40 1
    44   24   41 1
    45   29   42 1
    46   29   43 1
    47   29   44 1
@<TRIPOS>PROPERTY_DATA
  Total_Score	| 6.7136
  Crash		| -1.3722
  Polar		| 1.5106
  FragIndex	| 1
  FragRMSD	| 0.669

