@<TRIPOS>MOLECULE
BindingDB_29029
 39 40 0 0 0
SMALL
NO_CHARGES


@<TRIPOS>ATOM
1    C        -5.8206   34.0376   -1.1526  C     
2    C        -6.8290   33.1067   -0.8347  C     
3    C        -7.9803   33.0005   -1.6394  C     
4    C        -8.0985   33.8139   -2.7853  C     
5    C        -7.0940   34.7467   -3.0951  C     
6    C        -5.9595   34.8939   -2.2733  C     
7    C        -8.9779   32.0586   -1.3156  C     
8    N        -5.0768   35.8933   -2.5832  N     
9    C        -4.8182   36.9454   -1.8031  C     
10   C        -3.9577   37.9299   -2.2046  C     
11   O        -5.4084   37.0602   -0.7268  O     
12   C        -3.8272   38.3111   -3.5075  C     
13   C        -3.2951   38.5049   -1.2733  C     
14   N        -2.6899   39.0645   -0.4734  N     
15   C        -2.8523   39.2895   -3.9937  C     
16   O        -4.6255   37.7654   -4.4382  O     
17   C        -9.9117   32.3319   -0.2907  C     
18   C       -10.8890   31.3818    0.0574  C     
19   C       -10.9292   30.1374   -0.5999  C     
20   C       -10.0050   29.8509   -1.6263  C     
21   C        -9.0483   30.8180   -2.0001  C     
22   Cl       -4.4356   34.0972   -0.1669  Cl    
23   O        -8.1300   30.5424   -2.9785  O     
24   C        -8.6098   30.7644   -4.3225  C     
25   H        -6.7035   32.4992   -0.0208  H     
26   H        -8.9211   33.7425   -3.3876  H     
27   H        -7.2246   35.3584   -3.9108  H     
28   H        -4.7228   35.9092   -3.5028  H     
29   H        -3.0459   40.2611   -3.5291  H     
30   H        -2.9073   39.4103   -5.0815  H     
31   H        -1.8438   38.9546   -3.7351  H     
32   H        -5.5333   37.8411   -4.0604  H     
33   H        -9.8886   33.2247    0.2129  H     
34   H       -11.5672   31.5874    0.8019  H     
35   H       -11.6128   29.4307   -0.3267  H     
36   H       -10.0281   28.9462   -2.1137  H     
37   H        -9.2561   29.9198   -4.6025  H     
38   H        -7.7420   30.7983   -4.9676  H     
39   H        -9.1705   31.7076   -4.4317  H     
@<TRIPOS>BOND
     1    1    2 1
     2    1    6 2
     3    1   22 1
     4    2    3 2
     5    3    4 1
     6    3    7 1
     7    4    5 2
     8    5    6 1
     9    6    8 1
    10    7   17 2
    11    7   21 1
    12    8    9 am
    13    9   10 1
    14    9   11 2
    15   10   12 2
    16   10   13 1
    17   12   15 1
    18   12   16 1
    19   13   14 3
    20   17   18 1
    21   18   19 2
    22   19   20 1
    23   20   21 2
    24   21   23 1
    25   23   24 1
    26    2   25 1
    27    4   26 1
    28    5   27 1
    29    8   28 1
    30   15   29 1
    31   15   30 1
    32   15   31 1
    33   16   32 1
    34   17   33 1
    35   18   34 1
    36   19   35 1
    37   20   36 1
    38   24   37 1
    39   24   38 1
    40   24   39 1
@<TRIPOS>PROPERTY_DATA
  Total_Score	| 5.7777
  Crash		| -2.7024
  Polar		| 1.1224
  FragIndex	| 1
  FragRMSD	| 0.430

