@<TRIPOS>MOLECULE
BindingDB_29034
 35 36 0 0 0
SMALL
NO_CHARGES


@<TRIPOS>ATOM
1    C        -6.5957   34.6823   -2.9283  C     
2    C        -7.6039   33.7162   -2.7491  C     
3    C        -7.7252   33.0154   -1.5221  C     
4    C        -6.8102   33.3131   -0.4776  C     
5    C        -5.7930   34.2672   -0.6795  C     
6    C        -5.6955   34.9966   -1.8814  C     
7    C        -8.7671   32.0451   -1.3900  C     
8    N        -4.7122   35.9449   -1.9818  N     
9    C        -4.7761   37.1276   -2.5839  C     
10   C        -3.6881   37.9324   -2.7039  C     
11   O        -5.8309   37.5454   -3.0464  O     
12   C        -3.1456   38.2153   -3.9174  C     
13   C        -3.2410   38.4838   -1.6335  C     
14   N        -2.8259   38.9826   -0.6789  N     
15   C        -1.9972   39.0891   -4.1479  C     
16   O        -3.6502   37.6716   -5.0319  O     
17   C        -8.8532   30.9010   -2.2282  C     
18   C        -9.9062   29.9774   -2.0542  C     
19   C       -10.8783   30.1797   -1.0609  C     
20   C       -10.7915   31.3053   -0.2231  C     
21   C        -9.7515   32.2314   -0.3896  C     
22   Cl       -7.7125   30.5531   -3.4356  Cl    
23   Cl       -6.8553   32.5439    1.0323  Cl    
24   H        -6.5202   35.1595   -3.8300  H     
25   H        -8.2379   33.5335   -3.5234  H     
26   H        -5.1216   34.4536    0.0727  H     
27   H        -3.8654   35.7284   -1.5365  H     
28   H        -2.2196   40.0940   -3.7849  H     
29   H        -1.7541   39.1555   -5.2136  H     
30   H        -1.1172   38.7118   -3.6231  H     
31   H        -4.6198   37.8142   -4.9964  H     
32   H        -9.9805   29.1460   -2.6463  H     
33   H       -11.6357   29.5053   -0.9357  H     
34   H       -11.4901   31.4457    0.5119  H     
35   H        -9.7137   33.0504    0.2247  H     
@<TRIPOS>BOND
     1    1    2 1
     2    1    6 2
     3    2    3 2
     4    3    4 1
     5    3    7 1
     6    4    5 2
     7    4   23 1
     8    5    6 1
     9    6    8 1
    10    7   17 2
    11    7   21 1
    12    8    9 am
    13    9   10 1
    14    9   11 2
    15   10   12 2
    16   10   13 1
    17   12   15 1
    18   12   16 1
    19   13   14 3
    20   17   18 1
    21   17   22 1
    22   18   19 2
    23   19   20 1
    24   20   21 2
    25    1   24 1
    26    2   25 1
    27    5   26 1
    28    8   27 1
    29   15   28 1
    30   15   29 1
    31   15   30 1
    32   16   31 1
    33   18   32 1
    34   19   33 1
    35   20   34 1
    36   21   35 1
@<TRIPOS>PROPERTY_DATA
  Total_Score	| 6.3533
  Crash		| -1.2097
  Polar		| 1.4273
  FragIndex	| 1
  FragRMSD	| 0.645

