@<TRIPOS>MOLECULE
BindingDB_29031
 35 36 0 0 0
SMALL
NO_CHARGES


@<TRIPOS>ATOM
1    C        -5.7936   34.0834   -1.0815  C     
2    C        -6.7688   33.0980   -0.8250  C     
3    C        -7.8342   32.8738   -1.7310  C     
4    C        -7.9009   33.6629   -2.9042  C     
5    C        -6.9076   34.6234   -3.1795  C     
6    C        -5.8694   34.8571   -2.2629  C     
7    C        -8.8241   31.8798   -1.4824  C     
8    N        -4.9479   35.7805   -2.6269  N     
9    C        -4.6507   36.9096   -1.9562  C     
10   C        -3.7867   37.8526   -2.4648  C     
11   O        -5.2493   37.1517   -0.9066  O     
12   C        -3.0481   38.6945   -1.7049  C     
13   C        -3.6732   37.9210   -3.7405  C     
14   N        -3.5620   37.9221   -4.8934  N     
15   C        -2.1583   39.7179   -2.2490  C     
16   O        -3.0651   38.6486   -0.3682  O     
17   C        -8.9667   30.7604   -2.3492  C     
18   C       -10.0035   29.8246   -2.1452  C     
19   C       -10.9018   29.9828   -1.0808  C     
20   C       -10.7684   31.0740   -0.2162  C     
21   C        -9.7288   32.0099   -0.3960  C     
22   Cl       -4.5061   34.2848    0.0015  Cl    
23   Cl       -7.9028   30.4606   -3.6447  Cl    
24   Cl       -9.6384   33.2761    0.7340  Cl    
25   H        -6.6932   32.5229    0.0217  H     
26   H        -8.6568   33.5297   -3.5802  H     
27   H        -6.9816   35.1749   -4.0352  H     
28   H        -4.5874   35.7044   -3.5254  H     
29   H        -1.3821   39.2475   -2.8624  H     
30   H        -1.6610   40.2790   -1.4545  H     
31   H        -2.7117   40.4246   -2.8718  H     
32   H        -3.3759   37.7412   -0.1365  H     
33   H       -10.1178   29.0176   -2.7720  H     
34   H       -11.6511   29.3008   -0.9344  H     
35   H       -11.4396   31.1863    0.5522  H     
@<TRIPOS>BOND
     1    1    2 1
     2    1    6 2
     3    1   22 1
     4    2    3 2
     5    3    4 1
     6    3    7 1
     7    4    5 2
     8    5    6 1
     9    6    8 1
    10    7   17 2
    11    7   21 1
    12    8    9 am
    13    9   10 1
    14    9   11 2
    15   10   12 2
    16   10   13 1
    17   12   15 1
    18   12   16 1
    19   13   14 3
    20   17   18 1
    21   17   23 1
    22   18   19 2
    23   19   20 1
    24   20   21 2
    25   21   24 1
    26    2   25 1
    27    4   26 1
    28    5   27 1
    29    8   28 1
    30   15   29 1
    31   15   30 1
    32   15   31 1
    33   16   32 1
    34   18   33 1
    35   19   34 1
    36   20   35 1
@<TRIPOS>PROPERTY_DATA
  Total_Score	| 4.0288
  Crash		| -2.7494
  Polar		| 1.3623
  FragIndex	| 1
  FragRMSD	| 1.424

