@<TRIPOS>MOLECULE
BindingDB_29028
 38 39 0 0 0
SMALL
NO_CHARGES


@<TRIPOS>ATOM
1    C        -6.0820   34.1317   -1.1390  C     
2    C        -7.0463   33.1003   -0.9901  C     
3    C        -8.1975   33.0264   -1.8018  C     
4    C        -8.3702   33.9960   -2.8098  C     
5    C        -7.4351   35.0344   -2.9705  C     
6    C        -6.2982   35.1283   -2.1358  C     
7    C        -9.1349   31.9715   -1.6167  C     
8    N        -5.4980   36.2378   -2.2458  N     
9    C        -4.5087   36.4533   -3.1184  C     
10   C        -3.7686   37.6188   -3.1487  C     
11   O        -4.1876   35.5261   -3.8575  O     
12   C        -3.3001   38.1790   -4.2982  C     
13   C        -3.4837   38.1640   -2.0203  C     
14   N        -3.2372   38.6598   -1.0105  N     
15   C        -2.4032   39.3345   -4.3616  C     
16   O        -3.6093   37.6797   -5.5016  O     
17   C       -10.1395   32.1111   -0.6285  C     
18   C       -11.0744   31.0834   -0.4037  C     
19   C       -11.0184   29.9013   -1.1570  C     
20   C       -10.0212   29.7454   -2.1352  C     
21   C        -9.0764   30.7673   -2.3657  C     
22   C        -4.8535   34.0362   -0.2969  C     
23   F        -3.9592   35.0762   -0.3794  F     
24   F        -5.1779   33.9111    1.0364  F     
25   F        -4.1668   32.9134   -0.6910  F     
26   Cl       -7.8700   30.4829   -3.5278  Cl    
27   H        -6.8983   32.3697   -0.2838  H     
28   H        -9.1928   33.9674   -3.4224  H     
29   H        -7.6110   35.7517   -3.6773  H     
30   H        -5.6524   36.9310   -1.5769  H     
31   H        -2.8955   40.2245   -3.9662  H     
32   H        -2.0867   39.5531   -5.3868  H     
33   H        -1.5019   39.1450   -3.7761  H     
34   H        -4.5648   37.4540   -5.4840  H     
35   H       -10.2053   32.9660   -0.0672  H     
36   H       -11.7969   31.1961    0.3115  H     
37   H       -11.6995   29.1573   -0.9957  H     
38   H        -9.9915   28.8758   -2.6744  H     
@<TRIPOS>BOND
     1    1    2 1
     2    1    6 2
     3    1   22 1
     4    2    3 2
     5    3    4 1
     6    3    7 1
     7    4    5 2
     8    5    6 1
     9    6    8 1
    10    7   17 2
    11    7   21 1
    12    8    9 am
    13    9   10 1
    14    9   11 2
    15   10   12 2
    16   10   13 1
    17   12   15 1
    18   12   16 1
    19   13   14 3
    20   17   18 1
    21   18   19 2
    22   19   20 1
    23   20   21 2
    24   21   26 1
    25   22   23 1
    26   22   24 1
    27   22   25 1
    28    2   27 1
    29    4   28 1
    30    5   29 1
    31    8   30 1
    32   15   31 1
    33   15   32 1
    34   15   33 1
    35   16   34 1
    36   17   35 1
    37   18   36 1
    38   19   37 1
    39   20   38 1
@<TRIPOS>PROPERTY_DATA
  Total_Score	| 5.0541
  Crash		| -2.8116
  Polar		| 1.4216
  FragIndex	| 1
  FragRMSD	| 0.700

