@<TRIPOS>MOLECULE
BindingDB_29027
 35 36 0 0 0
SMALL
NO_CHARGES


@<TRIPOS>ATOM
1    C        -5.7541   34.1911   -1.1899  C     
2    C        -6.7380   33.2214   -0.9115  C     
3    C        -7.8409   33.0473   -1.7762  C     
4    C        -7.9476   33.8496   -2.9320  C     
5    C        -6.9645   34.8120   -3.2151  C     
6    C        -5.8736   35.0014   -2.3440  C     
7    C        -8.8317   32.0808   -1.4800  C     
8    N        -4.9497   35.9341   -2.7009  N     
9    C        -4.6316   37.0456   -2.0301  C     
10   C        -3.7275   37.9552   -2.5289  C     
11   O        -5.2179   37.3011   -0.9835  O     
12   C        -2.9819   38.7917   -1.7582  C     
13   C        -3.5890   37.9985   -3.8040  C     
14   N        -3.4444   38.0258   -4.9468  N     
15   C        -2.0312   39.7731   -2.2826  C     
16   O        -3.0512   38.7725   -0.4255  O     
17   C        -8.9596   30.8712   -2.2128  C     
18   C        -9.9665   29.9463   -1.8668  C     
19   C       -10.8453   30.2150   -0.8018  C     
20   C       -10.7222   31.4117   -0.0747  C     
21   C        -9.7190   32.3364   -0.4085  C     
22   Cl       -4.4060   34.3047   -0.1639  Cl    
23   Cl       -7.9148   30.4663   -3.4901  Cl    
24   H        -6.6392   32.6240   -0.0841  H     
25   H        -8.7379   33.7449   -3.5750  H     
26   H        -7.0577   35.3947   -4.0514  H     
27   H        -4.5856   35.8397   -3.5992  H     
28   H        -1.2331   39.2634   -2.8274  H     
29   H        -1.5662   40.3601   -1.4864  H     
30   H        -2.5343   40.4703   -2.9562  H     
31   H        -3.3472   37.8799   -0.1570  H     
32   H       -10.0675   29.0695   -2.3841  H     
33   H       -11.5702   29.5393   -0.5551  H     
34   H       -11.3596   31.6096    0.7002  H     
35   H        -9.6452   33.2029    0.1346  H     
@<TRIPOS>BOND
     1    1    2 1
     2    1    6 2
     3    1   22 1
     4    2    3 2
     5    3    4 1
     6    3    7 1
     7    4    5 2
     8    5    6 1
     9    6    8 1
    10    7   17 2
    11    7   21 1
    12    8    9 am
    13    9   10 1
    14    9   11 2
    15   10   12 2
    16   10   13 1
    17   12   15 1
    18   12   16 1
    19   13   14 3
    20   17   18 1
    21   17   23 1
    22   18   19 2
    23   19   20 1
    24   20   21 2
    25    2   24 1
    26    4   25 1
    27    5   26 1
    28    8   27 1
    29   15   28 1
    30   15   29 1
    31   15   30 1
    32   16   31 1
    33   18   32 1
    34   19   33 1
    35   20   34 1
    36   21   35 1
@<TRIPOS>PROPERTY_DATA
  Total_Score	| 5.6485
  Crash		| -1.7701
  Polar		| 1.6021
  FragIndex	| 1
  FragRMSD	| 1.465

