@<TRIPOS>MOLECULE
BindingDB_29038
 35 36 0 0 0
SMALL
NO_CHARGES


@<TRIPOS>ATOM
1    C        -5.8228   34.1318   -1.1055  C     
2    C        -6.8115   33.1646   -0.8295  C     
3    C        -7.8812   32.9554   -1.7246  C     
4    C        -7.9505   33.7164   -2.9096  C     
5    C        -6.9644   34.6807   -3.1853  C     
6    C        -5.9057   34.9132   -2.2833  C     
7    C        -8.8669   31.9820   -1.4451  C     
8    N        -4.9746   35.8479   -2.6355  N     
9    C        -4.6659   36.9703   -1.9793  C     
10   C        -3.7520   37.8769   -2.4704  C     
11   O        -5.2757   37.2422   -0.9505  O     
12   C        -3.0110   38.7124   -1.6961  C     
13   C        -3.6150   37.9338   -3.7451  C     
14   N        -3.4687   37.9883   -4.8875  N     
15   C        -2.0618   39.6960   -2.2233  C     
16   O        -3.0949   38.6897   -0.3620  O     
17   C        -9.8762   32.2489   -0.4927  C     
18   C       -10.8481   31.2757   -0.2001  C     
19   C       -10.8152   30.0288   -0.8500  C     
20   C        -9.8151   29.7569   -1.8023  C     
21   C        -8.8445   30.7292   -2.1023  C     
22   Cl       -4.5083   34.2673   -0.0390  Cl    
23   H        -6.7390   32.5929    0.0186  H     
24   H        -8.7168   33.5815   -3.5753  H     
25   H        -7.0396   35.2303   -4.0446  H     
26   H        -4.5848   35.7357   -3.5179  H     
27   H        -1.2747   39.1862   -2.7843  H     
28   H        -1.5879   40.2688   -1.4247  H     
29   H        -2.5716   40.3991   -2.8853  H     
30   H        -3.3761   37.7889   -0.1034  H     
31   H        -9.9118   33.1519   -0.0089  H     
32   H       -11.5728   31.4736    0.4926  H     
33   H       -11.5140   29.3183   -0.6281  H     
34   H        -9.7872   28.8471   -2.2647  H     
35   H        -8.1133   30.5125   -2.7866  H     
@<TRIPOS>BOND
     1    1    2 1
     2    1    6 2
     3    1   22 1
     4    2    3 2
     5    3    4 1
     6    3    7 1
     7    4    5 2
     8    5    6 1
     9    6    8 1
    10    7   17 2
    11    7   21 1
    12    8    9 am
    13    9   10 1
    14    9   11 2
    15   10   12 2
    16   10   13 1
    17   12   15 1
    18   12   16 1
    19   13   14 3
    20   17   18 1
    21   18   19 2
    22   19   20 1
    23   20   21 2
    24    2   23 1
    25    4   24 1
    26    5   25 1
    27    8   26 1
    28   15   27 1
    29   15   28 1
    30   15   29 1
    31   16   30 1
    32   17   31 1
    33   18   32 1
    34   19   33 1
    35   20   34 1
    36   21   35 1
@<TRIPOS>PROPERTY_DATA
  Total_Score	| 5.4417
  Crash		| -1.7510
  Polar		| 1.3944
  FragIndex	| 1
  FragRMSD	| 1.469

