@<TRIPOS>MOLECULE
BindingDB_29036
 35 36 0 0 0
SMALL
NO_CHARGES


@<TRIPOS>ATOM
1    C        -6.7219   34.6713   -3.0085  C     
2    C        -7.7364   33.7262   -2.8040  C     
3    C        -7.8161   33.0000   -1.5899  C     
4    C        -6.8184   33.2150   -0.6130  C     
5    C        -5.7997   34.1686   -0.8251  C     
6    C        -5.7449   34.9379   -2.0151  C     
7    C        -8.9186   32.1433   -1.3089  C     
8    N        -4.7551   35.8801   -2.1373  N     
9    C        -4.8247   37.0856   -2.7040  C     
10   C        -3.7286   37.8813   -2.7272  C     
11   O        -5.8604   37.5279   -3.1834  O     
12   C        -3.1412   38.2131   -3.9081  C     
13   C        -3.3546   38.3876   -1.6008  C     
14   N        -3.0052   38.8480   -0.6069  N     
15   C        -2.0820   39.2102   -4.0329  C     
16   O        -3.5021   37.6262   -5.0627  O     
17   C        -9.3135   31.0564   -2.1420  C     
18   C       -10.5081   30.3441   -1.8714  C     
19   C       -11.2816   30.6625   -0.7216  C     
20   C       -10.8781   31.7006    0.1380  C     
21   C        -9.7230   32.4353   -0.1624  C     
22   Cl      -11.0923   29.1101   -2.8935  Cl    
23   Cl       -8.3392   30.5974   -3.4662  Cl    
24   H        -6.6997   35.1625   -3.9012  H     
25   H        -8.4638   33.6057   -3.5241  H     
26   H        -6.8503   32.6988    0.2780  H     
27   H        -5.0980   34.2963   -0.0857  H     
28   H        -3.9234   35.6739   -1.6752  H     
29   H        -2.4476   40.1933   -3.7109  H     
30   H        -1.7407   39.3093   -5.0649  H     
31   H        -1.2318   38.9118   -3.4080  H     
32   H        -3.6942   36.6769   -4.8607  H     
33   H       -12.1600   30.1759   -0.5278  H     
34   H       -11.4447   31.9286    0.9621  H     
35   H        -9.4738   33.2183    0.4441  H     
@<TRIPOS>BOND
     1    1    2 1
     2    1    6 2
     3    2    3 2
     4    3    4 1
     5    3    7 1
     6    4    5 2
     7    5    6 1
     8    6    8 1
     9    7   17 2
    10    7   21 1
    11    8    9 am
    12    9   10 1
    13    9   11 2
    14   10   12 2
    15   10   13 1
    16   12   15 1
    17   12   16 1
    18   13   14 3
    19   17   18 1
    20   17   23 1
    21   18   19 2
    22   18   22 1
    23   19   20 1
    24   20   21 2
    25    1   24 1
    26    2   25 1
    27    4   26 1
    28    5   27 1
    29    8   28 1
    30   15   29 1
    31   15   30 1
    32   15   31 1
    33   16   32 1
    34   19   33 1
    35   20   34 1
    36   21   35 1
@<TRIPOS>PROPERTY_DATA
  Total_Score	| 6.7726
  Crash		| -0.8407
  Polar		| 2.3456
  FragIndex	| 1
  FragRMSD	| 0.713

