@<TRIPOS>MOLECULE
BindingDB_29035
 35 36 0 0 0
SMALL
NO_CHARGES


@<TRIPOS>ATOM
1    C        -5.8295   34.1245   -0.9237  C     
2    C        -6.8361   33.1824   -0.6306  C     
3    C        -7.8802   32.9398   -1.5663  C     
4    C        -7.8301   33.5998   -2.8183  C     
5    C        -6.8068   34.5169   -3.1123  C     
6    C        -5.8255   34.8214   -2.1505  C     
7    C        -9.0098   32.1266   -1.2618  C     
8    N        -4.9176   35.7993   -2.4348  N     
9    C        -4.6817   36.8852   -1.6988  C     
10   C        -3.9021   37.8998   -2.1890  C     
11   O        -5.2628   37.0462   -0.6282  O     
12   C        -3.9297   38.2878   -3.4899  C     
13   C        -3.1680   38.5242   -1.3398  C     
14   N        -2.5318   39.1021   -0.5784  N     
15   C        -3.0802   39.3245   -4.0683  C     
16   O        -4.7680   37.7113   -4.3534  O     
17   C        -9.4191   31.0718   -2.1127  C     
18   C       -10.5818   30.3259   -1.8306  C     
19   C       -11.3378   30.6135   -0.6804  C     
20   C       -10.9403   31.6545    0.1749  C     
21   C        -9.7971   32.4156   -0.1225  C     
22   Cl      -11.0976   29.1148   -2.8941  Cl    
23   Cl       -6.7136   32.3608    0.8521  Cl    
24   H        -5.0913   34.3101   -0.2392  H     
25   H        -8.5636   33.4514   -3.5177  H     
26   H        -6.8138   35.0028   -4.0128  H     
27   H        -4.5465   35.7927   -3.3321  H     
28   H        -3.2652   40.2793   -3.5721  H     
29   H        -3.2709   39.4578   -5.1361  H     
30   H        -2.0294   39.0552   -3.9447  H     
31   H        -5.6586   37.7664   -3.9472  H     
32   H        -8.8734   30.8495   -2.9499  H     
33   H       -12.1845   30.0833   -0.4640  H     
34   H       -11.4937   31.8734    1.0067  H     
35   H        -9.5493   33.1961    0.4949  H     
@<TRIPOS>BOND
     1    1    2 1
     2    1    6 2
     3    2    3 2
     4    2   23 1
     5    3    4 1
     6    3    7 1
     7    4    5 2
     8    5    6 1
     9    6    8 1
    10    7   17 2
    11    7   21 1
    12    8    9 am
    13    9   10 1
    14    9   11 2
    15   10   12 2
    16   10   13 1
    17   12   15 1
    18   12   16 1
    19   13   14 3
    20   17   18 1
    21   18   19 2
    22   18   22 1
    23   19   20 1
    24   20   21 2
    25    1   24 1
    26    4   25 1
    27    5   26 1
    28    8   27 1
    29   15   28 1
    30   15   29 1
    31   15   30 1
    32   16   31 1
    33   17   32 1
    34   19   33 1
    35   20   34 1
    36   21   35 1
@<TRIPOS>PROPERTY_DATA
  Total_Score	| 6.7884
  Crash		| -1.0373
  Polar		| 1.9569
  FragIndex	| 1
  FragRMSD	| 0.503

