@<TRIPOS>MOLECULE
BindingDB_29037
 35 36 0 0 0
SMALL
NO_CHARGES


@<TRIPOS>ATOM
1    C        -6.8469   34.8517   -3.0134  C     
2    C        -7.8579   33.8983   -2.7785  C     
3    C        -7.8382   33.1034   -1.6213  C     
4    C        -6.7797   33.2535   -0.6987  C     
5    C        -5.7667   34.2012   -0.9337  C     
6    C        -5.7991   35.0378   -2.0726  C     
7    C        -8.8508   32.1368   -1.3888  C     
8    N        -4.7951   35.9607   -2.2017  N     
9    C        -4.8396   37.1710   -2.7712  C     
10   C        -3.7484   37.9649   -2.8035  C     
11   O        -5.8657   37.6231   -3.2770  O     
12   C        -3.1191   38.2905   -3.9634  C     
13   C        -3.3739   38.4536   -1.6786  C     
14   N        -3.0271   38.8959   -0.6733  N     
15   C        -1.9947   39.2147   -4.0678  C     
16   O        -3.5181   37.7722   -5.1272  O     
17   C        -8.9710   30.9584   -2.1756  C     
18   C        -9.9683   30.0123   -1.8749  C     
19   C       -10.8522   30.2240   -0.7975  C     
20   C       -10.7485   31.3935   -0.0289  C     
21   C        -9.7533   32.3428   -0.3194  C     
22   Cl       -7.9238   30.6124   -3.4678  Cl    
23   H        -6.8760   35.3892   -3.8779  H     
24   H        -8.6053   33.7932   -3.4707  H     
25   H        -6.7347   32.6774    0.1439  H     
26   H        -5.0095   34.2889   -0.2519  H     
27   H        -3.9598   35.7362   -1.7545  H     
28   H        -2.3054   40.2147   -3.7535  H     
29   H        -1.6259   39.2859   -5.0943  H     
30   H        -1.1709   38.8731   -3.4391  H     
31   H        -3.8037   36.8535   -4.9409  H     
32   H       -10.0512   29.1531   -2.4245  H     
33   H       -11.5688   29.5305   -0.5843  H     
34   H       -11.4044   31.5612    0.7392  H     
35   H        -9.6888   33.1849    0.2632  H     
@<TRIPOS>BOND
     1    1    2 1
     2    1    6 2
     3    2    3 2
     4    3    4 1
     5    3    7 1
     6    4    5 2
     7    5    6 1
     8    6    8 1
     9    7   17 2
    10    7   21 1
    11    8    9 am
    12    9   10 1
    13    9   11 2
    14   10   12 2
    15   10   13 1
    16   12   15 1
    17   12   16 1
    18   13   14 3
    19   17   18 1
    20   17   22 1
    21   18   19 2
    22   19   20 1
    23   20   21 2
    24    1   23 1
    25    2   24 1
    26    4   25 1
    27    5   26 1
    28    8   27 1
    29   15   28 1
    30   15   29 1
    31   15   30 1
    32   16   31 1
    33   18   32 1
    34   19   33 1
    35   20   34 1
    36   21   35 1
@<TRIPOS>PROPERTY_DATA
  Total_Score	| 6.2956
  Crash		| -1.0367
  Polar		| 1.6074
  FragIndex	| 1
  FragRMSD	| 0.686

