@<TRIPOS>MOLECULE
BindingDB_14712
 28 28 0 0 0
SMALL
NO_CHARGES


@<TRIPOS>ATOM
1    C        -6.7431   34.7095   -3.0043  C     
2    C        -7.7156   33.7048   -2.8102  C     
3    C        -7.7577   32.9344   -1.6237  C     
4    C        -6.7660   33.1739   -0.6449  C     
5    C        -5.7986   34.1855   -0.8293  C     
6    C        -5.7934   34.9862   -1.9901  C     
7    C        -8.8116   31.8995   -1.4425  C     
8    F        -8.7495   31.2241   -0.2416  F     
9    F       -10.0559   32.4838   -1.5078  F     
10   F        -8.7041   30.9601   -2.4416  F     
11   N        -4.8416   35.9653   -2.0699  N     
12   C        -4.8982   37.1517   -2.6869  C     
13   O        -5.9198   37.5021   -3.2932  O     
14   C        -3.8131   37.9632   -2.7372  C     
15   C        -3.4030   38.4518   -1.6176  C     
16   N        -3.0143   38.8804   -0.6146  N     
17   C        -3.2238   38.2993   -3.9164  C     
18   C        -2.0873   39.2103   -4.0261  C     
19   O        -3.6324   37.7840   -5.0908  O     
20   H        -6.7137   35.2434   -3.8837  H     
21   H        -8.4116   33.5349   -3.5453  H     
22   H        -6.7332   32.6370    0.2182  H     
23   H        -5.1097   34.3509   -0.0923  H     
24   H        -4.0312   35.7953   -1.5524  H     
25   H        -2.3705   40.1994   -3.6580  H     
26   H        -1.7489   39.3162   -5.0625  H     
27   H        -1.2442   38.8302   -3.4376  H     
28   H        -4.5928   37.5765   -5.0265  H     
@<TRIPOS>BOND
     1    1    2 1
     2    1    6 2
     3    2    3 2
     4    3    4 1
     5    3    7 1
     6    4    5 2
     7    5    6 1
     8    6   11 1
     9    7    8 1
    10    7    9 1
    11    7   10 1
    12   11   12 am
    13   12   13 2
    14   12   14 1
    15   14   15 1
    16   14   17 2
    17   15   16 3
    18   17   18 1
    19   17   19 1
    20    1   20 1
    21    2   21 1
    22    4   22 1
    23    5   23 1
    24   11   24 1
    25   18   25 1
    26   18   26 1
    27   18   27 1
    28   19   28 1
@<TRIPOS>PROPERTY_DATA
  Total_Score	| 4.6150
  Crash		| -0.5825
  Polar		| 1.5467
  FragIndex	| 1
  FragRMSD	| 0.678

