@<TRIPOS>MOLECULE
BindingDB_29026
 39 41 0 0 0
SMALL
NO_CHARGES


@<TRIPOS>ATOM
1    C        -6.6936   34.7880   -2.9942  C     
2    C        -7.6642   33.7886   -2.7921  C     
3    C        -7.6852   33.0368   -1.5955  C     
4    C        -6.6951   33.2864   -0.6212  C     
5    C        -5.7131   34.2682   -0.8378  C     
6    C        -5.7117   35.0527   -2.0107  C     
7    C        -8.6936   32.0677   -1.3628  C     
8    N        -4.7263   35.9965   -2.1356  N     
9    C        -4.7824   37.1804   -2.7471  C     
10   C        -3.7198   38.0336   -2.6944  C     
11   O        -5.8184   37.5753   -3.2701  O     
12   C        -3.0929   38.4906   -3.8093  C     
13   C        -3.3936   38.4288   -1.5210  C     
14   N        -3.1120   38.7983   -0.4705  N     
15   C        -1.8352   39.2413   -3.8926  C     
16   O        -3.5226   38.1317   -5.0265  O     
17   C        -9.6957   32.3043   -0.3916  C     
18   C       -10.7018   31.3506   -0.1559  C     
19   C       -10.7142   30.1435   -0.8795  C     
20   C        -9.7211   29.8941   -1.8444  C     
21   C        -8.7161   30.8516   -2.0864  C     
22   C        -1.9075   40.6763   -3.3294  C     
23   C        -0.8689   39.6936   -2.7708  C     
24   H        -6.6946   35.3006   -3.8782  H     
25   H        -8.3659   33.6309   -3.5204  H     
26   H        -6.6795   32.7509    0.2509  H     
27   H        -5.0120   34.4342   -0.1115  H     
28   H        -3.9134   35.8197   -1.6298  H     
29   H        -1.3372   39.2033   -4.8696  H     
30   H        -4.5037   38.1520   -5.0158  H     
31   H        -9.7078   33.1773    0.1467  H     
32   H       -11.4237   31.5393    0.5401  H     
33   H       -11.4448   29.4495   -0.7044  H     
34   H        -9.7258   29.0121   -2.3589  H     
35   H        -7.9920   30.6547   -2.7833  H     
36   H        -1.4598   41.4776   -3.9201  H     
37   H        -2.7169   40.9169   -2.6347  H     
38   H        -1.0456   39.4701   -1.7197  H     
39   H         0.1538   39.9315   -3.0706  H     
@<TRIPOS>BOND
     1    1    2 1
     2    1    6 2
     3    2    3 2
     4    3    4 1
     5    3    7 1
     6    4    5 2
     7    5    6 1
     8    6    8 1
     9    7   17 2
    10    7   21 1
    11    8    9 am
    12    9   10 1
    13    9   11 2
    14   10   12 2
    15   10   13 1
    16   12   15 1
    17   12   16 1
    18   13   14 3
    19   15   22 1
    20   15   23 1
    21   17   18 1
    22   18   19 2
    23   19   20 1
    24   20   21 2
    25   22   23 1
    26    1   24 1
    27    2   25 1
    28    4   26 1
    29    5   27 1
    30    8   28 1
    31   15   29 1
    32   16   30 1
    33   17   31 1
    34   18   32 1
    35   19   33 1
    36   20   34 1
    37   21   35 1
    38   22   36 1
    39   22   37 1
    40   23   38 1
    41   23   39 1
@<TRIPOS>PROPERTY_DATA
  Total_Score	| 7.0327
  Crash		| -1.2045
  Polar		| 1.5332
  FragIndex	| 1
  FragRMSD	| 0.732

