@<TRIPOS>MOLECULE
BindingDB_29030
 35 36 0 0 0
SMALL
NO_CHARGES


@<TRIPOS>ATOM
1    C        -5.7456   34.1084   -1.0866  C     
2    C        -6.7705   33.1776   -0.8173  C     
3    C        -7.8660   33.0221   -1.7007  C     
4    C        -7.8924   33.8030   -2.8811  C     
5    C        -6.8681   34.7261   -3.1585  C     
6    C        -5.8049   34.9093   -2.2524  C     
7    C        -8.9490   32.1503   -1.3841  C     
8    N        -4.8798   35.8729   -2.5312  N     
9    C        -4.6643   36.9628   -1.7938  C     
10   C        -3.8538   37.9631   -2.2537  C     
11   O        -5.2990   37.1456   -0.7518  O     
12   C        -3.8218   38.3408   -3.5591  C     
13   C        -3.1493   38.5741   -1.3711  C     
14   N        -2.5324   39.1309   -0.5801  N     
15   C        -2.9379   39.3678   -4.0993  C     
16   O        -4.6158   37.7534   -4.4558  O     
17   C        -9.3360   31.0553   -2.2124  C     
18   C       -10.4847   30.2906   -1.8785  C     
19   C       -11.2177   30.5918   -0.7131  C     
20   C       -10.8214   31.6481    0.1218  C     
21   C        -9.7001   32.4213   -0.2136  C     
22   Cl       -4.4484   34.2241    0.0027  Cl    
23   Cl       -8.4091   30.6281   -3.5776  Cl    
24   Cl      -11.0640   29.0158   -2.8451  Cl    
25   H        -6.7144   32.6033    0.0302  H     
26   H        -8.6784   33.7327   -3.5343  H     
27   H        -6.9166   35.2886   -4.0125  H     
28   H        -4.4633   35.8404   -3.4108  H     
29   H        -3.1490   40.3317   -3.6294  H     
30   H        -3.0618   39.4850   -5.1785  H     
31   H        -1.8987   39.0979   -3.9110  H     
32   H        -5.5180   37.7547   -4.0679  H     
33   H       -12.0435   30.0466   -0.4610  H     
34   H       -11.3527   31.8571    0.9707  H     
35   H        -9.4483   33.2031    0.4009  H     
@<TRIPOS>BOND
     1    1    2 1
     2    1    6 2
     3    1   22 1
     4    2    3 2
     5    3    4 1
     6    3    7 1
     7    4    5 2
     8    5    6 1
     9    6    8 1
    10    7   17 2
    11    7   21 1
    12    8    9 am
    13    9   10 1
    14    9   11 2
    15   10   12 2
    16   10   13 1
    17   12   15 1
    18   12   16 1
    19   13   14 3
    20   17   18 1
    21   17   23 1
    22   18   19 2
    23   18   24 1
    24   19   20 1
    25   20   21 2
    26    2   25 1
    27    4   26 1
    28    5   27 1
    29    8   28 1
    30   15   29 1
    31   15   30 1
    32   15   31 1
    33   16   32 1
    34   19   33 1
    35   20   34 1
    36   21   35 1
@<TRIPOS>PROPERTY_DATA
  Total_Score	| 6.3838
  Crash		| -1.6698
  Polar		| 1.9497
  FragIndex	| 1
  FragRMSD	| 0.528

