@<TRIPOS>MOLECULE
BindingDB_29025
 35 36 0 0 0
SMALL
NO_CHARGES


@<TRIPOS>ATOM
1    C        -5.8605   34.2369   -0.8171  C     
2    C        -6.8507   33.2544   -0.6123  C     
3    C        -7.7974   32.9714   -1.6176  C     
4    C        -7.7154   33.6634   -2.8413  C     
5    C        -6.7273   34.6529   -3.0401  C     
6    C        -5.8026   34.9815   -2.0170  C     
7    C        -8.8334   32.0381   -1.3851  C     
8    N        -4.8388   35.9479   -2.1079  N     
9    C        -4.8271   37.0874   -2.8242  C     
10   C        -3.7642   37.9233   -2.8171  C     
11   O        -5.8217   37.4864   -3.4295  O     
12   C        -3.1032   38.2870   -3.9481  C     
13   C        -3.4294   38.4041   -1.6774  C     
14   N        -3.1071   38.8484   -0.6611  N     
15   C        -1.9646   39.2019   -3.9800  C     
16   O        -3.4158   37.7663   -5.1452  O     
17   C        -9.8074   32.2843   -0.3892  C     
18   C       -10.8174   31.3402   -0.1328  C     
19   C       -10.8651   30.1382   -0.8653  C     
20   C        -9.9056   29.8912   -1.8637  C     
21   C        -8.8970   30.8348   -2.1273  C     
22   H        -5.1932   34.4206   -0.0618  H     
23   H        -6.8710   32.7425    0.2777  H     
24   H        -8.3745   33.4723   -3.6023  H     
25   H        -6.6801   35.1185   -3.9452  H     
26   H        -4.0586   35.8181   -1.5363  H     
27   H        -2.2846   40.1954   -3.6445  H     
28   H        -1.5406   39.3065   -4.9837  H     
29   H        -1.1824   38.8296   -3.3160  H     
30   H        -4.3852   37.8563   -5.2593  H     
31   H        -9.7918   33.1537    0.1559  H     
32   H       -11.5105   31.5199    0.5962  H     
33   H       -11.5873   29.4455   -0.6675  H     
34   H        -9.9355   29.0144   -2.3869  H     
35   H        -8.1957   30.6310   -2.8450  H     
@<TRIPOS>BOND
     1    1    2 1
     2    1    6 2
     3    2    3 2
     4    3    4 1
     5    3    7 1
     6    4    5 2
     7    5    6 1
     8    6    8 1
     9    7   17 2
    10    7   21 1
    11    8    9 am
    12    9   10 1
    13    9   11 2
    14   10   12 2
    15   10   13 1
    16   12   15 1
    17   12   16 1
    18   13   14 3
    19   17   18 1
    20   18   19 2
    21   19   20 1
    22   20   21 2
    23    1   22 1
    24    2   23 1
    25    4   24 1
    26    5   25 1
    27    8   26 1
    28   15   27 1
    29   15   28 1
    30   15   29 1
    31   16   30 1
    32   17   31 1
    33   18   32 1
    34   19   33 1
    35   20   34 1
    36   21   35 1
@<TRIPOS>PROPERTY_DATA
  Total_Score	| 6.1987
  Crash		| -0.6559
  Polar		| 1.5082
  FragIndex	| 1
  FragRMSD	| 0.673

