@<TRIPOS>MOLECULE
BindingDB_27571
 31 33 0 0 0
SMALL
NO_CHARGES


@<TRIPOS>ATOM
1    C       -10.0470  -13.3255   21.6896  C     
2    C       -10.2932  -14.0744   20.5193  C     
3    C       -10.3281  -13.4212   19.2680  C     
4    C       -10.0816  -12.0296   19.1726  C     
5    C        -9.8345  -11.2970   20.3493  C     
6    C        -9.8220  -11.9335   21.6086  C     
7    C        -9.6236  -11.2347   22.6898  C     
8    C       -10.4927  -15.3611   20.5966  C     
9    N        -9.4586  -10.6197   23.6440  N     
10   N       -10.6625  -16.4956   20.6717  N     
11   O       -10.1575  -11.3184   17.9958  O     
12   C        -9.5074  -11.8597   16.9202  C     
13   C        -8.0948  -11.8631   16.8284  C     
14   C       -10.2472  -12.3989   15.8439  C     
15   C        -9.6042  -12.9549   14.7476  C     
16   C        -8.2070  -12.9900   14.6552  C     
17   C        -7.4489  -12.4370   15.7100  C     
18   C       -11.5772  -12.5445   15.5618  C     
19   N       -11.6984  -13.1297   14.4235  N     
20   N       -10.5638  -13.3845   13.9227  N     
21   C       -12.6942  -12.1291   16.3746  C     
22   H       -10.0377  -13.7916   22.6045  H     
23   H       -10.5295  -13.9527   18.4152  H     
24   H        -9.6745  -10.2873   20.2778  H     
25   H        -7.5359  -11.4595   17.5851  H     
26   H        -7.7495  -13.4009   13.8394  H     
27   H        -6.4270  -12.4467   15.6609  H     
28   H       -10.4145  -13.8162   13.0701  H     
29   H       -12.6952  -12.6926   17.3071  H     
30   H       -13.6394  -12.3102   15.8574  H     
31   H       -12.6180  -11.0646   16.6000  H     
@<TRIPOS>BOND
     1    1    2 1
     2    1    6 2
     3    2    3 2
     4    2    8 1
     5    3    4 1
     6    4    5 2
     7    4   11 1
     8    5    6 1
     9    6    7 1
    10    7    9 3
    11    8   10 3
    12   11   12 1
    13   12   13 1
    14   12   14 2
    15   13   17 2
    16   14   15 1
    17   14   18 1
    18   15   16 2
    19   15   20 1
    20   16   17 1
    21   18   19 2
    22   18   21 1
    23   19   20 1
    24    1   22 1
    25    3   23 1
    26    5   24 1
    27   13   25 1
    28   16   26 1
    29   17   27 1
    30   20   28 1
    31   21   29 1
    32   21   30 1
    33   21   31 1
@<TRIPOS>PROPERTY_DATA
  Total_Score	| 7.1150
  Crash		| -0.4382
  Polar		| 0.0047
  FragIndex	| 1
  FragRMSD	| 1.386

