@<TRIPOS>MOLECULE
BindingDB_27578
 35 37 0 0 0
SMALL
NO_CHARGES


@<TRIPOS>ATOM
1    C       -10.1530  -13.4126   21.6987  C     
2    C        -9.9393  -12.0162   21.6342  C     
3    C        -9.9043  -11.3745   20.3772  C     
4    C       -10.0885  -12.1027   19.1846  C     
5    C       -10.3098  -13.4970   19.2650  C     
6    C       -10.3314  -14.1559   20.5101  C     
7    C       -10.5372  -15.4481   20.5915  C     
8    C        -9.7976  -11.3180   22.7266  C     
9    N       -10.7133  -16.5821   20.6571  N     
10   N        -9.6689  -10.6970   23.6844  N     
11   O       -10.1270  -11.4004   17.9997  O     
12   C        -9.2316  -11.8181   17.0469  C     
13   C        -7.8371  -11.6316   17.2002  C     
14   C        -9.6955  -12.4409   15.8647  C     
15   C        -8.7993  -12.9587   14.9364  C     
16   C        -7.3999  -12.8423   15.1023  C     
17   C        -6.9354  -12.1379   16.2356  C     
18   C       -10.9380  -12.7208   15.3586  C     
19   N       -10.7881  -13.3711   14.2580  N     
20   N        -9.5589  -13.5341   13.9939  N     
21   C       -12.2179  -12.3177   15.9018  C     
22   C        -6.4395  -13.4322   14.1378  C     
23   O        -6.2338  -12.5608   13.0294  O     
24   H       -10.1862  -13.8929   22.6164  H     
25   H        -9.7829  -10.3610   20.3212  H     
26   H       -10.4708  -14.0279   18.4023  H     
27   H        -7.4655  -11.1589   18.0257  H     
28   H        -5.9304  -12.0113   16.3790  H     
29   H        -9.2094  -14.0029   13.2218  H     
30   H       -12.3686  -12.7538   16.8925  H     
31   H       -13.0262  -12.6516   15.2506  H     
32   H       -12.2434  -11.2250   15.9776  H     
33   H        -5.4854  -13.6530   14.6279  H     
34   H        -6.8146  -14.3830   13.7486  H     
35   H        -5.4888  -11.9668   13.2764  H     
@<TRIPOS>BOND
     1    1    2 1
     2    1    6 2
     3    2    3 2
     4    2    8 1
     5    3    4 1
     6    4    5 2
     7    4   11 1
     8    5    6 1
     9    6    7 1
    10    7    9 3
    11    8   10 3
    12   11   12 1
    13   12   13 1
    14   12   14 2
    15   13   17 2
    16   14   15 1
    17   14   18 1
    18   15   16 2
    19   15   20 1
    20   16   17 1
    21   16   22 1
    22   18   19 2
    23   18   21 1
    24   19   20 1
    25   22   23 1
    26    1   24 1
    27    3   25 1
    28    5   26 1
    29   13   27 1
    30   17   28 1
    31   20   29 1
    32   21   30 1
    33   21   31 1
    34   21   32 1
    35   22   33 1
    36   22   34 1
    37   23   35 1
@<TRIPOS>PROPERTY_DATA
  Total_Score	| 9.8461
  Crash		| -0.5770
  Polar		| 3.0659
  FragIndex	| 1
  FragRMSD	| 0.697

