@<TRIPOS>MOLECULE
BindingDB_27573
 37 39 0 0 0
SMALL
NO_CHARGES


@<TRIPOS>ATOM
1    C       -10.2438  -13.3580   21.8854  C     
2    C        -9.9145  -11.9834   21.8070  C     
3    C        -9.6145  -11.4038   20.5534  C     
4    C        -9.6408  -12.1762   19.3736  C     
5    C        -9.9655  -13.5538   19.4639  C     
6    C       -10.2680  -14.1419   20.7107  C     
7    C       -10.5522  -15.4154   20.7778  C     
8    C        -9.8606  -11.2556   22.8843  C     
9    N       -10.8072  -16.5377   20.8269  N     
10   N        -9.8086  -10.6071   23.8309  N     
11   O        -9.2714  -11.5243   18.2193  O     
12   C        -9.8146  -11.9605   17.0427  C     
13   C       -11.1910  -11.7850   16.7626  C     
14   C        -9.0034  -12.5788   16.0609  C     
15   C        -9.5678  -13.0117   14.8649  C     
16   C       -10.9330  -12.8602   14.5815  C     
17   C       -11.7521  -12.2357   15.5452  C     
18   C        -7.6766  -12.9217   15.9609  C     
19   N        -7.4933  -13.5079   14.8298  N     
20   N        -8.5693  -13.5634   14.1671  N     
21   C        -6.6133  -12.7183   16.9181  C     
22   N        -5.9409  -11.4174   16.6728  N     
23   C        -5.9936  -10.4240   17.7576  C     
24   H       -10.4602  -13.7805   22.7980  H     
25   H        -9.3614  -10.4156   20.4865  H     
26   H        -9.9595  -14.1302   18.6168  H     
27   H       -11.8003  -11.3367   17.4540  H     
28   H       -11.3213  -13.1775   13.6892  H     
29   H       -12.7523  -12.1250   15.3692  H     
30   H        -8.6526  -13.9812   13.2970  H     
31   H        -7.0008  -12.8158   17.9333  H     
32   H        -5.8672  -13.5090   16.8047  H     
33   H        -4.9509  -11.5909   16.4860  H     
34   H        -6.3459  -10.9956   15.8367  H     
35   H        -7.0280  -10.1982   18.0057  H     
36   H        -5.4959   -9.5054   17.4336  H     
37   H        -5.4715  -10.8041   18.6340  H     
@<TRIPOS>BOND
     1    1    2 1
     2    1    6 2
     3    2    3 2
     4    2    8 1
     5    3    4 1
     6    4    5 2
     7    4   11 1
     8    5    6 1
     9    6    7 1
    10    7    9 3
    11    8   10 3
    12   11   12 1
    13   12   13 1
    14   12   14 2
    15   13   17 2
    16   14   15 1
    17   14   18 1
    18   15   16 2
    19   15   20 1
    20   16   17 1
    21   18   19 2
    22   18   21 1
    23   19   20 1
    24   21   22 1
    25   22   23 1
    26    1   24 1
    27    3   25 1
    28    5   26 1
    29   13   27 1
    30   16   28 1
    31   17   29 1
    32   20   30 1
    33   21   31 1
    34   21   32 1
    35   22   33 1
    36   22   34 1
    37   23   35 1
    38   23   36 1
    39   23   37 1
@<TRIPOS>PROPERTY_DATA
  Total_Score	| 8.6712
  Crash		| -0.9959
  Polar		| 1.7517
  FragIndex	| 1
  FragRMSD	| 1.066

