@<TRIPOS>MOLECULE
BindingDB_27572
 34 36 0 0 0
SMALL
NO_CHARGES


@<TRIPOS>ATOM
1    C       -10.1275  -13.3177   21.7657  C     
2    C        -9.9211  -11.9248   21.6611  C     
3    C        -9.8659  -11.3116   20.3808  C     
4    C        -9.9857  -12.0897   19.2068  C     
5    C       -10.1955  -13.4842   19.3202  C     
6    C       -10.2919  -14.0925   20.5937  C     
7    C       -10.5370  -15.3717   20.6791  C     
8    C        -9.7408  -11.2109   22.7388  C     
9    N       -10.7535  -16.5045   20.7579  N     
10   N        -9.5867  -10.5489   23.6731  N     
11   O        -9.9343  -11.4691   17.9908  O     
12   C        -8.9144  -11.8862   17.1883  C     
13   C        -7.5568  -11.5494   17.4323  C     
14   C        -9.2195  -12.5955   15.9982  C     
15   C        -8.1947  -12.9369   15.1092  C     
16   C        -6.8530  -12.6153   15.3331  C     
17   C        -6.5365  -11.8948   16.5078  C     
18   C       -10.3620  -13.0785   15.3911  C     
19   N       -10.0054  -13.6222   14.2582  N     
20   N        -8.7558  -13.5510   14.0627  N     
21   C       -11.7489  -13.1718   15.8502  C     
22   C       -12.4908  -11.8526   16.1710  C     
23   H       -10.1749  -13.7677   22.6917  H     
24   H        -9.7017  -10.3002   20.2919  H     
25   H       -10.2961  -14.0496   18.4729  H     
26   H        -7.3166  -11.0279   18.2784  H     
27   H        -6.1226  -12.8748   14.6642  H     
28   H        -5.5692  -11.5996   16.6716  H     
29   H        -8.2484  -13.9286   13.3093  H     
30   H       -12.3377  -13.7236   15.0922  H     
31   H       -11.7689  -13.7902   16.7376  H     
32   H       -12.3004  -11.5506   17.2081  H     
33   H       -13.5790  -12.0214   16.0472  H     
34   H       -12.1984  -11.0623   15.4719  H     
@<TRIPOS>BOND
     1    1    2 1
     2    1    6 2
     3    2    3 2
     4    2    8 1
     5    3    4 1
     6    4    5 2
     7    4   11 1
     8    5    6 1
     9    6    7 1
    10    7    9 3
    11    8   10 3
    12   11   12 1
    13   12   13 1
    14   12   14 2
    15   13   17 2
    16   14   15 1
    17   14   18 1
    18   15   16 2
    19   15   20 1
    20   16   17 1
    21   18   19 2
    22   18   21 1
    23   19   20 1
    24   21   22 1
    25    1   23 1
    26    3   24 1
    27    5   25 1
    28   13   26 1
    29   16   27 1
    30   17   28 1
    31   20   29 1
    32   21   30 1
    33   21   31 1
    34   22   32 1
    35   22   33 1
    36   22   34 1
@<TRIPOS>PROPERTY_DATA
  Total_Score	| 7.9230
  Crash		| -0.6880
  Polar		| 1.0173
  FragIndex	| 1
  FragRMSD	| 0.631

