@<TRIPOS>MOLECULE
BindingDB_27577
 34 36 0 0 0
SMALL
NO_CHARGES


@<TRIPOS>ATOM
1    C       -10.1476  -13.2319   21.7060  C     
2    C        -9.8349  -11.8593   21.5814  C     
3    C        -9.6242  -11.3024   20.3012  C     
4    C        -9.7111  -12.0964   19.1399  C     
5    C       -10.0328  -13.4711   19.2815  C     
6    C       -10.2454  -14.0411   20.5538  C     
7    C       -10.5509  -15.3041   20.6539  C     
8    C        -9.7625  -11.0981   22.6354  C     
9    N       -10.8210  -16.4215   20.7240  N     
10   N        -9.7047  -10.4164   23.5603  N     
11   O        -9.6110  -11.4387   17.9410  O     
12   C        -8.8615  -11.9912   16.9404  C     
13   C        -7.4686  -11.7460   16.8787  C     
14   C        -9.4607  -12.7395   15.9000  C     
15   C        -8.6788  -13.2569   14.8731  C     
16   C        -7.2961  -13.0454   14.8074  C     
17   C        -6.6875  -12.2736   15.8231  C     
18   C       -10.7374  -13.1453   15.5964  C     
19   N       -10.6905  -13.8545   14.5183  N     
20   N        -9.5074  -13.9379   14.0735  N     
21   C       -11.9762  -12.8483   16.2911  C     
22   F        -6.8845  -11.0230   17.7985  F     
23   C       -12.1580  -11.3366   16.5405  C     
24   H       -10.3216  -13.6408   22.6322  H     
25   H        -9.4142  -10.3043   20.1990  H     
26   H       -10.1280  -14.0542   18.4432  H     
27   H        -6.7403  -13.4275   14.0355  H     
28   H        -5.6806  -12.0982   15.7868  H     
29   H        -9.2368  -14.4144   13.2688  H     
30   H       -12.8244  -13.1966   15.6906  H     
31   H       -12.0154  -13.3806   17.2393  H     
32   H       -11.4356  -10.9590   17.2560  H     
33   H       -13.1544  -11.1601   16.9439  H     
34   H       -12.0452  -10.7851   15.6026  H     
@<TRIPOS>BOND
     1    1    2 1
     2    1    6 2
     3    2    3 2
     4    2    8 1
     5    3    4 1
     6    4    5 2
     7    4   11 1
     8    5    6 1
     9    6    7 1
    10    7    9 3
    11    8   10 3
    12   11   12 1
    13   12   13 1
    14   12   14 2
    15   13   17 2
    16   13   22 1
    17   14   15 1
    18   14   18 1
    19   15   16 2
    20   15   20 1
    21   16   17 1
    22   18   19 2
    23   18   21 1
    24   19   20 1
    25   21   23 1
    26    1   24 1
    27    3   25 1
    28    5   26 1
    29   16   27 1
    30   17   28 1
    31   20   29 1
    32   21   30 1
    33   21   31 1
    34   23   32 1
    35   23   33 1
    36   23   34 1
@<TRIPOS>PROPERTY_DATA
  Total_Score	| 7.7871
  Crash		| -0.8854
  Polar		| 1.0324
  FragIndex	| 1
  FragRMSD	| 0.434

