@<TRIPOS>MOLECULE
BindingDB_27574
 35 37 0 0 0
SMALL
NO_CHARGES


@<TRIPOS>ATOM
1    C       -10.1715  -13.4372   21.6470  C     
2    C        -9.8547  -12.0619   21.5868  C     
3    C        -9.6603  -11.4373   20.3347  C     
4    C        -9.7871  -12.1758   19.1405  C     
5    C       -10.1298  -13.5483   19.2087  C     
6    C       -10.3163  -14.1850   20.4554  C     
7    C       -10.6262  -15.4449   20.5162  C     
8    C        -9.7348  -11.3599   22.6798  C     
9    N       -10.9143  -16.5555   20.5629  N     
10   N        -9.6294  -10.7271   23.6359  N     
11   O        -9.6654  -11.4789   17.9638  O     
12   C        -9.0226  -12.0996   16.9268  C     
13   C        -7.6110  -12.1802   16.8950  C     
14   C        -9.7502  -12.6162   15.8293  C     
15   C        -9.0868  -13.2224   14.7688  C     
16   C        -7.6893  -13.3348   14.7320  C     
17   C        -6.9504  -12.8014   15.8106  C     
18   C       -11.0772  -12.6822   15.4906  C     
19   N       -11.1864  -13.2849   14.3565  N     
20   N       -10.0382  -13.6255   13.9212  N     
21   C       -12.1797  -12.1482   16.2539  C     
22   O       -12.0598  -10.7145   16.2692  O     
23   C       -12.0090  -10.1045   17.5687  C     
24   H       -10.3156  -13.8852   22.5608  H     
25   H        -9.4340  -10.4347   20.2770  H     
26   H       -10.2563  -14.0795   18.3395  H     
27   H        -7.0672  -11.7900   17.6705  H     
28   H        -7.2158  -13.7868   13.9462  H     
29   H        -5.9285  -12.8739   15.8072  H     
30   H        -9.8559  -14.1138   13.1045  H     
31   H       -13.1375  -12.4131   15.7967  H     
32   H       -12.1389  -12.5902   17.2566  H     
33   H       -12.9155  -10.3178   18.1300  H     
34   H       -11.9286   -9.0213   17.4231  H     
35   H       -11.1396  -10.4360   18.1482  H     
@<TRIPOS>BOND
     1    1    2 1
     2    1    6 2
     3    2    3 2
     4    2    8 1
     5    3    4 1
     6    4    5 2
     7    4   11 1
     8    5    6 1
     9    6    7 1
    10    7    9 3
    11    8   10 3
    12   11   12 1
    13   12   13 1
    14   12   14 2
    15   13   17 2
    16   14   15 1
    17   14   18 1
    18   15   16 2
    19   15   20 1
    20   16   17 1
    21   18   19 2
    22   18   21 1
    23   19   20 1
    24   21   22 1
    25   22   23 1
    26    1   24 1
    27    3   25 1
    28    5   26 1
    29   13   27 1
    30   16   28 1
    31   17   29 1
    32   20   30 1
    33   21   31 1
    34   21   32 1
    35   23   33 1
    36   23   34 1
    37   23   35 1
@<TRIPOS>PROPERTY_DATA
  Total_Score	| 6.8459
  Crash		| -1.6261
  Polar		| 0.2017
  FragIndex	| 1
  FragRMSD	| 0.655

