@<TRIPOS>MOLECULE
BindingDB_27575
 31 33 0 0 0
SMALL
NO_CHARGES


@<TRIPOS>ATOM
1    C       -10.1544  -13.4839   21.6127  C     
2    C        -9.9666  -12.0908   21.4830  C     
3    C        -9.9841  -11.4964   20.2023  C     
4    C       -10.2020  -12.2719   19.0417  C     
5    C       -10.4140  -13.6741   19.2079  C     
6    C       -10.3680  -14.2756   20.4687  C     
7    C       -10.5083  -15.5665   20.6065  C     
8    C        -9.7830  -11.3499   22.5372  C     
9    N       -10.6211  -16.7045   20.7489  N     
10   N        -9.6247  -10.6907   23.4670  N     
11   O       -10.1807  -11.5367   17.8655  O     
12   C        -9.3554  -11.9459   16.8358  C     
13   C        -7.9464  -11.9675   16.9819  C     
14   C        -9.9267  -12.5160   15.6854  C     
15   C        -9.1290  -13.1381   14.7382  C     
16   C        -7.7348  -13.2132   14.8816  C     
17   C        -7.1435  -12.6065   16.0091  C     
18   C       -11.2097  -12.7066   15.2542  C     
19   N       -11.1700  -13.3806   14.1628  N     
20   N        -9.9697  -13.6369   13.8262  N     
21   C       -12.4205  -12.2755   15.9198  C     
22   Cl       -7.2024  -11.2777   18.3329  Cl    
23   H       -10.1317  -13.9234   22.5433  H     
24   H        -9.8320  -10.4847   20.1086  H     
25   H       -10.5869  -14.2696   18.3852  H     
26   H        -7.1660  -13.7082   14.1933  H     
27   H        -6.1273  -12.6537   16.1272  H     
28   H        -9.7117  -14.1911   13.0724  H     
29   H       -12.5038  -12.7595   16.8910  H     
30   H       -13.3020  -12.5357   15.3383  H     
31   H       -12.4058  -11.1932   16.0644  H     
@<TRIPOS>BOND
     1    1    2 1
     2    1    6 2
     3    2    3 2
     4    2    8 1
     5    3    4 1
     6    4    5 2
     7    4   11 1
     8    5    6 1
     9    6    7 1
    10    7    9 3
    11    8   10 3
    12   11   12 1
    13   12   13 1
    14   12   14 2
    15   13   17 2
    16   13   22 1
    17   14   15 1
    18   14   18 1
    19   15   16 2
    20   15   20 1
    21   16   17 1
    22   18   19 2
    23   18   21 1
    24   19   20 1
    25    1   23 1
    26    3   24 1
    27    5   25 1
    28   16   26 1
    29   17   27 1
    30   20   28 1
    31   21   29 1
    32   21   30 1
    33   21   31 1
@<TRIPOS>PROPERTY_DATA
  Total_Score	| 7.9455
  Crash		| -0.2402
  Polar		| 0.4475
  FragIndex	| 1
  FragRMSD	| 0.612

