@<TRIPOS>MOLECULE
BindingDB_27576
 31 33 0 0 0
SMALL
NO_CHARGES


@<TRIPOS>ATOM
1    C       -10.0812  -13.3972   21.5997  C     
2    C       -10.3189  -14.1355   20.4207  C     
3    C       -10.3470  -13.4709   19.1760  C     
4    C       -10.1092  -12.0787   19.0961  C     
5    C        -9.8672  -11.3529   20.2798  C     
6    C        -9.8595  -12.0036   21.5328  C     
7    C        -9.6741  -11.3161   22.6252  C     
8    C       -10.5383  -15.4189   20.4844  C     
9    N        -9.5186  -10.7137   23.5902  N     
10   N       -10.7450  -16.5470   20.5392  N     
11   O       -10.1633  -11.3811   17.9106  O     
12   C        -9.3298  -11.8737   16.9383  C     
13   C        -7.9194  -11.7668   17.0333  C     
14   C        -9.8723  -12.5222   15.8065  C     
15   C        -9.0424  -13.1202   14.8681  C     
16   C        -7.6434  -13.0551   14.9673  C     
17   C        -7.0831  -12.3548   16.0545  C     
18   C       -11.1420  -12.7715   15.3530  C     
19   N       -11.0619  -13.4733   14.2788  N     
20   N        -9.8479  -13.7005   13.9737  N     
21   C       -12.3783  -12.2706   15.9141  C     
22   F        -7.3829  -11.1411   18.0464  F     
23   H       -10.0799  -13.8727   22.5110  H     
24   H       -10.5375  -13.9942   18.3164  H     
25   H        -9.7124  -10.3408   20.2190  H     
26   H        -7.0489  -13.4956   14.2606  H     
27   H        -6.0657  -12.2856   16.1362  H     
28   H        -9.5376  -14.2128   13.2079  H     
29   H       -12.5135  -12.6399   16.9289  H     
30   H       -13.2375  -12.5781   15.3147  H     
31   H       -12.3471  -11.1819   15.9310  H     
@<TRIPOS>BOND
     1    1    2 1
     2    1    6 2
     3    2    3 2
     4    2    8 1
     5    3    4 1
     6    4    5 2
     7    4   11 1
     8    5    6 1
     9    6    7 1
    10    7    9 3
    11    8   10 3
    12   11   12 1
    13   12   13 1
    14   12   14 2
    15   13   17 2
    16   13   22 1
    17   14   15 1
    18   14   18 1
    19   15   16 2
    20   15   20 1
    21   16   17 1
    22   18   19 2
    23   18   21 1
    24   19   20 1
    25    1   23 1
    26    3   24 1
    27    5   25 1
    28   16   26 1
    29   17   27 1
    30   20   28 1
    31   21   29 1
    32   21   30 1
    33   21   31 1
@<TRIPOS>PROPERTY_DATA
  Total_Score	| 7.8120
  Crash		| -0.2030
  Polar		| 0.7114
  FragIndex	| 1
  FragRMSD	| 0.602

