@<TRIPOS>MOLECULE
BindingDB_50098577
 67 70 0 0 0
SMALL
NO_CHARGES


@<TRIPOS>ATOM
1    S       -33.3502    2.1615   43.5449  S     
2    N       -32.4495    0.9705   44.3565  N     
3    C       -28.6362   -6.7309   41.8527  C     
4    O       -28.0135   -7.8276   42.3782  O     
5    C       -29.6393   -6.0169   42.4860  C     
6    C       -32.4052   -1.3562   45.1669  C     
7    C       -30.8216   -4.2355   44.6055  C     
8    C       -28.0749   -6.4513   40.6061  C     
9    C       -33.1552   -0.1182   45.0012  C     
10   C       -33.7519    1.7069   41.9105  C     
11   N       -29.9852   -6.2984   43.7385  N     
12   N       -31.7159   -3.3962   44.0852  N     
13   C       -31.0252   -5.6812   44.5060  C     
14   C       -27.0649   -8.2267   41.4965  C     
15   C       -27.0690   -7.3863   40.3852  C     
16   C       -31.7063   -1.9578   44.0392  C     
17   O       -34.6781    2.5200   44.3443  O     
18   O       -32.5353    3.5328   43.5382  O     
19   N       -35.0568    1.4623   41.6024  N     
20   O       -32.1786   -1.7457   46.3046  O     
21   O       -30.1781   -5.0931   41.8883  O     
22   O       -29.7860   -3.8191   45.1117  O     
23   C       -31.0984   -6.3723   45.9009  C     
24   C       -31.0118    1.1122   44.4136  C     
25   C       -32.7606    1.5663   40.9222  C     
26   C       -30.2911    0.1583   43.4212  C     
27   C       -30.2872   -1.3382   43.8569  C     
28   C       -26.1344   -9.2805   41.5907  C     
29   C       -32.2130   -5.9042   46.8941  C     
30   C       -26.1502   -7.5430   39.3407  C     
31   C       -35.4523    1.0919   40.3592  C     
32   C       -33.6148   -5.7963   46.2333  C     
33   C       -32.2792   -6.8338   48.1362  C     
34   C       -33.1443    1.1809   39.6226  C     
35   C       -34.4999    0.9419   39.3355  C     
36   C       -25.1845   -9.4403   40.5574  C     
37   C       -25.1888   -8.5741   39.4410  C     
38   H       -28.3198   -5.6793   39.9809  H     
39   H       -33.5104    0.2494   45.9681  H     
40   H       -34.0418   -0.3813   44.4136  H     
41   H       -29.4927   -7.0262   44.1629  H     
42   H       -32.4906   -3.8148   43.6715  H     
43   H       -31.9628   -5.8864   43.9975  H     
44   H       -32.2698   -1.7232   43.1303  H     
45   H       -31.2114   -7.4530   45.7456  H     
46   H       -30.1251   -6.2305   46.3947  H     
47   H       -30.6999    2.1339   44.1757  H     
48   H       -30.6629    0.9177   45.4303  H     
49   H       -31.7746    1.7355   41.1373  H     
50   H       -30.7491    0.2464   42.4309  H     
51   H       -29.2503    0.4847   43.3272  H     
52   H       -29.7175   -1.4147   44.7845  H     
53   H       -29.7452   -1.9082   43.0972  H     
54   H       -26.1304   -9.8997   42.3998  H     
55   H       -31.9472   -4.9018   47.2625  H     
56   H       -26.1536   -6.9092   38.5387  H     
57   H       -36.4423    0.9197   40.1744  H     
58   H       -33.6085   -5.0636   45.4269  H     
59   H       -34.3523   -5.4739   46.9680  H     
60   H       -33.9232   -6.7658   45.8293  H     
61   H       -32.5140   -7.8545   47.8305  H     
62   H       -33.0427   -6.4929   48.8302  H     
63   H       -31.3229   -6.8365   48.6572  H     
64   H       -32.4367    1.0722   38.8974  H     
65   H       -34.7893    0.6628   38.3976  H     
66   H       -24.4889  -10.1868   40.6150  H     
67   H       -24.4910   -8.6913   38.6994  H     
@<TRIPOS>BOND
     1    1    2 1
     2    1   10 1
     3    1   17 2
     4    1   18 2
     5    2    9 1
     6    2   24 1
     7    3    4 1
     8    3    5 1
     9    3    8 2
    10    4   14 1
    11    5   11 am
    12    5   21 2
    13    6    9 1
    14    6   16 1
    15    6   20 2
    16    7   12 am
    17    7   13 1
    18    7   22 2
    19    8   15 1
    20   10   19 2
    21   10   25 1
    22   11   13 1
    23   16   12 1
    24   13   23 1
    25   14   15 2
    26   14   28 1
    27   15   30 1
    28   16   27 1
    29   19   31 1
    30   23   29 1
    31   24   26 1
    32   25   34 2
    33   26   27 1
    34   28   36 2
    35   29   32 1
    36   29   33 1
    37   30   37 2
    38   31   35 2
    39   34   35 1
    40   36   37 1
    41    8   38 1
    42    9   39 1
    43    9   40 1
    44   11   41 1
    45   12   42 1
    46   13   43 1
    47   16   44 1
    48   23   45 1
    49   23   46 1
    50   24   47 1
    51   24   48 1
    52   25   49 1
    53   26   50 1
    54   26   51 1
    55   27   52 1
    56   27   53 1
    57   28   54 1
    58   29   55 1
    59   30   56 1
    60   31   57 1
    61   32   58 1
    62   32   59 1
    63   32   60 1
    64   33   61 1
    65   33   62 1
    66   33   63 1
    67   34   64 1
    68   35   65 1
    69   36   66 1
    70   37   67 1
@<TRIPOS>PROPERTY_DATA
  Total_Score	| 2.0190
  Crash		| -1.3261
  Polar		| 0.9227
  FragIndex	| 1
  FragRMSD	| 0.983

