@<TRIPOS>MOLECULE
BindingDB_50098576
 100 105 0 0 0
SMALL
NO_CHARGES


@<TRIPOS>ATOM
1    C       -22.0291   -4.6728   38.4297  C     
2    N       -18.5699   -1.7253   32.9159  N     
3    O       -22.1792   -4.2454   39.7163  O     
4    C       -20.8514   -4.5630   37.7180  C     
5    C       -23.2497   -5.1808   37.9735  C     
6    C       -18.1974   -1.6298   34.2162  C     
7    C       -19.9380   -4.9135   34.3294  C     
8    C       -18.0458   -3.6575   31.4941  C     
9    N       -20.6986   -5.1940   36.5620  N     
10   C       -24.1529   -5.0322   39.0123  C     
11   N       -19.0121   -4.6326   33.4177  N     
12   C       -23.4629   -4.4698   40.0874  C     
13   C       -19.5407   -5.2095   35.7065  C     
14   C       -17.6844   -2.3076   31.9037  C     
15   C       -19.1985   -4.3993   32.0072  C     
16   N       -29.7457   -7.0319   42.7198  N     
17   C       -19.3656    2.4926   33.9013  C     
18   C       -18.9918   -1.0591   35.3150  C     
19   N       -19.4397    3.5694   31.7754  N     
20   C       -18.7466    3.2933   32.9133  C     
21   C       -25.5280   -5.3183   39.0829  C     
22   O       -19.9562   -3.8831   38.1961  O     
23   O       -17.3401   -4.1832   30.6352  O     
24   O       -17.1043   -2.0738   34.5701  O     
25   O       -21.1202   -4.9809   34.0069  O     
26   C       -18.7766    1.2768   34.3147  C     
27   C       -19.4723    0.3452   35.1324  C     
28   C       -18.8446   -6.6008   35.7897  C     
29   C       -24.1375   -4.1980   41.2930  C     
30   O       -29.2301   -8.0126   45.4056  O     
31   C       -26.2182   -5.0236   40.2747  C     
32   C       -19.8877   -1.3155   32.4356  C     
33   C       -25.5193   -4.4665   41.3775  C     
34   O       -27.5812   -5.1370   40.2775  O     
35   C       -28.7737   -5.9962   42.2271  C     
36   C       -28.1492   -6.3278   40.8510  C     
37   C       -30.5485   -6.5830   43.9044  C     
38   C       -29.1558   -8.3894   42.9648  C     
39   C       -20.6556    2.8255   34.3945  C     
40   C       -20.5387   -3.6908   31.6262  C     
41   C       -20.9206   -2.4633   32.4905  C     
42   C       -21.3121    1.9642   35.2909  C     
43   C       -18.5602   -7.1400   37.2309  C     
44   C       -18.9124    4.2392   30.7225  C     
45   C       -20.7341    0.7380   35.6507  C     
46   C       -29.7405   -6.6784   45.2256  C     
47   C       -28.4030   -8.4782   44.3207  C     
48   C       -17.4011    3.7387   33.0128  C     
49   C       -18.1356   -8.6361   37.1693  C     
50   C       -17.4839   -6.3062   37.9875  C     
51   C       -17.5799    4.6928   30.7781  C     
52   C       -16.8289    4.4374   31.9361  C     
53   H       -23.4627   -5.5430   37.0355  H     
54   H       -21.4485   -5.7310   36.2570  H     
55   H       -18.0959   -4.5830   33.7404  H     
56   H       -18.8198   -4.4462   36.0194  H     
57   H       -17.6819   -1.6687   31.0173  H     
58   H       -16.6414   -2.3353   32.2385  H     
59   H       -19.2137   -5.3798   31.5170  H     
60   H       -30.4318   -7.1366   41.9700  H     
61   H       -19.8539   -1.7204   35.4569  H     
62   H       -18.4366   -1.0787   36.2630  H     
63   H       -26.0161   -5.6922   38.2643  H     
64   H       -17.8644    1.0188   33.9336  H     
65   H       -19.4715   -7.3292   35.2606  H     
66   H       -17.8884   -6.5443   35.2619  H     
67   H       -23.6376   -3.7717   42.0785  H     
68   H       -20.2980   -0.4797   33.0005  H     
69   H       -19.8274   -0.9468   31.4052  H     
70   H       -26.0250   -4.2376   42.2350  H     
71   H       -29.2992   -5.0413   42.1089  H     
72   H       -27.9791   -5.8368   42.9533  H     
73   H       -28.9400   -6.6529   40.1744  H     
74   H       -27.4303   -7.1505   40.9383  H     
75   H       -30.9198   -5.5623   43.7733  H     
76   H       -31.4306   -7.2243   43.9904  H     
77   H       -29.9706   -9.1190   42.9791  H     
78   H       -28.4845   -8.6869   42.1603  H     
79   H       -21.1175    3.6890   34.1056  H     
80   H       -20.5185   -3.3962   30.5729  H     
81   H       -21.3427   -4.4202   31.7234  H     
82   H       -21.0637   -2.7687   33.5301  H     
83   H       -21.8788   -2.0804   32.1332  H     
84   H       -22.2399    2.2175   35.6479  H     
85   H       -19.4904   -7.0933   37.8096  H     
86   H       -19.4790    4.3982   29.8888  H     
87   H       -21.2635    0.0972   36.2518  H     
88   H       -30.3920   -6.4439   46.0677  H     
89   H       -28.9215   -5.9557   45.2245  H     
90   H       -27.4757   -7.9009   44.2829  H     
91   H       -28.1366   -9.5177   44.5193  H     
92   H       -16.8458    3.5512   33.8512  H     
93   H       -18.9242   -9.2340   36.6989  H     
94   H       -17.9688   -9.0252   38.1798  H     
95   H       -17.2123   -8.7474   36.5893  H     
96   H       -16.5743   -6.2135   37.3859  H     
97   H       -17.2279   -6.7857   38.9377  H     
98   H       -17.8590   -5.3054   38.2138  H     
99   H       -17.1691    5.1861   29.9822  H     
100  H       -15.8569    4.7589   31.9925  H     
@<TRIPOS>BOND
     1    1    3 1
     2    1    4 1
     3    1    5 2
     4    2    6 am
     5    2   14 1
     6    2   32 1
     7    3   12 1
     8    4    9 am
     9    4   22 2
    10    5   10 1
    11    6   18 1
    12    6   24 2
    13    7   11 am
    14    7   13 1
    15    7   25 2
    16    8   14 1
    17    8   15 1
    18    8   23 2
    19    9   13 1
    20   10   12 2
    21   10   21 1
    22   15   11 1
    23   12   29 1
    24   13   28 1
    25   15   40 1
    26   16   35 1
    27   16   37 1
    28   16   38 1
    29   17   20 1
    30   17   26 1
    31   17   39 2
    32   18   27 1
    33   19   20 2
    34   19   44 1
    35   20   48 1
    36   21   31 2
    37   26   27 2
    38   27   45 1
    39   28   43 1
    40   29   33 2
    41   30   46 1
    42   30   47 1
    43   31   33 1
    44   31   34 1
    45   32   41 1
    46   34   36 1
    47   35   36 1
    48   37   46 1
    49   38   47 1
    50   39   42 1
    51   40   41 1
    52   42   45 2
    53   43   49 1
    54   43   50 1
    55   44   51 2
    56   48   52 2
    57   51   52 1
    58    5   53 1
    59    9   54 1
    60   11   55 1
    61   13   56 1
    62   14   57 1
    63   14   58 1
    64   15   59 1
    65   16   60 1
    66   18   61 1
    67   18   62 1
    68   21   63 1
    69   26   64 1
    70   28   65 1
    71   28   66 1
    72   29   67 1
    73   32   68 1
    74   32   69 1
    75   33   70 1
    76   35   71 1
    77   35   72 1
    78   36   73 1
    79   36   74 1
    80   37   75 1
    81   37   76 1
    82   38   77 1
    83   38   78 1
    84   39   79 1
    85   40   80 1
    86   40   81 1
    87   41   82 1
    88   41   83 1
    89   42   84 1
    90   43   85 1
    91   44   86 1
    92   45   87 1
    93   46   88 1
    94   46   89 1
    95   47   90 1
    96   47   91 1
    97   48   92 1
    98   49   93 1
    99   49   94 1
   100   49   95 1
   101   50   96 1
   102   50   97 1
   103   50   98 1
   104   51   99 1
   105   52  100 1
@<TRIPOS>PROPERTY_DATA
  Total_Score	| 2.2456
  Crash		| -1.5103
  Polar		| 1.5703
  FragIndex	| 1
  FragRMSD	| 0.323

