@<TRIPOS>MOLECULE
BindingDB_29221
 32 33 0 0 0
SMALL
NO_CHARGES


@<TRIPOS>ATOM
1    C        -1.5274   -7.3002  -17.6206  C     
2    C        -1.4910   -5.9068  -17.5656  C     
3    C        -2.6376   -5.2236  -17.1357  C     
4    C        -3.8519   -5.8802  -16.8535  C     
5    C        -3.8835   -7.3240  -16.8158  C     
6    C        -2.6781   -8.0156  -17.2097  C     
7    C        -2.6090   -9.4198  -17.0796  C     
8    N        -4.9217   -8.1269  -16.2758  N     
9    C        -4.6208   -9.3732  -15.8604  C     
10   C        -3.5311  -10.0326  -16.3263  C     
11   O        -5.2548   -9.9479  -14.9662  O     
12   C        -1.5801  -10.2283  -17.7441  C     
13   O        -4.7936   -4.8885  -16.6751  O     
14   C        -5.5045   -4.1759  -15.6737  C     
15   O        -0.3103   -5.2591  -17.8227  O     
16   C        -0.3630   -3.8372  -17.6327  C     
17   C        -6.3343   -7.8008  -16.3462  C     
18   H        -0.6639   -7.7732  -17.8817  H     
19   H        -2.5742   -4.2020  -17.0788  H     
20   H        -3.4488  -11.0127  -16.1486  H     
21   H        -1.4963   -9.9336  -18.7905  H     
22   H        -1.7943  -11.2979  -17.7326  H     
23   H        -0.6183  -10.0817  -17.2581  H     
24   H        -6.3976   -4.8259  -15.4660  H     
25   H        -5.8856   -3.2282  -16.0673  H     
26   H        -4.9464   -3.9978  -14.7562  H     
27   H        -1.1831   -3.3911  -18.1950  H     
28   H         0.5779   -3.4154  -17.9856  H     
29   H        -0.4710   -3.5850  -16.5758  H     
30   H        -6.8759   -7.1884  -15.4286  H     
31   H        -6.9133   -8.7228  -16.3908  H     
32   H        -6.6367   -7.3369  -17.2665  H     
@<TRIPOS>BOND
     1    1    2 1
     2    1    6 2
     3    2    3 2
     4    2   15 1
     5    3    4 1
     6    4    5 2
     7    4   13 1
     8    5    6 1
     9    5    8 1
    10    6    7 1
    11    7   10 2
    12    7   12 1
    13    8    9 1
    14    8   17 1
    15    9   10 1
    16    9   11 2
    17   13   14 1
    18   15   16 1
    19    1   18 1
    20    3   19 1
    21   10   20 1
    22   12   21 1
    23   12   22 1
    24   12   23 1
    25   14   24 1
    26   14   25 1
    27   14   26 1
    28   16   27 1
    29   16   28 1
    30   16   29 1
    31   17   30 1
    32   17   31 1
    33   17   32 1
@<TRIPOS>PROPERTY_DATA
  Total_Score	| 5.6790
  Crash		| -1.2389
  Polar		| 1.1105
  FragIndex	| 1
  FragRMSD	| 0.456

