@<TRIPOS>MOLECULE
BindingDB_29217
 28 29 0 0 0
SMALL
NO_CHARGES


@<TRIPOS>ATOM
1    C        -1.5685   -7.3470  -17.7949  C     
2    C        -1.5341   -5.9742  -17.8595  C     
3    C        -2.6405   -5.2338  -17.3859  C     
4    C        -3.7730   -5.8680  -16.8651  C     
5    C        -3.7747   -7.3046  -16.7091  C     
6    C        -2.6483   -8.0467  -17.2147  C     
7    C        -2.6381   -9.4630  -17.1501  C     
8    N        -4.8254   -8.0660  -16.1165  N     
9    C        -4.7239   -9.4121  -16.0409  C     
10   C        -3.6751  -10.0879  -16.5679  C     
11   O        -5.5985  -10.1001  -15.5163  O     
12   C        -1.5702  -10.3039  -17.6884  C     
13   C        -6.0328   -7.4376  -15.5986  C     
14   O        -4.9252   -5.1092  -16.5882  O     
15   C        -4.9079   -4.3073  -15.3911  C     
16   H        -0.7535   -7.8288  -18.1919  H     
17   H        -0.7560   -5.4808  -18.2742  H     
18   H        -2.6152   -4.2269  -17.4800  H     
19   H        -3.7123  -11.0727  -16.5245  H     
20   H        -1.4378  -10.1059  -18.7527  H     
21   H        -1.7454  -11.3838  -17.5974  H     
22   H        -0.6402  -10.0933  -17.1595  H     
23   H        -5.7658   -6.7154  -14.8167  H     
24   H        -6.7551   -8.1273  -15.1449  H     
25   H        -6.5594   -6.9645  -16.4359  H     
26   H        -4.4118   -4.8403  -14.5604  H     
27   H        -5.9297   -4.0504  -15.0683  H     
28   H        -4.4098   -3.3606  -15.6016  H     
@<TRIPOS>BOND
     1    1    2 1
     2    1    6 2
     3    2    3 2
     4    3    4 1
     5    4    5 2
     6    4   14 1
     7    5    6 1
     8    5    8 1
     9    6    7 1
    10    7   10 2
    11    7   12 1
    12    8    9 1
    13    8   13 1
    14    9   10 1
    15    9   11 2
    16   14   15 1
    17    1   16 1
    18    2   17 1
    19    3   18 1
    20   10   19 1
    21   12   20 1
    22   12   21 1
    23   12   22 1
    24   13   23 1
    25   13   24 1
    26   13   25 1
    27   15   26 1
    28   15   27 1
    29   15   28 1
@<TRIPOS>PROPERTY_DATA
  Total_Score	| 4.9395
  Crash		| -0.5275
  Polar		| 1.1413
  FragIndex	| 1
  FragRMSD	| 0.251

