@<TRIPOS>MOLECULE
BindingDB_29214
 21 22 0 0 0
SMALL
NO_CHARGES


@<TRIPOS>ATOM
1    C        -1.6492   -7.3240  -17.8902  C     
2    C        -1.7261   -5.9196  -17.9425  C     
3    C        -2.8200   -5.2497  -17.3699  C     
4    C        -3.8416   -5.9814  -16.7429  C     
5    C        -3.7640   -7.3865  -16.6853  C     
6    C        -2.6649   -8.0895  -17.2616  C     
7    C        -2.6640   -9.5075  -17.1622  C     
8    N        -4.7611   -8.0960  -16.0763  N     
9    C        -4.7310   -9.4205  -15.9971  C     
10   C        -3.6943  -10.1273  -16.5346  C     
11   O        -5.6536   -9.9882  -15.4310  O     
12   C        -1.5756  -10.3087  -17.7227  C     
13   H        -0.8397   -7.7763  -18.3149  H     
14   H        -0.9840   -5.3826  -18.3953  H     
15   H        -2.8714   -4.2299  -17.4065  H     
16   H        -4.6356   -5.4882  -16.3261  H     
17   H        -5.5088   -7.6171  -15.6838  H     
18   H        -3.7091  -11.1175  -16.4548  H     
19   H        -1.5066  -10.1362  -18.7976  H     
20   H        -1.7060  -11.3824  -17.5750  H     
21   H        -0.6305  -10.0257  -17.2544  H     
@<TRIPOS>BOND
     1    1    2 1
     2    1    6 2
     3    2    3 2
     4    3    4 1
     5    4    5 2
     6    5    6 1
     7    5    8 1
     8    6    7 1
     9    7   10 2
    10    7   12 1
    11    8    9 1
    12    9   10 1
    13    9   11 2
    14    1   13 1
    15    2   14 1
    16    3   15 1
    17    4   16 1
    18    8   17 1
    19   10   18 1
    20   12   19 1
    21   12   20 1
    22   12   21 1
@<TRIPOS>PROPERTY_DATA
  Total_Score	| 4.1367
  Crash		| -0.4893
  Polar		| 1.1673
  FragIndex	| 1
  FragRMSD	| 0.060

