@<TRIPOS>MOLECULE
BindingDB_29219
 32 33 0 0 0
SMALL
NO_CHARGES


@<TRIPOS>ATOM
1    C        -1.5332   -7.4182  -17.8571  C     
2    C        -1.4562   -6.0192  -17.8045  C     
3    C        -2.4819   -5.2748  -17.1841  C     
4    C        -3.6132   -5.9551  -16.6638  C     
5    C        -3.7240   -7.3773  -16.7607  C     
6    C        -2.6259   -8.1251  -17.2948  C     
7    C        -2.6103   -9.5334  -17.1594  C     
8    N        -4.8240   -8.1159  -16.2754  N     
9    C        -4.6643   -9.4219  -15.9743  C     
10   C        -3.5943  -10.1192  -16.4321  C     
11   O        -5.5534  -10.0662  -15.4177  O     
12   C        -1.5633  -10.3647  -17.7569  C     
13   O        -4.5671   -5.1826  -16.0488  O     
14   C        -4.4881   -5.1510  -14.6118  C     
15   O        -2.3943   -3.9111  -16.9642  O     
16   C        -1.1780   -3.1854  -17.2560  C     
17   C        -6.1630   -7.5566  -16.2027  C     
18   H        -0.7246   -7.9054  -18.2462  H     
19   H        -0.6112   -5.5548  -18.1642  H     
20   H        -3.5505  -11.0918  -16.2522  H     
21   H        -1.5378  -10.1937  -18.8356  H     
22   H        -1.6972  -11.4338  -17.6069  H     
23   H        -0.5966  -10.1022  -17.3378  H     
24   H        -4.6226   -6.1481  -14.1872  H     
25   H        -5.2823   -4.5110  -14.2399  H     
26   H        -3.5405   -4.7296  -14.2756  H     
27   H        -0.3718   -3.4853  -16.5749  H     
28   H        -1.3652   -2.1198  -17.0915  H     
29   H        -0.8729   -3.3463  -18.3014  H     
30   H        -6.4011   -7.2659  -15.1704  H     
31   H        -6.9163   -8.2736  -16.5502  H     
32   H        -6.2930   -6.6871  -16.8532  H     
@<TRIPOS>BOND
     1    1    2 1
     2    1    6 2
     3    2    3 2
     4    3    4 1
     5    3   15 1
     6    4    5 2
     7    4   13 1
     8    5    6 1
     9    5    8 1
    10    6    7 1
    11    7   10 2
    12    7   12 1
    13    8    9 1
    14    8   17 1
    15    9   10 1
    16    9   11 2
    17   13   14 1
    18   15   16 1
    19    1   18 1
    20    2   19 1
    21   10   20 1
    22   12   21 1
    23   12   22 1
    24   12   23 1
    25   14   24 1
    26   14   25 1
    27   14   26 1
    28   16   27 1
    29   16   28 1
    30   16   29 1
    31   17   30 1
    32   17   31 1
    33   17   32 1
@<TRIPOS>PROPERTY_DATA
  Total_Score	| 5.2417
  Crash		| -0.7469
  Polar		| 1.1748
  FragIndex	| 1
  FragRMSD	| 0.234

