@<TRIPOS>MOLECULE
BindingDB_29216
 25 26 0 0 0
SMALL
NO_CHARGES


@<TRIPOS>ATOM
1    C        -1.5834   -7.3509  -17.8076  C     
2    C        -1.6477   -5.9449  -17.8631  C     
3    C        -2.7599   -5.2780  -17.3287  C     
4    C        -3.8128   -5.9967  -16.7126  C     
5    C        -3.7370   -7.4098  -16.6667  C     
6    C        -2.6311   -8.1126  -17.2286  C     
7    C        -2.6351   -9.5355  -17.1594  C     
8    N        -4.7456   -8.1390  -16.0988  N     
9    C        -4.7042   -9.4622  -16.0061  C     
10   C        -3.6634  -10.1639  -16.5353  C     
11   O        -5.6291  -10.0292  -15.4457  O     
12   C        -1.5686  -10.3275  -17.7725  C     
13   O        -4.9358   -5.4290  -16.1617  O     
14   C        -4.9403   -4.0497  -15.7245  C     
15   H        -0.7624   -7.8104  -18.2097  H     
16   H        -0.8853   -5.4083  -18.2861  H     
17   H        -2.7851   -4.2562  -17.3801  H     
18   H        -5.5127   -7.6729  -15.7359  H     
19   H        -3.6792  -11.1556  -16.4475  H     
20   H        -1.5030  -10.0913  -18.8324  H     
21   H        -1.7165  -11.4057  -17.6851  H     
22   H        -0.6163  -10.0804  -17.2924  H     
23   H        -4.1260   -3.8528  -15.0148  H     
24   H        -5.8723   -3.8591  -15.2252  H     
25   H        -4.8586   -3.3774  -16.5856  H     
@<TRIPOS>BOND
     1    1    2 1
     2    1    6 2
     3    2    3 2
     4    3    4 1
     5    4    5 2
     6    4   13 1
     7    5    6 1
     8    5    8 1
     9    6    7 1
    10    7   10 2
    11    7   12 1
    12    8    9 1
    13    9   10 1
    14    9   11 2
    15   13   14 1
    16    1   15 1
    17    2   16 1
    18    3   17 1
    19    8   18 1
    20   10   19 1
    21   12   20 1
    22   12   21 1
    23   12   22 1
    24   14   23 1
    25   14   24 1
    26   14   25 1
@<TRIPOS>PROPERTY_DATA
  Total_Score	| 5.1577
  Crash		| -0.4550
  Polar		| 1.1668
  FragIndex	| 1
  FragRMSD	| 0.334

