@<TRIPOS>MOLECULE
BindingDB_29212
 24 26 0 0 0
SMALL
NO_CHARGES


@<TRIPOS>ATOM
1    C        -1.5898   -7.2520  -17.6953  C     
2    C        -1.6563   -5.8457  -17.6071  C     
3    C        -2.7324   -5.2551  -16.9282  C     
4    C        -3.7237   -6.0324  -16.3513  C     
5    C        -3.6697   -7.4356  -16.4281  C     
6    C        -2.5907   -8.0760  -17.1096  C     
7    C        -2.5921   -9.4978  -17.1463  C     
8    N        -4.6459   -8.1971  -15.8528  N     
9    C        -4.6217   -9.5224  -15.9130  C     
10   C        -3.6057  -10.1751  -16.5525  C     
11   O        -5.5339  -10.1406  -15.3862  O     
12   O        -2.9512   -3.9413  -16.7286  O     
13   C        -4.2871   -3.9564  -16.1894  C     
14   O        -4.6615   -5.2743  -15.7504  O     
15   C        -1.5222  -10.2425  -17.8127  C     
16   H        -0.7952   -7.6614  -18.1877  H     
17   H        -0.9296   -5.2622  -18.0285  H     
18   H        -5.3760   -7.7582  -15.3861  H     
19   H        -3.6264  -11.1693  -16.5760  H     
20   H        -4.3506   -3.2590  -15.3524  H     
21   H        -4.9864   -3.6263  -16.9620  H     
22   H        -1.4948   -9.9781  -18.8710  H     
23   H        -1.6418  -11.3264  -17.7486  H     
24   H        -0.5610   -9.9943  -17.3585  H     
@<TRIPOS>BOND
     1    1    2 1
     2    1    6 2
     3    2    3 2
     4    3    4 1
     5    3   12 1
     6    4    5 2
     7    4   14 1
     8    5    6 1
     9    5    8 1
    10    6    7 1
    11    7   10 2
    12    7   15 1
    13    8    9 1
    14    9   10 1
    15    9   11 2
    16   12   13 1
    17   13   14 1
    18    1   16 1
    19    2   17 1
    20    8   18 1
    21   10   19 1
    22   13   20 1
    23   13   21 1
    24   15   22 1
    25   15   23 1
    26   15   24 1
@<TRIPOS>PROPERTY_DATA
  Total_Score	| 3.9667
  Crash		| -0.6096
  Polar		| 1.0418
  FragIndex	| 1
  FragRMSD	| 0.545

