@<TRIPOS>MOLECULE
BindingDB_29227
 36 37 0 0 0
SMALL
NO_CHARGES


@<TRIPOS>ATOM
1    C        -1.5847   -7.2027  -17.2955  C     
2    C        -1.6826   -5.8179  -17.5236  C     
3    C        -2.9316   -5.2022  -17.3462  C     
4    C        -4.0369   -5.9256  -16.8573  C     
5    C        -3.9845   -7.3500  -16.7409  C     
6    C        -2.7386   -7.9979  -17.0411  C     
7    C        -2.6869   -9.4154  -17.0085  C     
8    N        -5.0691   -8.1610  -16.3253  N     
9    C        -4.8558   -9.4686  -16.0671  C     
10   C        -3.7082  -10.0892  -16.4428  C     
11   O        -5.7033  -10.1800  -15.5370  O     
12   C        -1.6258  -10.1892  -17.6706  C     
13   O        -5.1378   -5.1762  -16.5327  O     
14   C        -5.1153   -4.6478  -15.1914  C     
15   O        -0.5302   -5.1585  -17.9018  O     
16   C        -0.3606   -3.7673  -17.5820  C     
17   O        -0.3176   -7.7131  -17.1847  O     
18   C        -0.0073   -8.0430  -15.8141  C     
19   C        -6.4230   -7.6413  -16.2019  C     
20   H        -3.0203   -4.1957  -17.4886  H     
21   H        -3.6574  -11.0808  -16.3688  H     
22   H        -1.3993   -9.7538  -18.6456  H     
23   H        -1.9024  -11.2309  -17.8511  H     
24   H        -0.7196  -10.1966  -17.0651  H     
25   H        -5.0127   -5.4387  -14.4442  H     
26   H        -6.0609   -4.1342  -15.0172  H     
27   H        -4.3077   -3.9237  -15.0619  H     
28   H        -0.9693   -3.1508  -18.2502  H     
29   H         0.6850   -3.5048  -17.7437  H     
30   H        -0.6141   -3.5501  -16.5390  H     
31   H        -0.0137   -7.1536  -15.1823  H     
32   H         0.9860   -8.4787  -15.7832  H     
33   H        -0.7038   -8.7805  -15.4025  H     
34   H        -6.4928   -6.9824  -15.3372  H     
35   H        -7.1974   -8.4026  -16.0777  H     
36   H        -6.6951   -7.0961  -17.1055  H     
@<TRIPOS>BOND
     1    1    2 1
     2    1    6 2
     3    1   17 1
     4    2    3 2
     5    2   15 1
     6    3    4 1
     7    4    5 2
     8    4   13 1
     9    5    6 1
    10    5    8 1
    11    6    7 1
    12    7   10 2
    13    7   12 1
    14    8    9 1
    15    8   19 1
    16    9   10 1
    17    9   11 2
    18   13   14 1
    19   15   16 1
    20   17   18 1
    21    3   20 1
    22   10   21 1
    23   12   22 1
    24   12   23 1
    25   12   24 1
    26   14   25 1
    27   14   26 1
    28   14   27 1
    29   16   28 1
    30   16   29 1
    31   16   30 1
    32   18   31 1
    33   18   32 1
    34   18   33 1
    35   19   34 1
    36   19   35 1
    37   19   36 1
@<TRIPOS>PROPERTY_DATA
  Total_Score	| 5.0235
  Crash		| -1.4495
  Polar		| 1.1547
  FragIndex	| 1
  FragRMSD	| 0.306

