@<TRIPOS>MOLECULE
BindingDB_29223
 32 33 0 0 0
SMALL
NO_CHARGES


@<TRIPOS>ATOM
1    C        -1.3795   -7.2508  -17.2010  C     
2    C        -1.4500   -5.9124  -17.6114  C     
3    C        -2.6979   -5.2817  -17.6786  C     
4    C        -3.8399   -5.9201  -17.1385  C     
5    C        -3.7734   -7.2666  -16.6838  C     
6    C        -2.5815   -7.9777  -17.0118  C     
7    C        -2.6304   -9.3780  -17.1045  C     
8    N        -4.7537   -7.9700  -15.9473  N     
9    C        -4.7069   -9.3278  -15.9592  C     
10   C        -3.7125  -10.0126  -16.6058  C     
11   O        -5.4935  -10.0188  -15.3180  O     
12   C        -1.6663  -10.0915  -17.9577  C     
13   O        -4.9684   -5.1744  -16.9597  O     
14   C        -4.7514   -4.1867  -15.9358  C     
15   O        -0.1511   -7.7623  -16.8548  O     
16   C        -0.0772   -8.2216  -15.4789  C     
17   C        -5.6739   -7.3420  -14.9891  C     
18   H        -0.5982   -5.3894  -17.8291  H     
19   H        -2.7443   -4.3089  -17.9869  H     
20   H        -3.7924  -10.9999  -16.7113  H     
21   H        -2.0827  -11.0065  -18.3762  H     
22   H        -0.7884  -10.3637  -17.3826  H     
23   H        -1.3204   -9.4584  -18.7868  H     
24   H        -4.1038   -4.6034  -15.1427  H     
25   H        -5.7140   -3.8948  -15.5133  H     
26   H        -4.2860   -3.2954  -16.3587  H     
27   H         0.9189   -8.0158  -15.0956  H     
28   H        -0.2293   -9.2974  -15.4387  H     
29   H        -0.8178   -7.7738  -14.8057  H     
30   H        -5.6655   -6.2534  -14.8387  H     
31   H        -5.4699   -7.7503  -13.9980  H     
32   H        -6.6963   -7.6097  -15.2566  H     
@<TRIPOS>BOND
     1    1    2 1
     2    1    6 2
     3    1   15 1
     4    2    3 2
     5    3    4 1
     6    4    5 2
     7    4   13 1
     8    5    6 1
     9    5    8 1
    10    6    7 1
    11    7   10 2
    12    7   12 1
    13    8    9 1
    14    8   17 1
    15    9   10 1
    16    9   11 2
    17   13   14 1
    18   15   16 1
    19    2   18 1
    20    3   19 1
    21   10   20 1
    22   12   21 1
    23   12   22 1
    24   12   23 1
    25   14   24 1
    26   14   25 1
    27   14   26 1
    28   16   27 1
    29   16   28 1
    30   16   29 1
    31   17   30 1
    32   17   31 1
    33   17   32 1
@<TRIPOS>PROPERTY_DATA
  Total_Score	| 4.4272
  Crash		| -1.3523
  Polar		| 1.1431
  FragIndex	| 1
  FragRMSD	| 0.482

