@<TRIPOS>MOLECULE
BindingDB_29225
 36 37 0 0 0
SMALL
NO_CHARGES


@<TRIPOS>ATOM
1    C        -1.7228   -7.1146  -17.5755  C     
2    C        -1.8043   -5.7132  -17.4602  C     
3    C        -2.9646   -5.1307  -16.9087  C     
4    C        -4.0203   -5.9509  -16.4530  C     
5    C        -3.9782   -7.3650  -16.6405  C     
6    C        -2.7663   -7.9607  -17.1186  C     
7    C        -2.6631   -9.3751  -17.0912  C     
8    N        -5.0471   -8.2187  -16.3223  N     
9    C        -4.8029   -9.5214  -16.0877  C     
10   C        -3.6328  -10.0943  -16.4841  C     
11   O        -5.6633  -10.2606  -15.6201  O     
12   C        -1.5163  -10.0726  -17.6671  C     
13   O        -5.0764   -5.3104  -15.8500  O     
14   C        -5.0498   -5.3726  -14.4104  C     
15   O        -3.1496   -3.7708  -16.9163  O     
16   O        -0.7885   -4.9101  -17.9132  O     
17   C         0.3785   -4.9119  -17.0683  C     
18   C        -2.4883   -2.9992  -15.8961  C     
19   C        -6.4347   -7.7992  -16.4011  C     
20   H        -0.8670   -7.5105  -17.9749  H     
21   H        -3.5268  -11.0807  -16.3825  H     
22   H        -1.4127   -9.7880  -18.7155  H     
23   H        -1.6003  -11.1570  -17.6432  H     
24   H        -0.6051   -9.8001  -17.1324  H     
25   H        -5.1409   -6.3985  -14.0487  H     
26   H        -5.9035   -4.8062  -14.0340  H     
27   H        -4.1429   -4.9330  -13.9943  H     
28   H         0.1340   -4.6545  -16.0330  H     
29   H         1.0746   -4.1662  -17.4437  H     
30   H         0.8765   -5.8837  -17.0817  H     
31   H        -2.5921   -3.4427  -14.9062  H     
32   H        -2.9336   -2.0038  -15.8746  H     
33   H        -1.4254   -2.8783  -16.1212  H     
34   H        -6.8574   -7.6863  -15.4018  H     
35   H        -7.0388   -8.5333  -16.9435  H     
36   H        -6.5606   -6.8704  -16.9469  H     
@<TRIPOS>BOND
     1    1    2 1
     2    1    6 2
     3    2    3 2
     4    2   16 1
     5    3    4 1
     6    3   15 1
     7    4    5 2
     8    4   13 1
     9    5    6 1
    10    5    8 1
    11    6    7 1
    12    7   10 2
    13    7   12 1
    14    8    9 1
    15    8   19 1
    16    9   10 1
    17    9   11 2
    18   13   14 1
    19   15   18 1
    20   16   17 1
    21    1   20 1
    22   10   21 1
    23   12   22 1
    24   12   23 1
    25   12   24 1
    26   14   25 1
    27   14   26 1
    28   14   27 1
    29   17   28 1
    30   17   29 1
    31   17   30 1
    32   18   31 1
    33   18   32 1
    34   18   33 1
    35   19   34 1
    36   19   35 1
    37   19   36 1
@<TRIPOS>PROPERTY_DATA
  Total_Score	| 4.9471
  Crash		| -1.0194
  Polar		| 1.1066
  FragIndex	| 1
  FragRMSD	| 0.378

