@<TRIPOS>MOLECULE
BindingDB_29218
 29 30 0 0 0
SMALL
NO_CHARGES


@<TRIPOS>ATOM
1    C        -1.3920   -7.4760  -17.7272  C     
2    C        -1.3500   -6.0644  -17.7244  C     
3    C        -2.4406   -5.3111  -17.2426  C     
4    C        -3.5750   -5.9943  -16.7362  C     
5    C        -3.6114   -7.4124  -16.7387  C     
6    C        -2.5126   -8.1727  -17.2433  C     
7    C        -2.5981   -9.5842  -17.1965  C     
8    N        -4.6688   -8.0897  -16.1746  N     
9    C        -4.6810   -9.4143  -16.0573  C     
10   C        -3.6522  -10.1557  -16.5691  C     
11   O        -5.6091   -9.9460  -15.4571  O     
12   C        -1.5720  -10.4295  -17.8014  C     
13   O        -4.6215   -5.2756  -16.2283  O     
14   C        -4.5401   -5.0798  -14.8046  C     
15   O        -2.4836   -3.9354  -17.1923  O     
16   C        -1.2607   -3.1671  -17.2484  C     
17   H        -0.5718   -7.9723  -18.0617  H     
18   H        -0.4934   -5.6153  -18.0462  H     
19   H        -5.3971   -7.5753  -15.8033  H     
20   H        -3.7230  -11.1480  -16.4922  H     
21   H        -1.5096  -10.2010  -18.8614  H     
22   H        -1.7828  -11.4872  -17.7012  H     
23   H        -0.6102  -10.2305  -17.3332  H     
24   H        -4.6341   -6.0308  -14.2754  H     
25   H        -5.3449   -4.4294  -14.4983  H     
26   H        -3.5966   -4.6029  -14.5112  H     
27   H        -0.5503   -3.4597  -16.4579  H     
28   H        -1.5131   -2.1019  -17.0961  H     
29   H        -0.7842   -3.2568  -18.2388  H     
@<TRIPOS>BOND
     1    1    2 1
     2    1    6 2
     3    2    3 2
     4    3    4 1
     5    3   15 1
     6    4    5 2
     7    4   13 1
     8    5    6 1
     9    5    8 1
    10    6    7 1
    11    7   10 2
    12    7   12 1
    13    8    9 1
    14    9   10 1
    15    9   11 2
    16   13   14 1
    17   15   16 1
    18    1   17 1
    19    2   18 1
    20    8   19 1
    21   10   20 1
    22   12   21 1
    23   12   22 1
    24   12   23 1
    25   14   24 1
    26   14   25 1
    27   14   26 1
    28   16   27 1
    29   16   28 1
    30   16   29 1
@<TRIPOS>PROPERTY_DATA
  Total_Score	| 4.9686
  Crash		| -0.6540
  Polar		| 1.1608
  FragIndex	| 1
  FragRMSD	| 0.218

