@<TRIPOS>MOLECULE
BindingDB_29226
 33 34 0 0 0
SMALL
NO_CHARGES


@<TRIPOS>ATOM
1    C        -1.5203   -7.3220  -17.3734  C     
2    C        -1.6112   -5.9183  -17.5194  C     
3    C        -2.8404   -5.2743  -17.2795  C     
4    C        -3.9448   -5.9996  -16.8003  C     
5    C        -3.8574   -7.4038  -16.6961  C     
6    C        -2.6704   -8.1030  -17.0654  C     
7    C        -2.7246   -9.5290  -17.0605  C     
8    N        -4.9183   -8.1166  -16.2066  N     
9    C        -4.8723   -9.4338  -16.0595  C     
10   C        -3.8033  -10.1434  -16.5166  C     
11   O        -5.8217   -9.9985  -15.5365  O     
12   C        -1.7281  -10.3558  -17.7520  C     
13   O        -5.1080   -5.3399  -16.5057  O     
14   C        -5.1998   -4.9272  -15.1311  C     
15   O        -0.5153   -5.2138  -17.9528  O     
16   C         0.1020   -4.3578  -16.9752  C     
17   O        -0.2784   -7.8873  -17.4600  O     
18   C         0.1666   -8.4222  -16.1955  C     
19   H        -2.9189   -4.2634  -17.4041  H     
20   H        -5.7083   -7.6393  -15.9064  H     
21   H        -3.8539  -11.1355  -16.4911  H     
22   H        -1.5307   -9.9493  -18.7458  H     
23   H        -2.0453  -11.3912  -17.8908  H     
24   H        -0.7964  -10.3886  -17.1918  H     
25   H        -5.1614   -5.7826  -14.4515  H     
26   H        -6.1589   -4.4270  -14.9945  H     
27   H        -4.4069   -4.2206  -14.8734  H     
28   H        -0.5520   -3.5236  -16.7137  H     
29   H         1.0144   -3.9494  -17.4101  H     
30   H         0.3713   -4.9036  -16.0688  H     
31   H         0.3857   -7.6246  -15.4871  H     
32   H         1.0763   -8.9876  -16.3794  H     
33   H        -0.5568   -9.1065  -15.7424  H     
@<TRIPOS>BOND
     1    1    2 1
     2    1    6 2
     3    1   17 1
     4    2    3 2
     5    2   15 1
     6    3    4 1
     7    4    5 2
     8    4   13 1
     9    5    6 1
    10    5    8 1
    11    6    7 1
    12    7   10 2
    13    7   12 1
    14    8    9 1
    15    9   10 1
    16    9   11 2
    17   13   14 1
    18   15   16 1
    19   17   18 1
    20    3   19 1
    21    8   20 1
    22   10   21 1
    23   12   22 1
    24   12   23 1
    25   12   24 1
    26   14   25 1
    27   14   26 1
    28   14   27 1
    29   16   28 1
    30   16   29 1
    31   16   30 1
    32   18   31 1
    33   18   32 1
    34   18   33 1
@<TRIPOS>PROPERTY_DATA
  Total_Score	| 4.4047
  Crash		| -1.6250
  Polar		| 1.1161
  FragIndex	| 1
  FragRMSD	| 0.245

