@<TRIPOS>MOLECULE
BindingDB_29224
 33 34 0 0 0
SMALL
NO_CHARGES


@<TRIPOS>ATOM
1    C        -1.6860   -7.1621  -17.5572  C     
2    C        -1.7798   -5.7561  -17.4665  C     
3    C        -2.9575   -5.1628  -16.9570  C     
4    C        -4.0103   -5.9791  -16.4897  C     
5    C        -3.8858   -7.3852  -16.5475  C     
6    C        -2.7214   -8.0052  -17.0849  C     
7    C        -2.6633   -9.4268  -17.0936  C     
8    N        -4.8905   -8.1834  -16.0795  N     
9    C        -4.7898   -9.5024  -16.0448  C     
10   C        -3.6947  -10.1294  -16.5586  C     
11   O        -5.7168  -10.1344  -15.5615  O     
12   C        -1.5340  -10.1470  -17.6918  C     
13   O        -5.1859   -5.4027  -16.0808  O     
14   C        -5.3091   -5.2417  -14.6563  C     
15   O        -3.1579   -3.8075  -16.9824  O     
16   O        -0.7554   -4.9655  -17.9228  O     
17   C         0.3943   -4.9675  -17.0506  C     
18   C        -2.4716   -3.0300  -15.9882  C     
19   H        -0.8348   -7.5618  -17.9621  H     
20   H        -5.6879   -7.7667  -15.7232  H     
21   H        -3.6651  -11.1253  -16.5324  H     
22   H        -1.4359   -9.8648  -18.7434  H     
23   H        -1.6404  -11.2352  -17.6574  H     
24   H        -0.6140   -9.8889  -17.1663  H     
25   H        -5.2905   -6.1969  -14.1279  H     
26   H        -6.2702   -4.7664  -14.4498  H     
27   H        -4.5257   -4.5995  -14.2551  H     
28   H         0.1269   -4.7286  -16.0151  H     
29   H         1.0920   -4.2087  -17.4006  H     
30   H         0.9026   -5.9342  -17.0695  H     
31   H        -2.5329   -3.4706  -14.9928  H     
32   H        -2.9391   -2.0422  -15.9505  H     
33   H        -1.4264   -2.8932  -16.2598  H     
@<TRIPOS>BOND
     1    1    2 1
     2    1    6 2
     3    2    3 2
     4    2   16 1
     5    3    4 1
     6    3   15 1
     7    4    5 2
     8    4   13 1
     9    5    6 1
    10    5    8 1
    11    6    7 1
    12    7   10 2
    13    7   12 1
    14    8    9 1
    15    9   10 1
    16    9   11 2
    17   13   14 1
    18   15   18 1
    19   16   17 1
    20    1   19 1
    21    8   20 1
    22   10   21 1
    23   12   22 1
    24   12   23 1
    25   12   24 1
    26   14   25 1
    27   14   26 1
    28   14   27 1
    29   17   28 1
    30   17   29 1
    31   17   30 1
    32   18   31 1
    33   18   32 1
    34   18   33 1
@<TRIPOS>PROPERTY_DATA
  Total_Score	| 4.7173
  Crash		| -0.7881
  Polar		| 1.1155
  FragIndex	| 1
  FragRMSD	| 0.320

