@<TRIPOS>MOLECULE
BindingDB_29228
 37 38 0 0 0
SMALL
NO_CHARGES


@<TRIPOS>ATOM
1    C        -1.5623   -7.2739  -17.2452  C     
2    C        -1.7001   -5.8595  -17.3679  C     
3    C        -2.9482   -5.2442  -17.0874  C     
4    C        -4.0353   -6.0371  -16.6772  C     
5    C        -3.9129   -7.4381  -16.6347  C     
6    C        -2.7000   -8.0935  -16.9942  C     
7    C        -2.7168   -9.5210  -17.0428  C     
8    N        -4.9545   -8.1837  -16.1820  N     
9    C        -4.8653   -9.4999  -16.0327  C     
10   C        -3.7668  -10.1749  -16.4967  C     
11   O        -5.8057  -10.0945  -15.5409  O     
12   C        -1.7130  -10.2725  -17.8163  C     
13   O        -5.2520   -5.4842  -16.3960  O     
14   C        -5.3780   -4.9533  -15.0703  C     
15   O        -0.6840   -5.0734  -17.8687  O     
16   C         0.4324   -4.8564  -16.9815  C     
17   O        -0.2937   -7.8090  -17.2806  O     
18   C         0.1300   -8.3290  -15.9935  C     
19   O        -3.1956   -3.8946  -17.1636  O     
20   C        -2.5934   -3.0463  -16.1525  C     
21   H        -5.7630   -7.7314  -15.9008  H     
22   H        -3.7944  -11.1650  -16.4937  H     
23   H        -1.6540   -9.8891  -18.8360  H     
24   H        -1.9553  -11.3346  -17.9040  H     
25   H        -0.7053  -10.2008  -17.3912  H     
26   H        -5.2012   -5.6992  -14.2915  H     
27   H        -6.3915   -4.5792  -14.9478  H     
28   H        -4.6851   -4.1275  -14.9134  H     
29   H         0.1204   -4.5600  -15.9712  H     
30   H         1.0383   -4.0533  -17.4002  H     
31   H         1.0747   -5.7373  -16.8896  H     
32   H         0.2031   -7.5487  -15.2431  H     
33   H         1.1024   -8.7851  -16.1372  H     
34   H        -0.5402   -9.1413  -15.6375  H     
35   H        -2.5824   -3.5101  -15.1601  H     
36   H        -3.1536   -2.1122  -16.0919  H     
37   H        -1.5642   -2.8204  -16.4467  H     
@<TRIPOS>BOND
     1    1    2 1
     2    1    6 2
     3    1   17 1
     4    2    3 2
     5    2   15 1
     6    3    4 1
     7    3   19 1
     8    4    5 2
     9    4   13 1
    10    5    6 1
    11    5    8 1
    12    6    7 1
    13    7   10 2
    14    7   12 1
    15    8    9 1
    16    9   10 1
    17    9   11 2
    18   13   14 1
    19   15   16 1
    20   17   18 1
    21   19   20 1
    22    8   21 1
    23   10   22 1
    24   12   23 1
    25   12   24 1
    26   12   25 1
    27   14   26 1
    28   14   27 1
    29   14   28 1
    30   16   29 1
    31   16   30 1
    32   16   31 1
    33   18   32 1
    34   18   33 1
    35   18   34 1
    36   20   35 1
    37   20   36 1
    38   20   37 1
@<TRIPOS>PROPERTY_DATA
  Total_Score	| 4.0795
  Crash		| -2.2853
  Polar		| 1.1499
  FragIndex	| 1
  FragRMSD	| 0.335

