@<TRIPOS>MOLECULE
BindingDB_29222
 29 30 0 0 0
SMALL
NO_CHARGES


@<TRIPOS>ATOM
1    C        -1.4829   -7.3617  -17.5109  C     
2    C        -1.5852   -5.9673  -17.6882  C     
3    C        -2.7931   -5.3047  -17.4101  C     
4    C        -3.8983   -6.0100  -16.8997  C     
5    C        -3.7875   -7.4148  -16.7618  C     
6    C        -2.6229   -8.1323  -17.1606  C     
7    C        -2.6687   -9.5587  -17.1040  C     
8    N        -4.7917   -8.1135  -16.1802  N     
9    C        -4.7706   -9.4248  -16.0168  C     
10   C        -3.7318  -10.1559  -16.5098  C     
11   O        -5.6967   -9.9487  -15.4195  O     
12   C        -1.6781  -10.4004  -17.7861  C     
13   O        -5.0477   -5.2792  -16.6711  O     
14   C        -5.4133   -4.8391  -15.3473  C     
15   O        -0.2330   -7.9078  -17.5003  O     
16   C         0.1089   -8.3716  -16.1730  C     
17   H        -0.7614   -5.4255  -17.9675  H     
18   H        -2.8491   -4.2912  -17.5320  H     
19   H        -5.4912   -7.6025  -15.7669  H     
20   H        -3.7826  -11.1480  -16.4427  H     
21   H        -1.5207  -10.0315  -18.8000  H     
22   H        -1.9925  -11.4409  -17.8757  H     
23   H        -0.7239  -10.4000  -17.2567  H     
24   H        -6.0791   -5.5689  -14.8529  H     
25   H        -5.9732   -3.9095  -15.4500  H     
26   H        -4.5369   -4.6413  -14.7227  H     
27   H         0.3137   -7.5244  -15.5156  H     
28   H         0.9993   -8.9870  -16.2436  H     
29   H        -0.6757   -8.9870  -15.7167  H     
@<TRIPOS>BOND
     1    1    2 1
     2    1    6 2
     3    1   15 1
     4    2    3 2
     5    3    4 1
     6    4    5 2
     7    4   13 1
     8    5    6 1
     9    5    8 1
    10    6    7 1
    11    7   10 2
    12    7   12 1
    13    8    9 1
    14    9   10 1
    15    9   11 2
    16   13   14 1
    17   15   16 1
    18    2   17 1
    19    3   18 1
    20    8   19 1
    21   10   20 1
    22   12   21 1
    23   12   22 1
    24   12   23 1
    25   14   24 1
    26   14   25 1
    27   14   26 1
    28   16   27 1
    29   16   28 1
    30   16   29 1
@<TRIPOS>PROPERTY_DATA
  Total_Score	| 4.3713
  Crash		| -1.4830
  Polar		| 1.1674
  FragIndex	| 1
  FragRMSD	| 0.257

