@<TRIPOS>MOLECULE
BindingDB_29220
 29 30 0 0 0
SMALL
NO_CHARGES


@<TRIPOS>ATOM
1    C        -1.6384   -7.2388  -17.6843  C     
2    C        -1.7628   -5.8331  -17.7133  C     
3    C        -2.9575   -5.2320  -17.2786  C     
4    C        -4.0026   -6.0003  -16.7344  C     
5    C        -3.8264   -7.3989  -16.6340  C     
6    C        -2.6693   -8.0531  -17.1511  C     
7    C        -2.6367   -9.4761  -17.0993  C     
8    N        -4.7792   -8.1535  -16.0257  N     
9    C        -4.7017   -9.4728  -15.9351  C     
10   C        -3.6487  -10.1409  -16.4851  C     
11   O        -5.5798  -10.0532  -15.3147  O     
12   C        -1.5599  -10.2421  -17.7239  C     
13   O        -5.2015   -5.3548  -16.5183  O     
14   C        -5.5522   -4.8898  -15.1996  C     
15   O        -0.7674   -5.0354  -18.2065  O     
16   C         0.1452   -4.5684  -17.2019  C     
17   H        -0.7750   -7.6567  -18.0361  H     
18   H        -3.0685   -4.2194  -17.3593  H     
19   H        -5.4843   -7.6973  -15.5642  H     
20   H        -3.6403  -11.1337  -16.4232  H     
21   H        -1.4928   -9.9754  -18.7798  H     
22   H        -1.7120  -11.3252  -17.6731  H     
23   H        -0.6098  -10.0194  -17.2338  H     
24   H        -6.0920   -5.6589  -14.6306  H     
25   H        -6.2414   -4.0545  -15.3353  H     
26   H        -4.6854   -4.5275  -14.6436  H     
27   H        -0.3841   -4.1571  -16.3355  H     
28   H         0.7585   -3.7764  -17.6339  H     
29   H         0.8050   -5.3735  -16.8715  H     
@<TRIPOS>BOND
     1    1    2 1
     2    1    6 2
     3    2    3 2
     4    2   15 1
     5    3    4 1
     6    4    5 2
     7    4   13 1
     8    5    6 1
     9    5    8 1
    10    6    7 1
    11    7   10 2
    12    7   12 1
    13    8    9 1
    14    9   10 1
    15    9   11 2
    16   13   14 1
    17   15   16 1
    18    1   17 1
    19    3   18 1
    20    8   19 1
    21   10   20 1
    22   12   21 1
    23   12   22 1
    24   12   23 1
    25   14   24 1
    26   14   25 1
    27   14   26 1
    28   16   27 1
    29   16   28 1
    30   16   29 1
@<TRIPOS>PROPERTY_DATA
  Total_Score	| 5.5586
  Crash		| -0.5586
  Polar		| 1.1480
  FragIndex	| 1
  FragRMSD	| 0.270

