@<TRIPOS>MOLECULE
BindingDB_11441
 60 64 0 0 0
SMALL
NO_CHARGES


@<TRIPOS>ATOM
1    C        28.6260    6.9056   65.2550  C     
2    C        28.0922    7.9840   64.6510  C     
3    C        27.0586    7.8482   63.6995  C     
4    C        27.0193    5.5479   64.1684  C     
5    C        26.6858    4.2069   64.1238  C     
6    C        27.5994    3.5863   64.9621  C     
7    N        29.6183    6.9846   66.1503  N     
8    C        30.7318    7.7745   66.1301  C     
9    C        31.4115    7.9377   67.3552  C     
10   C        31.2748    8.3969   64.9715  C     
11   C        32.4186    9.2132   65.0683  C     
12   C        33.0502    9.4292   66.3143  C     
13   C        32.5500    8.7583   67.4531  C     
14   O        34.6572   10.9641   67.9547  O     
15   O        35.7233    9.7517   65.9891  O     
16   N        28.0586    5.6877   65.0234  N     
17   N        26.5246    6.6136   63.4848  N     
18   N        28.4153    4.5260   65.4798  N     
19   S        34.4115   10.5303   66.4393  S     
20   N        26.6914    8.9408   63.0002  N     
21   C        25.7819    8.9762   61.8963  C     
22   C        24.5441   10.5703   60.2949  C     
23   C        25.0986    9.7935   59.0711  C     
24   C        25.4249    8.3169   59.4276  C     
25   C        26.3537    8.2117   60.6627  C     
26   C        25.4897   10.4596   61.5203  C     
27   N        24.1355    9.8408   57.9636  N     
28   C        34.1887   11.9503   65.4408  C     
29   C        34.0818   11.8487   64.0326  C     
30   C        33.7933   12.9869   63.2552  C     
31   C        33.6932   14.2491   63.8643  C     
32   C        33.8483   14.3695   65.2579  C     
33   C        34.0714   13.2258   66.0471  C     
34   Br       25.3483    3.4305   63.0961  Br    
35   H        28.4183    8.9048   64.8625  H     
36   H        27.6634    2.5860   65.1384  H     
37   H        29.5281    6.4049   66.9383  H     
38   H        31.0492    7.4696   68.2022  H     
39   H        30.9052    8.2241   64.0407  H     
40   H        32.7752    9.6132   64.2087  H     
41   H        33.0144    8.8638   68.3747  H     
42   H        27.1080    9.7849   63.2492  H     
43   H        24.8379    8.5161   62.2057  H     
44   H        24.4289   11.6251   60.0320  H     
45   H        23.5581   10.1809   60.5679  H     
46   H        26.0160   10.2820   58.7274  H     
47   H        24.4987    7.7736   59.6315  H     
48   H        25.9165    7.8311   58.5839  H     
49   H        27.3364    8.6222   60.4070  H     
50   H        26.4888    7.1541   60.8995  H     
51   H        25.0310   10.9729   62.3700  H     
52   H        26.4303   10.9700   61.2885  H     
53   H        23.3142    9.2796   58.1931  H     
54   H        24.5764    9.4488   57.1328  H     
55   H        23.8564   10.8090   57.7842  H     
56   H        34.2149   10.9513   63.5553  H     
57   H        33.6601   12.8934   62.2448  H     
58   H        33.5144   15.0784   63.2944  H     
59   H        33.7780   15.2891   65.7019  H     
60   H        34.1405   13.3291   67.0615  H     
@<TRIPOS>BOND
     1    1    2 2
     2    1    7 1
     3    1   16 1
     4    2    3 1
     5    3   17 2
     6    3   20 1
     7    4    5 2
     8    4   16 1
     9    4   17 1
    10    5    6 1
    11    5   34 1
    12    6   18 2
    13    7    8 1
    14    8    9 1
    15    8   10 2
    16    9   13 2
    17   10   11 1
    18   11   12 2
    19   12   13 1
    20   12   19 1
    21   14   19 2
    22   15   19 2
    23   16   18 1
    24   19   28 1
    25   21   20 1
    26   21   25 1
    27   21   26 1
    28   22   23 1
    29   22   26 1
    30   23   24 1
    31   23   27 1
    32   24   25 1
    33   28   29 2
    34   28   33 1
    35   29   30 1
    36   30   31 2
    37   31   32 1
    38   32   33 2
    39    2   35 1
    40    6   36 1
    41    7   37 1
    42    9   38 1
    43   10   39 1
    44   11   40 1
    45   13   41 1
    46   20   42 1
    47   21   43 1
    48   22   44 1
    49   22   45 1
    50   23   46 1
    51   24   47 1
    52   24   48 1
    53   25   49 1
    54   25   50 1
    55   26   51 1
    56   26   52 1
    57   27   53 1
    58   27   54 1
    59   27   55 1
    60   29   56 1
    61   30   57 1
    62   31   58 1
    63   32   59 1
    64   33   60 1
@<TRIPOS>PROPERTY_DATA
  Total_Score	| 10.4318
  Crash		| -2.2660
  Polar		| 4.7879
  FragIndex	| 1
  FragRMSD	| 0.283

