@<TRIPOS>MOLECULE
BindingDB_24632
 26 27 0 0 0
SMALL
NO_CHARGES


@<TRIPOS>ATOM
1    C        26.7056    4.3171   64.2989  C     
2    C        27.6835    3.6686   65.0400  C     
3    C        27.0831    5.6451   64.3209  C     
4    C        27.0695    7.9304   63.9644  C     
5    C        28.8165    6.9659   65.2573  C     
6    C        28.2133    8.0586   64.7135  C     
7    N        26.5058    6.7438   63.7725  N     
8    Cl       26.3554    9.2751   63.3003  Cl    
9    N        28.2189    5.7605   65.0488  N     
10   N        28.5764    4.5801   65.4724  N     
11   C        25.6735    3.7895   63.7150  C     
12   N        24.7644    3.3241   63.1975  N     
13   N        29.9158    6.9905   65.9836  N     
14   C        30.8718    8.0099   66.1380  C     
15   C        31.3516    8.0233   67.6066  C     
16   C        32.0327    7.7902   65.1331  C     
17   H        27.7318    2.6640   65.2297  H     
18   H        28.5676    8.9760   64.8626  H     
19   H        30.1858    6.1670   66.3351  H     
20   H        30.4688    9.0078   65.9531  H     
21   H        30.4985    8.1681   68.2730  H     
22   H        32.0516    8.8469   67.7591  H     
23   H        31.8436    7.0849   67.8574  H     
24   H        32.5394    6.8402   65.3279  H     
25   H        32.7606    8.6028   65.2188  H     
26   H        31.6504    7.7812   64.1069  H     
@<TRIPOS>BOND
     1    1    2 1
     2    1    3 2
     3    1   11 1
     4    2   10 2
     5    3    7 1
     6    3    9 1
     7    4    6 1
     8    4    7 2
     9    4    8 1
    10    5    6 2
    11    5    9 1
    12    5   13 1
    13    9   10 1
    14   11   12 3
    15   13   14 1
    16   14   15 1
    17   14   16 1
    18    2   17 1
    19    6   18 1
    20   13   19 1
    21   14   20 1
    22   15   21 1
    23   15   22 1
    24   15   23 1
    25   16   24 1
    26   16   25 1
    27   16   26 1
@<TRIPOS>PROPERTY_DATA
  Total_Score	| 7.2896
  Crash		| -0.4427
  Polar		| 3.0729
  FragIndex	| 1
  FragRMSD	| 0.239

