@<TRIPOS>MOLECULE
BindingDB_11430
 59 62 0 0 0
SMALL
NO_CHARGES


@<TRIPOS>ATOM
1    C        28.6298    6.9680   65.2464  C     
2    C        28.1312    8.0447   64.5944  C     
3    C        27.0950    7.8914   63.6551  C     
4    C        26.9927    5.6093   64.2120  C     
5    C        26.6348    4.2744   64.2091  C     
6    C        27.5372    3.6668   65.0731  C     
7    N        29.6448    7.0635   66.1054  N     
8    C        30.7666    7.8237   66.0174  C     
9    C        31.1927    8.4324   64.8098  C     
10   C        31.5483    8.0048   67.1762  C     
11   C        32.6808    8.8339   67.1665  C     
12   C        33.0743    9.4779   65.9697  C     
13   C        32.3433    9.2614   64.7921  C     
14   S        34.4670   10.5331   65.9346  S     
15   O        35.7796    9.7277   66.3159  O     
16   O        34.7352   10.9506   64.4182  O     
17   N        34.3702   11.9415   66.8677  N     
18   C        33.4959   12.9877   66.4164  C     
19   C        34.7039   11.8486   68.2621  C     
20   N        28.0361    5.7642   65.0573  N     
21   N        26.5235    6.6654   63.4924  N     
22   N        28.3680    4.6093   65.5626  N     
23   N        26.7279    8.9644   62.9157  N     
24   C        25.8104    8.9761   61.8154  C     
25   C        26.3696    8.1758   60.5988  C     
26   C        25.5234   10.4520   61.4078  C     
27   C        24.5908   10.5500   60.1735  C     
28   C        25.1488    9.7415   58.9691  C     
29   C        25.4387    8.2676   59.3639  C     
30   N        24.2033    9.7870   57.8446  N     
31   C        25.6856    3.7079   63.5287  C     
32   N        24.8434    3.2113   62.9199  N     
33   H        28.5095    8.9495   64.7458  H     
34   H        27.5842    2.6733   65.2988  H     
35   H        29.5686    6.5185   66.9169  H     
36   H        30.6930    8.2828   63.9365  H     
37   H        31.2600    7.5629   68.0621  H     
38   H        33.2135    8.9683   68.0282  H     
39   H        32.6137    9.6936   63.9040  H     
40   H        33.6212   13.1707   65.3466  H     
41   H        33.7047   13.9274   66.9291  H     
42   H        32.4559   12.7106   66.6045  H     
43   H        33.8711   11.4015   68.8106  H     
44   H        34.9134   12.8336   68.6818  H     
45   H        35.5952   11.2383   68.4194  H     
46   H        27.1675    9.8077   63.1243  H     
47   H        24.8685    8.5269   62.1434  H     
48   H        27.3549    8.5672   60.3314  H     
49   H        26.4901    7.1211   60.8608  H     
50   H        25.0576   10.9797   62.2455  H     
51   H        26.4659   10.9545   61.1778  H     
52   H        23.5967   10.1751   60.4415  H     
53   H        24.4907   11.5981   59.8878  H     
54   H        26.0804   10.2063   58.6313  H     
55   H        25.9126    7.7456   58.5288  H     
56   H        24.4984    7.7561   59.5886  H     
57   H        23.3688    9.2438   58.0744  H     
58   H        24.6503    9.3796   57.0278  H     
59   H        23.9400   10.7576   57.6495  H     
@<TRIPOS>BOND
     1    1    2 2
     2    1    7 1
     3    1   20 1
     4    2    3 1
     5    3   21 2
     6    3   23 1
     7    4    5 2
     8    4   20 1
     9    4   21 1
    10    5    6 1
    11    5   31 1
    12    6   22 2
    13    7    8 1
    14    8    9 1
    15    8   10 2
    16    9   13 2
    17   10   11 1
    18   11   12 2
    19   12   13 1
    20   12   14 1
    21   14   15 2
    22   14   16 2
    23   14   17 1
    24   17   18 1
    25   17   19 1
    26   20   22 1
    27   24   23 1
    28   24   25 1
    29   24   26 1
    30   25   29 1
    31   26   27 1
    32   27   28 1
    33   28   29 1
    34   28   30 1
    35   31   32 3
    36    2   33 1
    37    6   34 1
    38    7   35 1
    39    9   36 1
    40   10   37 1
    41   11   38 1
    42   13   39 1
    43   18   40 1
    44   18   41 1
    45   18   42 1
    46   19   43 1
    47   19   44 1
    48   19   45 1
    49   23   46 1
    50   24   47 1
    51   25   48 1
    52   25   49 1
    53   26   50 1
    54   26   51 1
    55   27   52 1
    56   27   53 1
    57   28   54 1
    58   29   55 1
    59   29   56 1
    60   30   57 1
    61   30   58 1
    62   30   59 1
@<TRIPOS>PROPERTY_DATA
  Total_Score	| 10.7414
  Crash		| -1.7903
  Polar		| 4.7341
  FragIndex	| 1
  FragRMSD	| 0.260

