@<TRIPOS>MOLECULE
BindingDB_24633
 47 49 0 0 0
SMALL
NO_CHARGES


@<TRIPOS>ATOM
1    C        26.7208    4.3529   64.3166  C     
2    C        27.5821    3.7642   65.2340  C     
3    C        27.1623    5.6590   64.2171  C     
4    C        27.3590    7.8867   63.5332  C     
5    C        28.8862    6.9983   65.1559  C     
6    C        28.4476    8.0456   64.4084  C     
7    N        26.7162    6.6863   63.4518  N     
8    N        28.2267    5.8170   65.0397  N     
9    N        28.4742    4.6852   65.6417  N     
10   C        25.7243    3.8066   63.6931  C     
11   N        24.8385    3.3236   63.1408  N     
12   N        29.9261    7.0334   65.9641  N     
13   C        30.8475    8.0625   66.2151  C     
14   C        31.2877    8.0140   67.7031  C     
15   C        32.0722    7.9215   65.2746  C     
16   N        26.9876    8.9405   62.7614  N     
17   C        25.9601    8.9548   61.7565  C     
18   C        24.6663   10.5460   60.1801  C     
19   C        25.6941   10.4289   61.3385  C     
20   C        26.3602    8.0975   60.5187  C     
21   C        25.3396    8.2215   59.3584  C     
22   C        25.1107    9.7047   58.9519  C     
23   N        24.1187    9.7785   57.8672  N     
24   H        27.5543    2.7984   65.5587  H     
25   H        28.9120    8.9256   64.4444  H     
26   H        30.1766    6.2071   66.3248  H     
27   H        30.3952    9.0462   66.0507  H     
28   H        30.4205    8.1644   68.3511  H     
29   H        32.0155    8.8068   67.9126  H     
30   H        31.7443    7.0485   67.9422  H     
31   H        32.5618    6.9528   65.4165  H     
32   H        32.8063    8.7124   65.4671  H     
33   H        31.7585    8.0029   64.2284  H     
34   H        27.4721    9.7686   62.9014  H     
35   H        25.0346    8.5509   62.1850  H     
36   H        23.6855   10.2018   60.5289  H     
37   H        24.5737   11.5943   59.8861  H     
38   H        25.3149   10.9861   62.1972  H     
39   H        26.6311   10.8994   61.0222  H     
40   H        27.3455    8.4109   60.1567  H     
41   H        26.4329    7.0448   60.7899  H     
42   H        25.7091    7.6569   58.4988  H     
43   H        24.3883    7.7775   59.6663  H     
44   H        26.0461   10.1167   58.5568  H     
45   H        23.2752    9.2622   58.1308  H     
46   H        24.5194    9.3441   57.0324  H     
47   H        23.8889   10.7551   57.6660  H     
@<TRIPOS>BOND
     1    1    2 1
     2    1    3 2
     3    1   10 1
     4    2    9 2
     5    3    7 1
     6    3    8 1
     7    4    6 1
     8    4    7 2
     9    4   16 1
    10    5    6 2
    11    5    8 1
    12    5   12 1
    13    8    9 1
    14   10   11 3
    15   12   13 1
    16   13   14 1
    17   13   15 1
    18   17   16 1
    19   17   19 1
    20   17   20 1
    21   18   19 1
    22   18   22 1
    23   20   21 1
    24   21   22 1
    25   22   23 1
    26    2   24 1
    27    6   25 1
    28   12   26 1
    29   13   27 1
    30   14   28 1
    31   14   29 1
    32   14   30 1
    33   15   31 1
    34   15   32 1
    35   15   33 1
    36   16   34 1
    37   17   35 1
    38   18   36 1
    39   18   37 1
    40   19   38 1
    41   19   39 1
    42   20   40 1
    43   20   41 1
    44   21   42 1
    45   21   43 1
    46   22   44 1
    47   23   45 1
    48   23   46 1
    49   23   47 1
@<TRIPOS>PROPERTY_DATA
  Total_Score	| 10.4740
  Crash		| -0.9681
  Polar		| 5.5023
  FragIndex	| 1
  FragRMSD	| 0.184

