@<TRIPOS>MOLECULE
BindingDB_11429
 71 75 0 0 0
SMALL
NO_CHARGES


@<TRIPOS>ATOM
1    C        29.0864    7.4048   65.3634  C     
2    C        28.7435    8.4423   64.5521  C     
3    C        27.6671    8.3313   63.6540  C     
4    C        27.3917    6.1155   64.3309  C     
5    C        26.8793    4.8355   64.3616  C     
6    C        27.6462    4.2052   65.3325  C     
7    N        30.0867    7.3713   66.2693  N     
8    C        30.9688    8.2667   66.8016  C     
9    C        31.0750    9.6565   66.5462  C     
10   C        31.8738    7.7192   67.7465  C     
11   C        32.8589    8.5081   68.3739  C     
12   C        33.0110    9.8607   68.0260  C     
13   C        32.0912   10.4388   67.1276  C     
14   S        34.2889   10.8133   68.7338  S     
15   O        35.2686   11.4034   67.6288  O     
16   O        33.5446   12.0893   69.3371  O     
17   N        35.1949   10.0040   69.9197  N     
18   C        36.0884    8.9596   69.4885  C     
19   C        34.7371   10.0353   71.2804  C     
20   N        28.4003    6.2352   65.2151  N     
21   N        27.0042    7.1520   63.5619  N     
22   N        28.5469    5.0836   65.8139  N     
23   N        27.2833    9.3779   62.8783  N     
24   C        26.2334    9.3357   61.8880  C     
25   C        26.6302    8.4022   60.7025  C     
26   C        25.9113   10.7674   61.3707  C     
27   C        24.8378   10.7576   60.2447  C     
28   C        25.2581    9.8323   59.0665  C     
29   C        25.5701    8.3976   59.5744  C     
30   N        24.2172    9.7861   58.0258  N     
31   C        25.7874    4.3820   63.4741  C     
32   C        26.2841    3.8851   62.1058  C     
33   C        24.8977    3.2343   63.9543  C     
34   C        24.1968    2.7511   62.6660  C     
35   C        25.1093    3.1102   61.4853  C     
36   H        29.2801    9.2664   64.5168  H     
37   H        27.5520    3.2373   65.6343  H     
38   H        30.2129    6.4788   66.6403  H     
39   H        30.4096   10.1401   65.9549  H     
40   H        31.8161    6.7308   68.0071  H     
41   H        33.4908    8.0894   69.0709  H     
42   H        32.1432   11.4349   66.9018  H     
43   H        35.5337    8.0279   69.3424  H     
44   H        36.8734    8.7831   70.2274  H     
45   H        36.5761    9.2238   68.5488  H     
46   H        34.4801   11.0548   71.5749  H     
47   H        35.5068    9.6834   71.9703  H     
48   H        33.8566    9.3995   71.3907  H     
49   H        27.7531   10.2177   63.0049  H     
50   H        25.3194    8.9448   62.3579  H     
51   H        27.5896    8.7273   60.2902  H     
52   H        26.7559    7.3758   61.0535  H     
53   H        25.5491   11.3762   62.2059  H     
54   H        26.8242   11.2335   60.9888  H     
55   H        23.8811   10.4211   60.6593  H     
56   H        24.6990   11.7764   59.8734  H     
57   H        26.1593   10.2438   58.6010  H     
58   H        25.9449    7.7840   58.7509  H     
59   H        24.6510    7.9308   59.9440  H     
60   H        23.4022    9.2646   58.3591  H     
61   H        24.5914    9.2974   57.2123  H     
62   H        23.9442   10.7385   57.7636  H     
63   H        25.1322    5.2385   63.3170  H     
64   H        26.5981    4.7203   61.4725  H     
65   H        27.1184    3.1907   62.2453  H     
66   H        25.5110    2.4369   64.3800  H     
67   H        24.1813    3.5853   64.7030  H     
68   H        24.0314    1.6748   62.6920  H     
69   H        23.2416    3.2672   62.5491  H     
70   H        24.5740    3.7376   60.7709  H     
71   H        25.4548    2.2082   60.9714  H     
@<TRIPOS>BOND
     1    1    2 2
     2    1    7 1
     3    1   20 1
     4    2    3 1
     5    3   21 2
     6    3   23 1
     7    4    5 2
     8    4   20 1
     9    4   21 1
    10    5    6 1
    11    5   31 1
    12    6   22 2
    13    7    8 1
    14    8    9 1
    15    8   10 2
    16    9   13 2
    17   10   11 1
    18   11   12 2
    19   12   13 1
    20   12   14 1
    21   14   15 2
    22   14   16 2
    23   14   17 1
    24   17   18 1
    25   17   19 1
    26   20   22 1
    27   24   23 1
    28   24   25 1
    29   24   26 1
    30   25   29 1
    31   26   27 1
    32   27   28 1
    33   28   29 1
    34   28   30 1
    35   31   32 1
    36   31   33 1
    37   32   35 1
    38   33   34 1
    39   34   35 1
    40    2   36 1
    41    6   37 1
    42    7   38 1
    43    9   39 1
    44   10   40 1
    45   11   41 1
    46   13   42 1
    47   18   43 1
    48   18   44 1
    49   18   45 1
    50   19   46 1
    51   19   47 1
    52   19   48 1
    53   23   49 1
    54   24   50 1
    55   25   51 1
    56   25   52 1
    57   26   53 1
    58   26   54 1
    59   27   55 1
    60   27   56 1
    61   28   57 1
    62   29   58 1
    63   29   59 1
    64   30   60 1
    65   30   61 1
    66   30   62 1
    67   31   63 1
    68   32   64 1
    69   32   65 1
    70   33   66 1
    71   33   67 1
    72   34   68 1
    73   34   69 1
    74   35   70 1
    75   35   71 1
@<TRIPOS>PROPERTY_DATA
  Total_Score	| 2.4859
  Crash		| -10.2147
  Polar		| 4.0906
  FragIndex	| 1
  FragRMSD	| 0.729

