@<TRIPOS>MOLECULE
BindingDB_11433
 73 76 0 0 0
SMALL
NO_CHARGES


@<TRIPOS>ATOM
1    C        28.8721    7.0589   65.2706  C     
2    C        28.2605    8.0974   64.6512  C     
3    C        27.2210    7.8865   63.7393  C     
4    C        27.2497    5.6073   64.3001  C     
5    C        26.8840    4.2702   64.4090  C     
6    C        27.8352    3.7287   65.2632  C     
7    N        29.9312    7.1210   66.1045  N     
8    C        30.6928    8.0937   66.6822  C     
9    C        30.6813    9.4888   66.4354  C     
10   C        31.6032    7.6223   67.6581  C     
11   C        32.3957    8.5003   68.4183  C     
12   C        32.3016    9.8891   68.2164  C     
13   C        31.4486   10.3759   67.2096  C     
14   S        33.2738   11.0037   69.1371  S     
15   O        32.2097   11.9258   69.8772  O     
16   O        34.1529   10.2703   70.2420  O     
17   N        34.2455   11.9805   68.1509  N     
18   C        34.6268   11.4540   66.8707  C     
19   C        35.0808   12.9589   68.7881  C     
20   N        28.3250    5.8250   65.0937  N     
21   N        26.7100    6.6327   63.5837  N     
22   N        28.6714    4.7014   65.6558  N     
23   N        26.7879    8.9497   63.0187  N     
24   C        25.8537    8.9358   61.9332  C     
25   C        26.4466    8.2263   60.6791  C     
26   C        25.4700   10.4014   61.5833  C     
27   C        24.5036   10.4796   60.3740  C     
28   C        25.0767    9.7656   59.1126  C     
29   C        25.4949    8.3058   59.4583  C     
30   C        25.7365    3.5573   63.7942  C     
31   C        24.3862    4.1815   64.2222  C     
32   C        25.8787    3.5041   62.2546  C     
33   N        24.1179    9.7096   57.9774  N     
34   C        23.5456   10.9826   57.4869  C     
35   C        22.6105   10.7191   56.2904  C     
36   H        28.5126    9.0250   64.8383  H     
37   H        27.8923    2.7558   65.5620  H     
38   H        30.2207    6.2385   66.3864  H     
39   H        30.1583    9.8970   65.6710  H     
40   H        31.6830    6.6211   67.8505  H     
41   H        33.0311    8.1154   69.1209  H     
42   H        31.4021   11.3793   67.0124  H     
43   H        35.3063   10.6108   66.9992  H     
44   H        35.1186   12.2129   66.2629  H     
45   H        33.7595   11.1163   66.3052  H     
46   H        34.5673   13.4510   69.6174  H     
47   H        35.3694   13.7402   68.0846  H     
48   H        35.9852   12.4803   69.1688  H     
49   H        27.1856    9.8081   63.2372  H     
50   H        24.9475    8.4166   62.2556  H     
51   H        27.4030    8.6883   60.4155  H     
52   H        26.6361    7.1730   60.9006  H     
53   H        24.9932   10.8726   62.4476  H     
54   H        26.3743   10.9728   61.3518  H     
55   H        23.5434   10.0319   60.6469  H     
56   H        24.3343   11.5358   60.1534  H     
57   H        25.9706   10.3047   58.7797  H     
58   H        25.9982    7.8566   58.5981  H     
59   H        24.6005    7.7114   59.6650  H     
60   H        25.7346    2.5250   64.1551  H     
61   H        24.1517    3.9270   65.2521  H     
62   H        23.5750    3.8191   63.5902  H     
63   H        24.4262    5.2643   64.1455  H     
64   H        25.8436    4.5069   61.8262  H     
65   H        25.0709    2.9087   61.8221  H     
66   H        26.8263    3.0376   61.9829  H     
67   H        24.6156    9.2826   57.1924  H     
68   H        23.3516    9.0826   58.2265  H     
69   H        22.9672   11.4721   58.2712  H     
70   H        24.3522   11.6521   57.1773  H     
71   H        23.1117   10.1124   55.5347  H     
72   H        22.3199   11.6672   55.8380  H     
73   H        21.7124   10.1951   56.6227  H     
@<TRIPOS>BOND
     1    1    2 2
     2    1    7 1
     3    1   20 1
     4    2    3 1
     5    3   21 2
     6    3   23 1
     7    4    5 2
     8    4   20 1
     9    4   21 1
    10    5    6 1
    11    5   30 1
    12    6   22 2
    13    7    8 1
    14    8    9 1
    15    8   10 2
    16    9   13 2
    17   10   11 1
    18   11   12 2
    19   12   13 1
    20   12   14 1
    21   14   15 2
    22   14   16 2
    23   14   17 1
    24   17   18 1
    25   17   19 1
    26   20   22 1
    27   24   23 1
    28   24   25 1
    29   24   26 1
    30   25   29 1
    31   26   27 1
    32   27   28 1
    33   28   29 1
    34   28   33 1
    35   30   31 1
    36   30   32 1
    37   33   34 1
    38   34   35 1
    39    2   36 1
    40    6   37 1
    41    7   38 1
    42    9   39 1
    43   10   40 1
    44   11   41 1
    45   13   42 1
    46   18   43 1
    47   18   44 1
    48   18   45 1
    49   19   46 1
    50   19   47 1
    51   19   48 1
    52   23   49 1
    53   24   50 1
    54   25   51 1
    55   25   52 1
    56   26   53 1
    57   26   54 1
    58   27   55 1
    59   27   56 1
    60   28   57 1
    61   29   58 1
    62   29   59 1
    63   30   60 1
    64   31   61 1
    65   31   62 1
    66   31   63 1
    67   32   64 1
    68   32   65 1
    69   32   66 1
    70   33   67 1
    71   33   68 1
    72   34   69 1
    73   34   70 1
    74   35   71 1
    75   35   72 1
    76   35   73 1
@<TRIPOS>PROPERTY_DATA
  Total_Score	| 6.4409
  Crash		| -8.2892
  Polar		| 5.8985
  FragIndex	| 1
  FragRMSD	| 0.599

