@<TRIPOS>MOLECULE
BindingDB_11436
 67 70 0 0 0
SMALL
NO_CHARGES


@<TRIPOS>ATOM
1    C        28.4647    8.2603   64.6566  C     
2    C        27.7128    8.9194   63.7431  C     
3    C        26.6554    8.2841   63.0659  C     
4    C        27.1722    6.2977   64.2034  C     
5    C        27.1048    4.9782   64.6495  C     
6    C        28.1387    4.8999   65.5668  C     
7    N        29.2902    9.0453   65.4041  N     
8    C        30.3197    8.9202   66.2933  C     
9    C        31.0066    7.7513   66.7056  C     
10   C        30.7730   10.1464   66.8477  C     
11   C        31.7935   10.1979   67.8186  C     
12   C        32.4544    9.0192   68.2139  C     
13   C        32.0612    7.7942   67.6331  C     
14   S        33.7259    9.0651   69.4144  S     
15   O        33.0484    9.5575   70.7706  O     
16   O        34.2348    7.5728   69.6699  O     
17   N        35.0569   10.0622   69.1031  N     
18   C        34.8581   11.3061   68.4214  C     
19   C        36.3571    9.4579   69.1159  C     
20   N        28.1923    6.9370   64.8294  N     
21   N        26.3906    6.9818   63.3287  N     
22   N        28.7553    6.0881   65.6238  N     
23   C        25.9591   10.1430   61.5171  C     
24   C        24.5823   10.6290   60.9669  C     
25   C        26.9887   10.0516   60.3499  C     
26   C        26.4790    9.1847   59.1622  C     
27   C        25.0995    9.6695   58.6481  C     
28   C        24.0571    9.7544   59.7914  C     
29   C        26.1939    3.8411   64.3478  C     
30   C        25.9080    3.6319   62.8410  C     
31   C        26.6832    2.5205   64.9989  C     
32   N        25.8318    8.8660   62.1589  N     
33   N        22.7889   10.2690   59.2647  N     
34   H        27.8682    9.8796   63.5809  H     
35   H        28.3845    4.0934   66.1339  H     
36   H        29.0692    9.9879   65.2979  H     
37   H        30.7654    6.8365   66.3552  H     
38   H        30.3307   11.0346   66.5832  H     
39   H        32.0538   11.0968   68.2276  H     
40   H        32.5261    6.9122   67.8859  H     
41   H        34.6754   11.1307   67.3568  H     
42   H        35.7229   11.9575   68.5278  H     
43   H        34.0139   11.8510   68.8414  H     
44   H        36.4549    8.7362   69.9273  H     
45   H        37.1417   10.2034   69.2610  H     
46   H        36.5371    8.9456   68.1685  H     
47   H        26.2925   10.8953   62.2369  H     
48   H        23.8471   10.6300   61.7771  H     
49   H        24.6788   11.6665   60.6223  H     
50   H        27.2033   11.0620   59.9826  H     
51   H        27.9335    9.6361   60.7140  H     
52   H        27.1969    9.2375   58.3442  H     
53   H        26.4017    8.1395   59.4730  H     
54   H        25.2207   10.6551   58.1846  H     
55   H        24.7404    8.9804   57.8793  H     
56   H        23.8545    8.7465   60.1564  H     
57   H        25.2328    4.0763   64.8085  H     
58   H        25.4611    4.5320   62.4286  H     
59   H        25.2041    2.8056   62.6910  H     
60   H        26.8299    3.4114   62.2951  H     
61   H        27.5061    2.0859   64.4398  H     
62   H        25.8556    1.8078   65.0229  H     
63   H        27.0038    2.6619   66.0324  H     
64   H        25.1393    8.2954   61.8024  H     
65   H        22.1120   10.3633   60.0224  H     
66   H        22.4313    9.6032   58.5733  H     
67   H        22.9470   11.1774   58.8239  H     
@<TRIPOS>BOND
     1    1    2 2
     2    1    7 1
     3    1   20 1
     4    2    3 1
     5    3   21 2
     6    3   32 1
     7    4    5 2
     8    4   20 1
     9    4   21 1
    10    5    6 1
    11    5   29 1
    12    6   22 2
    13    7    8 1
    14    8    9 1
    15    8   10 2
    16    9   13 2
    17   10   11 1
    18   11   12 2
    19   12   13 1
    20   12   14 1
    21   14   15 2
    22   14   16 2
    23   14   17 1
    24   17   18 1
    25   17   19 1
    26   20   22 1
    27   23   24 1
    28   23   25 1
    29   23   32 1
    30   24   28 1
    31   25   26 1
    32   26   27 1
    33   27   28 1
    34   28   33 1
    35   29   30 1
    36   29   31 1
    37    2   34 1
    38    6   35 1
    39    7   36 1
    40    9   37 1
    41   10   38 1
    42   11   39 1
    43   13   40 1
    44   18   41 1
    45   18   42 1
    46   18   43 1
    47   19   44 1
    48   19   45 1
    49   19   46 1
    50   23   47 1
    51   24   48 1
    52   24   49 1
    53   25   50 1
    54   25   51 1
    55   26   52 1
    56   26   53 1
    57   27   54 1
    58   27   55 1
    59   28   56 1
    60   29   57 1
    61   30   58 1
    62   30   59 1
    63   30   60 1
    64   31   61 1
    65   31   62 1
    66   31   63 1
    67   32   64 1
    68   33   65 1
    69   33   66 1
    70   33   67 1
@<TRIPOS>PROPERTY_DATA
  Total_Score	| 5.7795
  Crash		| -6.5773
  Polar		| 3.2868
  FragIndex	| 1
  FragRMSD	| 1.298

