@<TRIPOS>MOLECULE
BindingDB_11428
 67 70 0 0 0
SMALL
NO_CHARGES


@<TRIPOS>ATOM
1    C        28.8386    6.9889   65.2447  C     
2    C        28.1974    8.0518   64.6945  C     
3    C        27.1389    7.8688   63.7853  C     
4    C        27.1539    5.5799   64.3378  C     
5    C        26.7781    4.2468   64.4398  C     
6    C        27.7313    3.6965   65.2900  C     
7    N        29.9614    7.0794   65.9993  N     
8    C        30.7847    8.1142   66.3280  C     
9    C        31.6738    7.8841   67.4008  C     
10   C        30.8147    9.3858   65.7013  C     
11   C        31.6230   10.4189   66.2038  C     
12   C        32.4338   10.2093   67.3348  C     
13   C        32.4657    8.9300   67.9177  C     
14   S        33.2982   11.5378   68.0420  S     
15   O        34.4139   11.0425   69.0509  O     
16   O        33.9962   12.2563   66.8044  O     
17   N        32.2803   12.6221   68.8436  N     
18   C        30.9239   12.2435   69.1220  C     
19   C        32.6825   14.0073   68.9298  C     
20   N        28.2627    5.7630   65.0932  N     
21   N        26.6110    6.6178   63.6275  N     
22   N        28.6075    4.6448   65.6624  N     
23   C        25.6199    3.5498   63.8309  C     
24   C        24.2701    4.1386   64.3156  C     
25   C        25.7401    3.5272   62.2856  C     
26   N        26.7328    8.9424   63.0672  N     
27   C        25.8393    8.9373   61.9491  C     
28   C        26.5018    8.2689   60.7122  C     
29   C        25.4105   10.3979   61.6166  C     
30   C        24.5063   10.4674   60.3587  C     
31   C        25.1448    9.7620   59.1218  C     
32   C        25.5712    8.3097   59.4746  C     
33   N        24.2181    9.7652   57.9805  N     
34   H        28.5049    8.9740   64.8923  H     
35   H        27.7790    2.7242   65.5880  H     
36   H        30.2331    6.2258   66.3806  H     
37   H        31.7130    6.9613   67.8514  H     
38   H        30.2392    9.5783   64.8786  H     
39   H        31.5927   11.3317   65.7480  H     
40   H        33.0476    8.7366   68.7328  H     
41   H        30.3474   12.2286   68.1990  H     
42   H        30.4306   12.9364   69.8081  H     
43   H        30.8800   11.2503   69.5731  H     
44   H        33.7727   14.1088   68.9967  H     
45   H        32.2646   14.4896   69.8205  H     
46   H        32.3386   14.5551   68.0456  H     
47   H        25.6414    2.5024   64.1586  H     
48   H        23.9287    3.6254   65.2162  H     
49   H        23.4945    4.0152   63.5570  H     
50   H        24.3548    5.1950   64.5628  H     
51   H        25.7065    4.5326   61.8757  H     
52   H        24.9162    2.9452   61.8574  H     
53   H        26.6739    3.0511   61.9858  H     
54   H        27.1623    9.7888   63.2780  H     
55   H        24.9450    8.3760   62.2357  H     
56   H        27.4384    8.7794   60.4744  H     
57   H        26.7385    7.2227   60.9284  H     
58   H        24.8679   10.8147   62.4686  H     
59   H        26.2973   11.0183   61.4599  H     
60   H        23.5444   10.0019   60.5892  H     
61   H        24.3200   11.5185   60.1177  H     
62   H        26.0310   10.3284   58.8197  H     
63   H        26.0919    7.8711   58.6240  H     
64   H        24.6796    7.7092   59.6708  H     
65   H        23.3948    9.2025   58.1944  H     
66   H        24.6908    9.3625   57.1709  H     
67   H        23.9324   10.7229   57.7643  H     
@<TRIPOS>BOND
     1    1    2 2
     2    1    7 1
     3    1   20 1
     4    2    3 1
     5    3   21 2
     6    3   26 1
     7    4    5 2
     8    4   20 1
     9    4   21 1
    10    5    6 1
    11    5   23 1
    12    6   22 2
    13    7    8 1
    14    8    9 1
    15    8   10 2
    16    9   13 2
    17   10   11 1
    18   11   12 2
    19   12   13 1
    20   12   14 1
    21   14   15 2
    22   14   16 2
    23   14   17 1
    24   17   18 1
    25   17   19 1
    26   20   22 1
    27   23   24 1
    28   23   25 1
    29   27   26 1
    30   27   28 1
    31   27   29 1
    32   28   32 1
    33   29   30 1
    34   30   31 1
    35   31   32 1
    36   31   33 1
    37    2   34 1
    38    6   35 1
    39    7   36 1
    40    9   37 1
    41   10   38 1
    42   11   39 1
    43   13   40 1
    44   18   41 1
    45   18   42 1
    46   18   43 1
    47   19   44 1
    48   19   45 1
    49   19   46 1
    50   23   47 1
    51   24   48 1
    52   24   49 1
    53   24   50 1
    54   25   51 1
    55   25   52 1
    56   25   53 1
    57   26   54 1
    58   27   55 1
    59   28   56 1
    60   28   57 1
    61   29   58 1
    62   29   59 1
    63   30   60 1
    64   30   61 1
    65   31   62 1
    66   32   63 1
    67   32   64 1
    68   33   65 1
    69   33   66 1
    70   33   67 1
@<TRIPOS>PROPERTY_DATA
  Total_Score	| 7.2057
  Crash		| -6.9943
  Polar		| 5.7822
  FragIndex	| 1
  FragRMSD	| 0.500

