@<TRIPOS>MOLECULE
BindingDB_11431
 58 61 0 0 0
SMALL
NO_CHARGES


@<TRIPOS>ATOM
1    C        28.6679    6.9206   65.2154  C     
2    C        28.1332    8.0045   64.5941  C     
3    C        27.0784    7.8566   63.6877  C     
4    C        27.0043    5.5693   64.2183  C     
5    C        26.6031    4.2482   64.2652  C     
6    C        27.4988    3.6389   65.1329  C     
7    N        29.6917    7.0141   66.0882  N     
8    C        30.8038    7.7960   66.0243  C     
9    C        31.5705    7.9067   67.2121  C     
10   C        31.2776    8.4539   64.8633  C     
11   C        32.4128    9.2723   64.9065  C     
12   C        33.1355    9.4387   66.1073  C     
13   C        32.7091    8.7410   67.2572  C     
14   S        34.5364   10.4772   66.1543  S     
15   O        35.8630    9.6015   66.0730  O     
16   O        34.6286   11.2917   64.7901  O     
17   N        34.6662   11.5747   67.4393  N     
18   C        35.1286   11.1026   68.7140  C     
19   C        33.8783   12.7736   67.3864  C     
20   N        28.0672    5.7205   65.0432  N     
21   N        26.5091    6.6269   63.5202  N     
22   N        28.3646    4.5676   65.5787  N     
23   N        26.6749    8.9442   62.9864  N     
24   C        25.7533    8.9509   61.8870  C     
25   C        26.3467    8.1967   60.6569  C     
26   C        25.4052   10.4212   61.5067  C     
27   C        24.4940   10.5162   60.2478  C     
28   C        25.1058    9.7616   59.0345  C     
29   C        25.4399    8.2911   59.4031  C     
30   N        24.1880    9.7851   57.8852  N     
31   Cl       25.2918    3.5428   63.4611  Cl    
32   H        28.4906    8.9132   64.7787  H     
33   H        27.5010    2.6503   65.3951  H     
34   H        29.6295    6.4366   66.8677  H     
35   H        31.2822    7.4134   68.0631  H     
36   H        30.8165    8.3273   63.9609  H     
37   H        32.7131    9.7284   64.0398  H     
38   H        33.2302    8.8237   68.1365  H     
39   H        34.2843   10.7105   69.2839  H     
40   H        35.5798   11.9174   69.2830  H     
41   H        35.8843   10.3164   68.6153  H     
42   H        33.9311   13.2436   66.4025  H     
43   H        34.2276   13.5068   68.1130  H     
44   H        32.8395   12.5307   67.6100  H     
45   H        27.0940    9.7922   63.2076  H     
46   H        24.8243    8.4606   62.1997  H     
47   H        27.3323    8.6112   60.4186  H     
48   H        26.4822    7.1398   60.8969  H     
49   H        24.8908   10.9031   62.3460  H     
50   H        26.3262   10.9824   61.3174  H     
51   H        23.5109   10.0986   60.4854  H     
52   H        24.3600   11.5679   59.9870  H     
53   H        26.0243   10.2695   58.7312  H     
54   H        25.9558    7.8102   58.5698  H     
55   H        24.5162    7.7377   59.5886  H     
56   H        23.3491    9.2441   58.1018  H     
57   H        24.6549    9.3563   57.0856  H     
58   H        23.9347   10.7478   57.6584  H     
@<TRIPOS>BOND
     1    1    2 2
     2    1    7 1
     3    1   20 1
     4    2    3 1
     5    3   21 2
     6    3   23 1
     7    4    5 2
     8    4   20 1
     9    4   21 1
    10    5    6 1
    11    5   31 1
    12    6   22 2
    13    7    8 1
    14    8    9 1
    15    8   10 2
    16    9   13 2
    17   10   11 1
    18   11   12 2
    19   12   13 1
    20   12   14 1
    21   14   15 2
    22   14   16 2
    23   14   17 1
    24   17   18 1
    25   17   19 1
    26   20   22 1
    27   24   23 1
    28   24   25 1
    29   24   26 1
    30   25   29 1
    31   26   27 1
    32   27   28 1
    33   28   29 1
    34   28   30 1
    35    2   32 1
    36    6   33 1
    37    7   34 1
    38    9   35 1
    39   10   36 1
    40   11   37 1
    41   13   38 1
    42   18   39 1
    43   18   40 1
    44   18   41 1
    45   19   42 1
    46   19   43 1
    47   19   44 1
    48   23   45 1
    49   24   46 1
    50   25   47 1
    51   25   48 1
    52   26   49 1
    53   26   50 1
    54   27   51 1
    55   27   52 1
    56   28   53 1
    57   29   54 1
    58   29   55 1
    59   30   56 1
    60   30   57 1
    61   30   58 1
@<TRIPOS>PROPERTY_DATA
  Total_Score	| 11.3351
  Crash		| -1.7011
  Polar		| 5.6543
  FragIndex	| 1
  FragRMSD	| 0.277

