@<TRIPOS>MOLECULE
BindingDB_11434
 79 82 0 0 0
SMALL
NO_CHARGES


@<TRIPOS>ATOM
1    C        29.0567    6.9550   65.0755  C     
2    C        28.5532    7.9179   64.2731  C     
3    C        27.4124    7.7491   63.5086  C     
4    C        27.2907    5.5415   64.3095  C     
5    C        26.8869    4.2200   64.4954  C     
6    C        27.8271    3.7045   65.3717  C     
7    N        30.1667    7.0712   65.8394  N     
8    C        30.7585    8.0884   66.5468  C     
9    C        30.3713    9.4573   66.6518  C     
10   C        31.8890    7.7009   67.3140  C     
11   C        32.5418    8.5975   68.1827  C     
12   C        32.0517    9.9144   68.3554  C     
13   C        30.9859   10.3405   67.5397  C     
14   S        32.7422   10.9830   69.5431  S     
15   O        34.2182   11.3957   69.0910  O     
16   O        31.8643   12.3266   69.5590  O     
17   N        32.7241   10.4644   71.1532  N     
18   C        33.5902   11.1369   72.0800  C     
19   C        32.2335    9.1497   71.4519  C     
20   N        28.4088    5.7529   65.0475  N     
21   N        26.7757    6.5375   63.5280  N     
22   N        28.7142    4.6626   65.6795  N     
23   N        27.0061    8.8088   62.7779  N     
24   C        25.8605    8.9189   61.9541  C     
25   C        26.0514    8.1746   60.5947  C     
26   C        25.6093   10.4339   61.6906  C     
27   C        24.3834   10.6910   60.7861  C     
28   C        24.4294    9.8567   59.4660  C     
29   C        24.8080    8.3587   59.6946  C     
30   C        25.7413    3.5069   63.8967  C     
31   C        24.3903    4.1312   64.3368  C     
32   C        25.8608    3.4650   62.3504  C     
33   N        23.1881    9.9843   58.5925  N     
34   C        21.8322    9.9913   59.2618  C     
35   C        21.5390    9.0065   60.4219  C     
36   C        23.2997   11.1084   57.5852  C     
37   C        22.6170   10.7568   56.2396  C     
38   H        29.0223    8.7580   64.1683  H     
39   H        27.8672    2.7511   65.7264  H     
40   H        30.6089    6.2183   65.9777  H     
41   H        29.6474    9.8808   66.0671  H     
42   H        32.2466    6.7447   67.2698  H     
43   H        33.3443    8.2767   68.7321  H     
44   H        30.6513   11.3003   67.5661  H     
45   H        34.6278   10.8485   71.8948  H     
46   H        33.3364   10.9006   73.1165  H     
47   H        33.5016   12.2255   71.9722  H     
48   H        31.2644    8.9780   70.9795  H     
49   H        32.0887    9.0021   72.5228  H     
50   H        32.9436    8.3965   71.1050  H     
51   H        27.5336    9.6183   62.8800  H     
52   H        25.0010    8.4927   62.4858  H     
53   H        26.9290    8.5648   60.0817  H     
54   H        26.2120    7.1049   60.7558  H     
55   H        25.4556   10.9460   62.6439  H     
56   H        26.4951   10.8722   61.2144  H     
57   H        23.5048   10.4576   61.3786  H     
58   H        24.3467   11.7527   60.5265  H     
59   H        25.3030   10.2383   58.9202  H     
60   H        24.9986    7.8898   58.7184  H     
61   H        23.9705    7.8325   60.1515  H     
62   H        25.7443    2.4752   64.2551  H     
63   H        24.1411    3.8545   65.3615  H     
64   H        23.5797    3.7771   63.6946  H     
65   H        24.4275    5.2178   64.2794  H     
66   H        25.8203    4.4651   61.9258  H     
67   H        25.0522    2.8694   61.9242  H     
68   H        26.8107    2.9990   62.0673  H     
69   H        23.1806    9.1312   58.0418  H     
70   H        21.6277   10.9917   59.6423  H     
71   H        21.0649    9.7736   58.5111  H     
72   H        21.7171    7.9750   60.1184  H     
73   H        20.4909    9.0859   60.7074  H     
74   H        22.1370    9.2186   61.3085  H     
75   H        22.8808   12.0395   57.9770  H     
76   H        24.3329   11.3262   57.3192  H     
77   H        23.0149    9.8148   55.8516  H     
78   H        22.8223   11.5501   55.5123  H     
79   H        21.5341   10.6683   56.3495  H     
@<TRIPOS>BOND
     1    1    2 2
     2    1    7 1
     3    1   20 1
     4    2    3 1
     5    3   21 2
     6    3   23 1
     7    4    5 2
     8    4   20 1
     9    4   21 1
    10    5    6 1
    11    5   30 1
    12    6   22 2
    13    7    8 1
    14    8    9 1
    15    8   10 2
    16    9   13 2
    17   10   11 1
    18   11   12 2
    19   12   13 1
    20   12   14 1
    21   14   15 2
    22   14   16 2
    23   14   17 1
    24   17   18 1
    25   17   19 1
    26   20   22 1
    27   24   23 1
    28   24   25 1
    29   24   26 1
    30   25   29 1
    31   26   27 1
    32   27   28 1
    33   28   29 1
    34   28   33 1
    35   30   31 1
    36   30   32 1
    37   33   34 1
    38   33   36 1
    39   34   35 1
    40   36   37 1
    41    2   38 1
    42    6   39 1
    43    7   40 1
    44    9   41 1
    45   10   42 1
    46   11   43 1
    47   13   44 1
    48   18   45 1
    49   18   46 1
    50   18   47 1
    51   19   48 1
    52   19   49 1
    53   19   50 1
    54   23   51 1
    55   24   52 1
    56   25   53 1
    57   25   54 1
    58   26   55 1
    59   26   56 1
    60   27   57 1
    61   27   58 1
    62   28   59 1
    63   29   60 1
    64   29   61 1
    65   30   62 1
    66   31   63 1
    67   31   64 1
    68   31   65 1
    69   32   66 1
    70   32   67 1
    71   32   68 1
    72   33   69 1
    73   34   70 1
    74   34   71 1
    75   35   72 1
    76   35   73 1
    77   35   74 1
    78   36   75 1
    79   36   76 1
    80   37   77 1
    81   37   78 1
    82   37   79 1
@<TRIPOS>PROPERTY_DATA
  Total_Score	| 4.9333
  Crash		| -10.8422
  Polar		| 4.4912
  FragIndex	| 1
  FragRMSD	| 0.766

