@<TRIPOS>MOLECULE
BindingDB_50309194
 45 47 0 0 0
SMALL
NO_CHARGES


@<TRIPOS>ATOM
1    C        38.3406  -32.8768    6.1050  C     
2    C        38.0409  -34.0042    5.3085  C     
3    N        37.3001  -35.0264    5.8067  N     
4    C        36.7955  -35.0528    7.0623  C     
5    C        37.0508  -33.9607    7.9378  C     
6    C        37.8528  -32.8913    7.4386  C     
7    N        36.0238  -36.1037    7.3779  N     
8    C        36.5058  -33.8797    9.2510  C     
9    C        36.5091  -35.0049   10.1049  C     
10   C        35.9065  -34.9411   11.3813  C     
11   C        35.3098  -33.7470   11.8492  C     
12   C        35.3416  -32.6103   11.0006  C     
13   C        35.9194  -32.6786    9.7170  C     
14   C        34.7283  -33.6764   13.1059  C     
15   N        34.6343  -32.5522   13.7957  N     
16   O        34.3185  -34.6867   13.6733  O     
17   C        39.0776  -31.7634    5.5848  C     
18   C        38.6785  -30.4268    5.8703  C     
19   C        39.3994  -29.3182    5.3747  C     
20   C        40.5133  -29.5246    4.5343  C     
21   C        40.9041  -30.8323    4.2076  C     
22   C        40.2009  -31.9478    4.7455  C     
23   O        38.9663  -28.0393    5.6384  O     
24   C        39.6772  -27.3912    6.7066  C     
25   O        41.1554  -28.4307    3.9960  O     
26   C        42.5820  -28.4131    4.1395  C     
27   H        38.3269  -34.0618    4.3349  H     
28   H        38.0897  -32.1187    8.0642  H     
29   H        35.5909  -36.1663    8.2397  H     
30   H        35.9163  -36.8286    6.7208  H     
31   H        36.9409  -35.8814    9.8136  H     
32   H        35.9276  -35.7808   11.9635  H     
33   H        34.9075  -31.7295   11.2849  H     
34   H        35.8895  -31.8466    9.1231  H     
35   H        34.2847  -32.5734   14.7004  H     
36   H        34.9575  -31.7112   13.4249  H     
37   H        37.8372  -30.2508    6.4204  H     
38   H        41.6831  -31.0025    3.5780  H     
39   H        40.5461  -32.8774    4.5134  H     
40   H        39.4889  -27.8801    7.6638  H     
41   H        39.3091  -26.3681    6.7740  H     
42   H        40.7537  -27.3589    6.5198  H     
43   H        42.8861  -28.5755    5.1781  H     
44   H        42.9409  -27.4281    3.8185  H     
45   H        43.0462  -29.1649    3.4998  H     
@<TRIPOS>BOND
     1    1    2 2
     2    1    6 1
     3    1   17 1
     4    2    3 1
     5    3    4 2
     6    4    5 1
     7    4    7 1
     8    5    6 2
     9    5    8 1
    10    8    9 2
    11    8   13 1
    12    9   10 1
    13   10   11 2
    14   11   12 1
    15   11   14 1
    16   12   13 2
    17   14   15 am
    18   14   16 2
    19   17   18 2
    20   17   22 1
    21   18   19 1
    22   19   20 2
    23   19   23 1
    24   20   21 1
    25   20   25 1
    26   21   22 2
    27   23   24 1
    28   25   26 1
    29    2   27 1
    30    6   28 1
    31    7   29 1
    32    7   30 1
    33    9   31 1
    34   10   32 1
    35   12   33 1
    36   13   34 1
    37   15   35 1
    38   15   36 1
    39   18   37 1
    40   21   38 1
    41   22   39 1
    42   24   40 1
    43   24   41 1
    44   24   42 1
    45   26   43 1
    46   26   44 1
    47   26   45 1
@<TRIPOS>PROPERTY_DATA
  Total_Score	| 8.7955
  Crash		| -1.3389
  Polar		| 4.4784
  FragIndex	| 1
  FragRMSD	| 0.257

