@<TRIPOS>MOLECULE
BindingDB_50309206
 42 44 0 0 0
SMALL
NO_CHARGES


@<TRIPOS>ATOM
1    C        38.4196  -32.9583    6.3275  C     
2    C        37.9905  -34.0186    5.4799  C     
3    N        37.1064  -34.9515    5.8688  N     
4    C        36.5501  -34.9932    7.0939  C     
5    C        36.9266  -34.0107    8.0501  C     
6    C        37.8639  -33.0360    7.6363  C     
7    N        35.6156  -35.9389    7.2886  N     
8    C        36.3746  -33.9719    9.3618  C     
9    C        36.3542  -35.1105   10.1960  C     
10   C        35.7581  -35.0685   11.4682  C     
11   C        35.1842  -33.8720   11.9730  C     
12   C        35.2463  -32.7169   11.1466  C     
13   C        35.8294  -32.7689    9.8745  C     
14   C        34.5830  -33.8336   13.2213  C     
15   N        34.5055  -32.7419   13.9620  N     
16   O        34.1283  -34.8515   13.7337  O     
17   C        39.3104  -31.8935    5.8828  C     
18   C        39.8784  -31.8381    4.5747  C     
19   C        40.7336  -30.8118    4.1364  C     
20   C        41.1208  -29.8008    5.0308  C     
21   C        40.5776  -29.7920    6.3214  C     
22   C        39.6943  -30.7977    6.7257  C     
23   O        41.2410  -30.8054    2.8587  O     
24   C        40.2751  -30.4313    1.8550  C     
25   O        42.0440  -28.8762    4.6577  O     
26   H        38.2974  -34.1349    4.5293  H     
27   H        38.1094  -32.3804    8.3656  H     
28   H        35.1315  -36.0113    8.1376  H     
29   H        35.4043  -36.5712    6.5925  H     
30   H        36.7732  -35.9942    9.8819  H     
31   H        35.7716  -35.9119   12.0418  H     
32   H        34.8377  -31.8302   11.4579  H     
33   H        35.8344  -31.9181    9.2972  H     
34   H        34.1167  -32.7800   14.8451  H     
35   H        34.8953  -31.9111   13.6452  H     
36   H        39.7046  -32.5403    3.8694  H     
37   H        40.8424  -29.0542    6.9842  H     
38   H        39.3670  -30.6940    7.6713  H     
39   H        39.4754  -31.1778    1.7946  H     
40   H        40.7809  -30.3934    0.8916  H     
41   H        39.8416  -29.4468    2.0568  H     
42   H        42.6465  -28.7827    5.4305  H     
@<TRIPOS>BOND
     1    1    2 2
     2    1    6 1
     3    1   17 1
     4    2    3 1
     5    3    4 2
     6    4    5 1
     7    4    7 1
     8    5    6 2
     9    5    8 1
    10    8    9 2
    11    8   13 1
    12    9   10 1
    13   10   11 2
    14   11   12 1
    15   11   14 1
    16   12   13 2
    17   14   15 am
    18   14   16 2
    19   17   18 2
    20   17   22 1
    21   18   19 1
    22   19   20 2
    23   19   23 1
    24   20   21 1
    25   20   25 1
    26   21   22 2
    27   23   24 1
    28    2   26 1
    29    6   27 1
    30    7   28 1
    31    7   29 1
    32    9   30 1
    33   10   31 1
    34   12   32 1
    35   13   33 1
    36   15   34 1
    37   15   35 1
    38   18   36 1
    39   21   37 1
    40   22   38 1
    41   24   39 1
    42   24   40 1
    43   24   41 1
    44   25   42 1
@<TRIPOS>PROPERTY_DATA
  Total_Score	| 8.8816
  Crash		| -1.0726
  Polar		| 4.1583
  FragIndex	| 1
  FragRMSD	| 0.505

