@<TRIPOS>MOLECULE
BindingDB_50309197
 43 46 0 0 0
SMALL
NO_CHARGES


@<TRIPOS>ATOM
1    C        38.3594  -32.9888    6.1383  C     
2    C        37.9343  -34.0401    5.2984  C     
3    N        37.2045  -35.0703    5.7961  N     
4    C        36.7919  -35.1495    7.0864  C     
5    C        37.1437  -34.1076    7.9897  C     
6    C        37.9798  -33.0656    7.5007  C     
7    N        36.0175  -36.1989    7.4178  N     
8    C        36.5976  -34.0223    9.2999  C     
9    C        36.6092  -35.1277   10.1804  C     
10   C        35.9844  -35.0450   11.4428  C     
11   C        35.3432  -33.8516   11.8695  C     
12   C        35.3536  -32.7477   10.9845  C     
13   C        35.9634  -32.8285    9.7197  C     
14   C        34.7299  -33.7724   13.1142  C     
15   N        34.5639  -32.6324   13.7580  N     
16   O        34.3297  -34.7757   13.6902  O     
17   C        39.0926  -31.8662    5.6192  C     
18   C        40.4415  -29.5606    4.6042  C     
19   C        39.5623  -29.4434    5.6921  C     
20   C        38.8841  -30.5755    6.1812  C     
21   C        40.6403  -30.8176    4.0005  C     
22   C        39.9918  -31.9760    4.5145  C     
23   O        40.1834  -33.2035    3.9015  O     
24   C        41.0831  -33.2652    2.7661  C     
25   C        41.1819  -31.9265    1.9971  C     
26   O        41.4976  -30.8771    2.9247  O     
27   H        38.1519  -34.0302    4.2979  H     
28   H        38.3054  -32.3384    8.1478  H     
29   H        35.6609  -36.2816    8.3221  H     
30   H        35.8359  -36.8952    6.7562  H     
31   H        37.0454  -36.0109    9.8905  H     
32   H        36.0234  -35.8671   12.0492  H     
33   H        34.8868  -31.8744   11.2335  H     
34   H        35.9093  -32.0190    9.0915  H     
35   H        34.1895  -32.6340   14.6513  H     
36   H        34.8441  -31.7955   13.3537  H     
37   H        40.9303  -28.7316    4.2485  H     
38   H        39.4086  -28.5255    6.1296  H     
39   H        38.2219  -30.4410    6.9477  H     
40   H        42.0808  -33.5410    3.1172  H     
41   H        40.7360  -34.0464    2.0875  H     
42   H        41.9727  -31.9730    1.2459  H     
43   H        40.2389  -31.7058    1.4909  H     
@<TRIPOS>BOND
     1    1    2 2
     2    1    6 1
     3    1   17 1
     4    2    3 1
     5    3    4 2
     6    4    5 1
     7    4    7 1
     8    5    6 2
     9    5    8 1
    10    8    9 2
    11    8   13 1
    12    9   10 1
    13   10   11 2
    14   11   12 1
    15   11   14 1
    16   12   13 2
    17   14   15 am
    18   14   16 2
    19   17   20 1
    20   17   22 2
    21   18   19 1
    22   18   21 2
    23   19   20 2
    24   21   22 1
    25   21   26 1
    26   22   23 1
    27   23   24 1
    28   24   25 1
    29   25   26 1
    30    2   27 1
    31    6   28 1
    32    7   29 1
    33    7   30 1
    34    9   31 1
    35   10   32 1
    36   12   33 1
    37   13   34 1
    38   15   35 1
    39   15   36 1
    40   18   37 1
    41   19   38 1
    42   20   39 1
    43   24   40 1
    44   24   41 1
    45   25   42 1
    46   25   43 1
@<TRIPOS>PROPERTY_DATA
  Total_Score	| 9.1462
  Crash		| -1.3681
  Polar		| 3.3981
  FragIndex	| 1
  FragRMSD	| 0.154

