@<TRIPOS>MOLECULE
BindingDB_50309189
 37 39 0 0 0
SMALL
NO_CHARGES


@<TRIPOS>ATOM
1    C        38.3697  -32.9298    6.1180  C     
2    C        38.0294  -34.0199    5.2991  C     
3    N        37.2484  -35.0356    5.7765  N     
4    C        36.7479  -35.0623    7.0352  C     
5    C        37.0532  -34.0076    7.9347  C     
6    C        37.8897  -32.9591    7.4644  C     
7    N        35.9350  -36.0864    7.3313  N     
8    C        36.5010  -33.9265    9.2438  C     
9    C        36.4558  -35.0671   10.0872  C     
10   C        35.8605  -34.9806   11.3665  C     
11   C        35.2809  -33.7892   11.8405  C     
12   C        35.3423  -32.6464   10.9921  C     
13   C        35.9286  -32.7282    9.7145  C     
14   C        34.7081  -33.7052   13.0959  C     
15   N        34.5801  -32.5757   13.7710  N     
16   O        34.3819  -34.7240   13.7210  O     
17   C        39.1271  -31.8232    5.6140  C     
18   C        40.1870  -32.0030    4.6789  C     
19   C        40.9022  -30.9108    4.1630  C     
20   C        40.5915  -29.5932    4.5863  C     
21   C        39.5486  -29.3935    5.4998  C     
22   C        38.8207  -30.4840    6.0102  C     
23   H        38.3127  -34.0639    4.3168  H     
24   H        38.1562  -32.2014    8.0971  H     
25   H        35.5120  -36.1522    8.1942  H     
26   H        35.7683  -36.7736    6.6479  H     
27   H        36.8540  -35.9466    9.7755  H     
28   H        35.8620  -35.8331   11.9391  H     
29   H        34.9210  -31.7650   11.2735  H     
30   H        35.9238  -31.8880    9.1258  H     
31   H        34.2652  -32.5966   14.6863  H     
32   H        34.8693  -31.7331   13.3815  H     
33   H        40.4485  -32.9458    4.3744  H     
34   H        41.6569  -31.0618    3.4967  H     
35   H        41.1188  -28.8097    4.2181  H     
36   H        39.3123  -28.4413    5.7972  H     
37   H        38.0472  -30.2994    6.6469  H     
@<TRIPOS>BOND
     1    1    2 2
     2    1    6 1
     3    1   17 1
     4    2    3 1
     5    3    4 2
     6    4    5 1
     7    4    7 1
     8    5    6 2
     9    5    8 1
    10    8    9 2
    11    8   13 1
    12    9   10 1
    13   10   11 2
    14   11   12 1
    15   11   14 1
    16   12   13 2
    17   14   15 am
    18   14   16 2
    19   17   18 2
    20   17   22 1
    21   18   19 1
    22   19   20 2
    23   20   21 1
    24   21   22 2
    25    2   23 1
    26    6   24 1
    27    7   25 1
    28    7   26 1
    29    9   27 1
    30   10   28 1
    31   12   29 1
    32   13   30 1
    33   15   31 1
    34   15   32 1
    35   18   33 1
    36   19   34 1
    37   20   35 1
    38   21   36 1
    39   22   37 1
@<TRIPOS>PROPERTY_DATA
  Total_Score	| 7.6640
  Crash		| -1.1055
  Polar		| 3.3762
  FragIndex	| 1
  FragRMSD	| 0.147

