@<TRIPOS>MOLECULE
BindingDB_50309183
 49 51 0 0 0
SMALL
NO_CHARGES


@<TRIPOS>ATOM
1    C        38.3235  -32.9968    6.2479  C     
2    C        38.0115  -34.1325    5.4667  C     
3    N        37.2060  -35.1000    5.9600  N     
4    C        36.6571  -35.0752    7.2005  C     
5    C        36.9317  -33.9791    8.0628  C     
6    C        37.8022  -32.9719    7.5643  C     
7    N        35.8172  -36.0876    7.4852  N     
8    C        36.3209  -33.8105    9.3485  C     
9    C        36.1734  -34.8795   10.2711  C     
10   C        35.5440  -34.6925   11.5239  C     
11   C        35.1139  -33.3991   11.9016  C     
12   C        35.2474  -32.3303   10.9984  C     
13   C        35.8394  -32.5345    9.7410  C     
14   O        34.5471  -33.1616   13.1139  O     
15   C        39.0546  -31.8985    5.6908  C     
16   C        40.0868  -32.1103    4.7474  C     
17   C        40.7146  -31.0375    4.0744  C     
18   C        40.3481  -29.7046    4.3916  C     
19   C        39.3841  -29.4729    5.4038  C     
20   C        38.7300  -30.5608    6.0161  C     
21   O        38.9906  -28.2082    5.7640  O     
22   C        39.7602  -27.6620    6.8524  C     
23   O        41.7201  -31.2377    3.1521  O     
24   C        41.6865  -32.4380    2.3522  C     
25   O        35.4275  -35.7468   12.3921  O     
26   C        34.0741  -36.0622   12.7770  C     
27   C        40.9711  -28.5741    3.6515  C     
28   H        38.3336  -34.2138    4.4982  H     
29   H        38.0475  -32.1836    8.1725  H     
30   H        35.3386  -36.1099    8.3251  H     
31   H        35.6743  -36.7941    6.8361  H     
32   H        36.5308  -35.8109   10.0406  H     
33   H        34.9123  -31.3986   11.2544  H     
34   H        35.9103  -31.7381    9.1041  H     
35   H        35.2957  -32.9538   13.7128  H     
36   H        40.3792  -33.0666    4.5329  H     
37   H        37.9819  -30.3549    6.6818  H     
38   H        39.7352  -28.3092    7.7305  H     
39   H        39.3262  -26.7014    7.1250  H     
40   H        40.7929  -27.4999    6.5476  H     
41   H        42.0156  -33.3000    2.9392  H     
42   H        42.3833  -32.3075    1.5230  H     
43   H        40.6894  -32.6326    1.9393  H     
44   H        33.5837  -35.2262   13.2916  H     
45   H        34.1108  -36.9000   13.4727  H     
46   H        33.4731  -36.3564   11.9083  H     
47   H        42.0407  -28.5589    3.8453  H     
48   H        40.5659  -27.5980    3.9276  H     
49   H        40.8089  -28.7063    2.5816  H     
@<TRIPOS>BOND
     1    1    2 2
     2    1    6 1
     3    1   15 1
     4    2    3 1
     5    3    4 2
     6    4    5 1
     7    4    7 1
     8    5    6 2
     9    5    8 1
    10    8    9 2
    11    8   13 1
    12    9   10 1
    13   10   11 2
    14   10   25 1
    15   11   12 1
    16   11   14 1
    17   12   13 2
    18   15   16 2
    19   15   20 1
    20   16   17 1
    21   17   18 2
    22   17   23 1
    23   18   19 1
    24   18   27 1
    25   19   20 2
    26   19   21 1
    27   21   22 1
    28   23   24 1
    29   25   26 1
    30    2   28 1
    31    6   29 1
    32    7   30 1
    33    7   31 1
    34    9   32 1
    35   12   33 1
    36   13   34 1
    37   14   35 1
    38   16   36 1
    39   20   37 1
    40   22   38 1
    41   22   39 1
    42   22   40 1
    43   24   41 1
    44   24   42 1
    45   24   43 1
    46   26   44 1
    47   26   45 1
    48   26   46 1
    49   27   47 1
    50   27   48 1
    51   27   49 1
@<TRIPOS>PROPERTY_DATA
  Total_Score	| 8.5099
  Crash		| -1.3251
  Polar		| 3.1437
  FragIndex	| 1
  FragRMSD	| 0.271

