@<TRIPOS>MOLECULE
BindingDB_50309205
 48 50 0 0 0
SMALL
NO_CHARGES


@<TRIPOS>ATOM
1    C        38.3914  -33.0884    6.1783  C     
2    C        38.0103  -34.1783    5.3551  C     
3    N        37.2030  -35.1530    5.8343  N     
4    C        36.7199  -35.1709    7.1027  C     
5    C        37.0712  -34.1335    8.0009  C     
6    C        37.9300  -33.1152    7.5170  C     
7    N        35.8800  -36.1776    7.4111  N     
8    C        36.5392  -34.0350    9.3190  C     
9    C        36.5470  -35.1328   10.2067  C     
10   C        35.9391  -35.0377   11.4733  C     
11   C        35.3293  -33.8344   11.9020  C     
12   C        35.3460  -32.7243   11.0202  C     
13   C        35.9443  -32.8251    9.7512  C     
14   C        34.7228  -33.7490   13.1531  C     
15   N        34.7010  -32.6384   13.8598  N     
16   O        34.2273  -34.7360   13.6794  O     
17   C        39.1166  -31.9807    5.6402  C     
18   C        40.1216  -32.1519    4.6522  C     
19   C        40.7144  -31.0397    4.0271  C     
20   C        40.3548  -29.7311    4.3864  C     
21   C        39.4167  -29.5433    5.4280  C     
22   C        38.8042  -30.6579    6.0386  C     
23   O        40.8531  -28.7292    3.5925  O     
24   C        41.5012  -27.5790    4.1641  C     
25   C        40.5440  -26.6313    4.9364  C     
26   O        39.1756  -26.6386    4.4636  O     
27   C        38.9883  -26.1402    3.1258  C     
28   H        38.2849  -34.2272    4.3689  H     
29   H        38.2204  -32.3686    8.1535  H     
30   H        35.4877  -36.2281    8.2969  H     
31   H        35.6603  -36.8512    6.7450  H     
32   H        36.9804  -36.0170    9.9249  H     
33   H        35.9609  -35.8535   12.0907  H     
34   H        34.8888  -31.8423   11.2798  H     
35   H        35.9034  -32.0110    9.1317  H     
36   H        34.3171  -32.6404   14.7536  H     
37   H        35.1256  -31.8357   13.5184  H     
38   H        40.4025  -33.0869    4.3508  H     
39   H        41.3991  -31.1947    3.2817  H     
40   H        39.1526  -28.6077    5.7345  H     
41   H        38.0780  -30.4731    6.7333  H     
42   H        42.3534  -27.8712    4.7913  H     
43   H        41.9136  -27.0242    3.3164  H     
44   H        40.5022  -26.9401    5.9804  H     
45   H        40.9672  -25.6196    4.9417  H     
46   H        39.2935  -25.0893    3.0528  H     
47   H        37.9238  -26.2062    2.8852  H     
48   H        39.5394  -26.7337    2.3988  H     
@<TRIPOS>BOND
     1    1    2 2
     2    1    6 1
     3    1   17 1
     4    2    3 1
     5    3    4 2
     6    4    5 1
     7    4    7 1
     8    5    6 2
     9    5    8 1
    10    8    9 2
    11    8   13 1
    12    9   10 1
    13   10   11 2
    14   11   12 1
    15   11   14 1
    16   12   13 2
    17   14   15 am
    18   14   16 2
    19   17   18 2
    20   17   22 1
    21   18   19 1
    22   19   20 2
    23   20   21 1
    24   20   23 1
    25   21   22 2
    26   23   24 1
    27   24   25 1
    28   25   26 1
    29   26   27 1
    30    2   28 1
    31    6   29 1
    32    7   30 1
    33    7   31 1
    34    9   32 1
    35   10   33 1
    36   12   34 1
    37   13   35 1
    38   15   36 1
    39   15   37 1
    40   18   38 1
    41   19   39 1
    42   21   40 1
    43   22   41 1
    44   24   42 1
    45   24   43 1
    46   25   44 1
    47   25   45 1
    48   27   46 1
    49   27   47 1
    50   27   48 1
@<TRIPOS>PROPERTY_DATA
  Total_Score	| 8.9316
  Crash		| -1.4855
  Polar		| 4.4084
  FragIndex	| 1
  FragRMSD	| 0.210

