@<TRIPOS>MOLECULE
BindingDB_50309186
 48 50 0 0 0
SMALL
NO_CHARGES


@<TRIPOS>ATOM
1    C        38.3759  -32.9909    6.1036  C     
2    C        38.0899  -34.1425    5.3311  C     
3    N        37.3249  -35.1408    5.8282  N     
4    C        36.7887  -35.1262    7.0670  C     
5    C        37.0249  -34.0181    7.9202  C     
6    C        37.8291  -32.9661    7.4118  C     
7    N        36.0027  -36.1729    7.3866  N     
8    C        36.4800  -33.9410    9.2295  C     
9    C        36.4685  -35.0621   10.0923  C     
10   C        35.8928  -34.9796   11.3751  C     
11   C        35.3321  -33.7643   11.8471  C     
12   C        35.3633  -32.6410   10.9865  C     
13   C        35.9183  -32.7334    9.6995  C     
14   C        34.7658  -33.6877   13.1185  C     
15   N        34.6581  -32.5561   13.7881  N     
16   O        34.3518  -34.6865   13.6887  O     
17   C        39.1859  -31.9198    5.5828  C     
18   C        39.0490  -30.5797    6.0327  C     
19   C        39.8754  -29.5367    5.5613  C     
20   C        40.9033  -29.8479    4.6350  C     
21   C        40.9923  -31.1340    4.1053  C     
22   C        40.1563  -32.1687    4.5810  C     
23   O        39.6406  -28.2811    6.0658  O     
24   C        40.3748  -27.1189    5.6061  C     
25   C        40.1364  -26.7203    4.1322  C     
26   O        38.7434  -26.4372    3.9116  O     
27   C        38.4611  -25.8761    2.6179  C     
28   H        38.4309  -34.2434    4.3751  H     
29   H        38.0420  -32.1720    8.0205  H     
30   H        35.5513  -36.2066    8.2448  H     
31   H        35.8745  -36.8960    6.7542  H     
32   H        36.8828  -35.9509    9.7909  H     
33   H        35.9180  -35.8082   11.9792  H     
34   H        34.9652  -31.7440   11.2796  H     
35   H        35.9027  -31.9059    9.1018  H     
36   H        34.2952  -32.5605   14.6902  H     
37   H        34.9596  -31.7194   13.3951  H     
38   H        38.3251  -30.3436    6.7154  H     
39   H        41.5806  -29.1307    4.3599  H     
40   H        41.6919  -31.3445    3.3845  H     
41   H        40.3076  -33.1129    4.2124  H     
42   H        40.0639  -26.2815    6.2333  H     
43   H        41.4458  -27.2668    5.7433  H     
44   H        40.7485  -25.8248    3.9322  H     
45   H        40.4652  -27.5306    3.4750  H     
46   H        38.9494  -24.9110    2.4913  H     
47   H        37.3839  -25.7292    2.5317  H     
48   H        38.7835  -26.5471    1.8204  H     
@<TRIPOS>BOND
     1    1    2 2
     2    1    6 1
     3    1   17 1
     4    2    3 1
     5    3    4 2
     6    4    5 1
     7    4    7 1
     8    5    6 2
     9    5    8 1
    10    8    9 2
    11    8   13 1
    12    9   10 1
    13   10   11 2
    14   11   12 1
    15   11   14 1
    16   12   13 2
    17   14   15 am
    18   14   16 2
    19   17   18 2
    20   17   22 1
    21   18   19 1
    22   19   20 2
    23   19   23 1
    24   20   21 1
    25   21   22 2
    26   23   24 1
    27   24   25 1
    28   25   26 1
    29   26   27 1
    30    2   28 1
    31    6   29 1
    32    7   30 1
    33    7   31 1
    34    9   32 1
    35   10   33 1
    36   12   34 1
    37   13   35 1
    38   15   36 1
    39   15   37 1
    40   18   38 1
    41   20   39 1
    42   21   40 1
    43   22   41 1
    44   24   42 1
    45   24   43 1
    46   25   44 1
    47   25   45 1
    48   27   46 1
    49   27   47 1
    50   27   48 1
@<TRIPOS>PROPERTY_DATA
  Total_Score	| 9.2852
  Crash		| -1.4379
  Polar		| 4.2386
  FragIndex	| 1
  FragRMSD	| 0.212

