@<TRIPOS>MOLECULE
BindingDB_50309196
 36 38 0 0 0
SMALL
NO_CHARGES


@<TRIPOS>ATOM
1    C        38.4667  -32.9807    6.1952  C     
2    C        38.0257  -34.0477    5.3624  C     
3    N        37.1564  -34.9871    5.7837  N     
4    C        36.6288  -35.0074    7.0227  C     
5    C        37.0053  -34.0066    7.9542  C     
6    C        37.9383  -33.0337    7.5175  C     
7    N        35.7178  -35.9725    7.2587  N     
8    C        36.4528  -33.9392    9.2661  C     
9    C        36.4053  -35.0723   10.1172  C     
10   C        35.8198  -34.9960   11.3876  C     
11   C        35.2880  -33.7692   11.8789  C     
12   C        35.3559  -32.6368   11.0302  C     
13   C        35.9263  -32.7206    9.7561  C     
14   C        34.7285  -33.6841   13.1456  C     
15   N        34.7293  -32.5697   13.8587  N     
16   O        34.2335  -34.6659   13.6835  O     
17   C        39.3562  -31.9243    5.7183  C     
18   C        39.3245  -30.5829    6.2123  C     
19   C        40.1793  -29.5795    5.7385  C     
20   C        41.0981  -29.8912    4.7285  C     
21   N        41.1372  -31.1532    4.2418  N     
22   C        40.3291  -32.1401    4.6902  C     
23   H        38.3124  -34.1511    4.3987  H     
24   H        38.2105  -32.3667    8.2278  H     
25   H        35.2650  -36.0330    8.1209  H     
26   H        35.5123  -36.6291    6.5762  H     
27   H        36.8035  -35.9674    9.8103  H     
28   H        35.8121  -35.8335   11.9730  H     
29   H        34.9598  -31.7434   11.3273  H     
30   H        35.9359  -31.8831    9.1662  H     
31   H        34.3780  -32.5715   14.7598  H     
32   H        35.1524  -31.7668   13.5124  H     
33   H        38.6750  -30.2792    6.9253  H     
34   H        40.1365  -28.6333    6.1181  H     
35   H        41.7377  -29.1780    4.3582  H     
36   H        40.4778  -33.0362    4.2408  H     
@<TRIPOS>BOND
     1    1    2 2
     2    1    6 1
     3    1   17 1
     4    2    3 1
     5    3    4 2
     6    4    5 1
     7    4    7 1
     8    5    6 2
     9    5    8 1
    10    8    9 2
    11    8   13 1
    12    9   10 1
    13   10   11 2
    14   11   12 1
    15   11   14 1
    16   12   13 2
    17   14   15 am
    18   14   16 2
    19   17   18 2
    20   17   22 1
    21   18   19 1
    22   19   20 2
    23   20   21 1
    24   21   22 2
    25    2   23 1
    26    6   24 1
    27    7   25 1
    28    7   26 1
    29    9   27 1
    30   10   28 1
    31   12   29 1
    32   13   30 1
    33   15   31 1
    34   15   32 1
    35   18   33 1
    36   19   34 1
    37   20   35 1
    38   22   36 1
@<TRIPOS>PROPERTY_DATA
  Total_Score	| 7.9331
  Crash		| -0.6824
  Polar		| 3.4730
  FragIndex	| 1
  FragRMSD	| 0.201

