@<TRIPOS>MOLECULE
BindingDB_50309188
 50 52 0 0 0
SMALL
NO_CHARGES


@<TRIPOS>ATOM
1    C        38.3092  -32.9448    6.2253  C     
2    C        37.9924  -34.0862    5.4505  C     
3    N        37.1977  -35.0623    5.9467  N     
4    C        36.6544  -35.0201    7.1894  C     
5    C        36.9270  -33.9179    8.0532  C     
6    C        37.7842  -32.9087    7.5375  C     
7    N        35.8160  -36.0408    7.4824  N     
8    C        36.3349  -33.7700    9.3519  C     
9    C        36.2003  -34.8532   10.2599  C     
10   C        35.5563  -34.6868   11.5088  C     
11   C        35.1281  -33.4002   11.9054  C     
12   C        35.2782  -32.3127   11.0227  C     
13   C        35.8576  -32.5018    9.7584  C     
14   O        34.5930  -33.2109   13.1377  O     
15   C        39.0636  -31.8633    5.6874  C     
16   C        40.0982  -32.0949    4.7531  C     
17   C        40.7778  -31.0268    4.1276  C     
18   C        40.4742  -29.6897    4.5003  C     
19   C        39.4164  -29.4407    5.4041  C     
20   C        38.7191  -30.5200    5.9777  C     
21   O        38.8865  -28.1844    5.6405  O     
22   C        39.6185  -27.3609    6.5668  C     
23   O        41.1407  -28.6089    3.9580  O     
24   C        42.5181  -28.4652    4.3581  C     
25   O        41.7622  -31.2227    3.1948  O     
26   C        41.6268  -32.4168    2.3796  C     
27   O        35.4357  -35.7657   12.3486  O     
28   C        34.0942  -36.0704   12.7732  C     
29   H        38.3206  -34.1693    4.4880  H     
30   H        38.0295  -32.1195    8.1427  H     
31   H        35.3072  -36.0443    8.3077  H     
32   H        35.6897  -36.7624    6.8318  H     
33   H        36.5804  -35.7741   10.0186  H     
34   H        34.9589  -31.3833   11.2988  H     
35   H        35.9189  -31.6964    9.1357  H     
36   H        34.7709  -32.2735   13.3699  H     
37   H        40.3791  -33.0466    4.5003  H     
38   H        37.9129  -30.3228    6.5856  H     
39   H        39.8207  -27.8882    7.5152  H     
40   H        39.0086  -26.4744    6.8023  H     
41   H        40.5555  -27.0404    6.0950  H     
42   H        42.6094  -28.4185    5.4412  H     
43   H        42.8956  -27.5214    3.9434  H     
44   H        43.1390  -29.2800    3.9648  H     
45   H        41.8381  -33.3153    2.9683  H     
46   H        42.3525  -32.3632    1.5642  H     
47   H        40.6274  -32.4958    1.9391  H     
48   H        33.6527  -35.2521   13.3482  H     
49   H        34.1323  -36.9491   13.4221  H     
50   H        33.4464  -36.3050   11.9236  H     
@<TRIPOS>BOND
     1    1    2 2
     2    1    6 1
     3    1   15 1
     4    2    3 1
     5    3    4 2
     6    4    5 1
     7    4    7 1
     8    5    6 2
     9    5    8 1
    10    8    9 2
    11    8   13 1
    12    9   10 1
    13   10   11 2
    14   10   27 1
    15   11   12 1
    16   11   14 1
    17   12   13 2
    18   15   16 2
    19   15   20 1
    20   16   17 1
    21   17   18 2
    22   17   25 1
    23   18   19 1
    24   18   23 1
    25   19   20 2
    26   19   21 1
    27   21   22 1
    28   23   24 1
    29   25   26 1
    30   27   28 1
    31    2   29 1
    32    6   30 1
    33    7   31 1
    34    7   32 1
    35    9   33 1
    36   12   34 1
    37   13   35 1
    38   14   36 1
    39   16   37 1
    40   20   38 1
    41   22   39 1
    42   22   40 1
    43   22   41 1
    44   24   42 1
    45   24   43 1
    46   24   44 1
    47   26   45 1
    48   26   46 1
    49   26   47 1
    50   28   48 1
    51   28   49 1
    52   28   50 1
@<TRIPOS>PROPERTY_DATA
  Total_Score	| 8.2997
  Crash		| -1.5596
  Polar		| 3.3031
  FragIndex	| 1
  FragRMSD	| 0.272

