@<TRIPOS>MOLECULE
BindingDB_50309203
 40 43 0 0 0
SMALL
NO_CHARGES


@<TRIPOS>ATOM
1    C        38.4232  -32.9917    6.1547  C     
2    C        38.0254  -34.0802    5.3314  C     
3    N        37.2596  -35.0891    5.7990  N     
4    C        36.7866  -35.1325    7.0610  C     
5    C        37.1061  -34.0942    7.9658  C     
6    C        37.9569  -33.0519    7.4979  C     
7    N        35.9766  -36.1613    7.3479  N     
8    C        36.5387  -34.0181    9.2614  C     
9    C        36.5470  -35.1268   10.1435  C     
10   C        35.9104  -35.0436   11.3939  C     
11   C        35.2573  -33.8555   11.8212  C     
12   C        35.2879  -32.7420   10.9445  C     
13   C        35.9053  -32.8271    9.6831  C     
14   C        34.6434  -33.7966   13.0617  C     
15   N        34.5158  -32.6684   13.7371  N     
16   O        34.2230  -34.8054   13.6175  O     
17   C        39.2131  -31.8861    5.6490  C     
18   C        40.2220  -32.0656    4.6461  C     
19   C        39.7804  -29.4560    5.6093  C     
20   C        39.0289  -30.5371    6.1122  C     
21   C        40.7307  -29.6850    4.6011  C     
22   C        40.9302  -30.9709    4.1175  C     
23   O        41.8717  -30.9996    3.1511  O     
24   C        42.3438  -29.6351    3.1650  C     
25   O        41.5268  -28.7812    3.9880  O     
26   H        38.2678  -34.1349    4.3463  H     
27   H        38.2235  -32.3411    8.1818  H     
28   H        35.5596  -36.2177    8.2291  H     
29   H        35.8203  -36.8633    6.6928  H     
30   H        37.0084  -36.0033    9.8690  H     
31   H        35.9458  -35.8644   12.0103  H     
32   H        34.8237  -31.8654   11.1848  H     
33   H        35.8508  -32.0264    9.0481  H     
34   H        34.1751  -32.6704   14.6388  H     
35   H        34.8360  -31.8406   13.3423  H     
36   H        40.4833  -32.9836    4.2881  H     
37   H        39.6347  -28.5027    5.9688  H     
38   H        38.3242  -30.2992    6.8120  H     
39   H        43.3700  -29.6169    3.5475  H     
40   H        42.3402  -29.2441    2.1458  H     
@<TRIPOS>BOND
     1    1    2 2
     2    1    6 1
     3    1   17 1
     4    2    3 1
     5    3    4 2
     6    4    5 1
     7    4    7 1
     8    5    6 2
     9    5    8 1
    10    8    9 2
    11    8   13 1
    12    9   10 1
    13   10   11 2
    14   11   12 1
    15   11   14 1
    16   12   13 2
    17   14   15 am
    18   14   16 2
    19   17   18 2
    20   17   20 1
    21   18   22 1
    22   19   20 2
    23   19   21 1
    24   21   22 2
    25   21   25 1
    26   22   23 1
    27   23   24 1
    28   24   25 1
    29    2   26 1
    30    6   27 1
    31    7   28 1
    32    7   29 1
    33    9   30 1
    34   10   31 1
    35   12   32 1
    36   13   33 1
    37   15   34 1
    38   15   35 1
    39   18   36 1
    40   19   37 1
    41   20   38 1
    42   24   39 1
    43   24   40 1
@<TRIPOS>PROPERTY_DATA
  Total_Score	| 8.0426
  Crash		| -0.9978
  Polar		| 3.4614
  FragIndex	| 1
  FragRMSD	| 0.244

