@<TRIPOS>MOLECULE
BindingDB_50309193
 46 48 0 0 0
SMALL
NO_CHARGES


@<TRIPOS>ATOM
1    C        38.2498  -33.0538    6.3987  C     
2    C        37.8911  -34.1319    5.5583  C     
3    N        37.1154  -35.1402    6.0237  N     
4    C        36.6293  -35.1882    7.2859  C     
5    C        36.9294  -34.1368    8.1948  C     
6    C        37.7597  -33.0891    7.7252  C     
7    N        35.8380  -36.2391    7.5788  N     
8    C        36.3865  -34.0772    9.5137  C     
9    C        36.5000  -35.1635   10.4070  C     
10   C        35.9176  -35.1029   11.6893  C     
11   C        35.2390  -33.9379   12.1048  C     
12   C        35.1421  -32.8400   11.2381  C     
13   C        35.7127  -32.9078    9.9491  C     
14   O        34.6707  -33.9041   13.3424  O     
15   C        39.0280  -31.9626    5.9059  C     
16   C        39.9336  -32.1319    4.8288  C     
17   C        40.6118  -31.0329    4.2634  C     
18   C        40.4658  -29.7444    4.8189  C     
19   C        39.6377  -29.5600    5.9520  C     
20   C        38.8928  -30.6602    6.4504  C     
21   O        39.5239  -28.3151    6.5094  O     
22   C        40.0490  -28.2466    7.8488  C     
23   O        41.0528  -28.6973    4.1492  O     
24   C        42.2325  -28.1506    4.7700  C     
25   O        41.4679  -31.2058    3.2026  O     
26   C        40.9305  -31.9948    2.1222  C     
27   H        38.1892  -34.1670    4.5814  H     
28   H        38.0271  -32.3453    8.3715  H     
29   H        35.4390  -36.3356    8.4543  H     
30   H        35.6638  -36.9065    6.8993  H     
31   H        37.0075  -36.0059   10.1357  H     
32   H        35.9892  -35.9041   12.3181  H     
33   H        34.6489  -31.9972   11.5274  H     
34   H        35.6138  -32.1011    9.3282  H     
35   H        34.4396  -32.9547   13.4924  H     
36   H        40.0959  -33.0596    4.4356  H     
37   H        38.2361  -30.4923    7.2173  H     
38   H        39.5211  -28.8995    8.5492  H     
39   H        39.9310  -27.2226    8.1892  H     
40   H        41.1080  -28.4990    7.8725  H     
41   H        41.9401  -27.6698    5.7160  H     
42   H        42.6774  -27.3979    4.1007  H     
43   H        42.9949  -28.9245    4.9571  H     
44   H        40.8200  -33.0398    2.4280  H     
45   H        41.6390  -31.9525    1.2902  H     
46   H        39.9628  -31.6128    1.7707  H     
@<TRIPOS>BOND
     1    1    2 2
     2    1    6 1
     3    1   15 1
     4    2    3 1
     5    3    4 2
     6    4    5 1
     7    4    7 1
     8    5    6 2
     9    5    8 1
    10    8    9 2
    11    8   13 1
    12    9   10 1
    13   10   11 2
    14   11   12 1
    15   11   14 1
    16   12   13 2
    17   15   16 2
    18   15   20 1
    19   16   17 1
    20   17   18 2
    21   17   25 1
    22   18   19 1
    23   18   23 1
    24   19   20 2
    25   19   21 1
    26   21   22 1
    27   23   24 1
    28   25   26 1
    29    2   27 1
    30    6   28 1
    31    7   29 1
    32    7   30 1
    33    9   31 1
    34   10   32 1
    35   12   33 1
    36   13   34 1
    37   14   35 1
    38   16   36 1
    39   20   37 1
    40   22   38 1
    41   22   39 1
    42   22   40 1
    43   24   41 1
    44   24   42 1
    45   24   43 1
    46   26   44 1
    47   26   45 1
    48   26   46 1
@<TRIPOS>PROPERTY_DATA
  Total_Score	| 8.0079
  Crash		| -1.0279
  Polar		| 2.9939
  FragIndex	| 1
  FragRMSD	| 0.359

