@<TRIPOS>MOLECULE
BindingDB_50309202
 41 43 0 0 0
SMALL
NO_CHARGES


@<TRIPOS>ATOM
1    C        38.3924  -32.9870    6.1371  C     
2    C        38.0687  -34.1089    5.3350  C     
3    N        37.2736  -35.0964    5.8143  N     
4    C        36.7596  -35.1007    7.0650  C     
5    C        37.0499  -34.0311    7.9462  C     
6    C        37.8763  -32.9799    7.4578  C     
7    N        35.9580  -36.1291    7.3836  N     
8    C        36.5225  -33.9545    9.2712  C     
9    C        36.5414  -35.0771   10.1310  C     
10   C        35.9557  -35.0172   11.4137  C     
11   C        35.3346  -33.8342   11.8739  C     
12   C        35.3782  -32.6871   11.0401  C     
13   C        35.9414  -32.7628    9.7522  C     
14   C        34.7228  -33.7927   13.1230  C     
15   N        34.6171  -32.6837   13.8251  N     
16   O        34.3030  -34.8167   13.6643  O     
17   C        39.1758  -31.9045    5.6251  C     
18   C        38.9404  -30.5713    6.0454  C     
19   C        39.6703  -29.4924    5.5147  C     
20   C        40.6613  -29.7223    4.5458  C     
21   C        40.9077  -31.0346    4.1044  C     
22   C        40.1740  -32.1130    4.6397  C     
23   O        41.3274  -28.6626    3.9863  O     
24   C        42.4916  -28.2747    4.7405  C     
25   H        38.3926  -34.1843    4.3687  H     
26   H        38.1166  -32.2026    8.0778  H     
27   H        35.5306  -36.1754    8.2537  H     
28   H        35.8048  -36.8350    6.7325  H     
29   H        36.9677  -35.9508    9.8325  H     
30   H        35.9843  -35.8445   12.0061  H     
31   H        34.9704  -31.7953   11.3356  H     
32   H        35.8895  -31.9328    9.1489  H     
33   H        34.2518  -32.7122   14.7264  H     
34   H        34.9401  -31.8381   13.4657  H     
35   H        38.1990  -30.3650    6.7277  H     
36   H        39.4594  -28.5433    5.8200  H     
37   H        41.6115  -31.2097    3.3910  H     
38   H        40.3847  -33.0574    4.2988  H     
39   H        42.2196  -27.9471    5.7549  H     
40   H        42.9664  -27.4344    4.2313  H     
41   H        43.2189  -29.0928    4.8033  H     
@<TRIPOS>BOND
     1    1    2 2
     2    1    6 1
     3    1   17 1
     4    2    3 1
     5    3    4 2
     6    4    5 1
     7    4    7 1
     8    5    6 2
     9    5    8 1
    10    8    9 2
    11    8   13 1
    12    9   10 1
    13   10   11 2
    14   11   12 1
    15   11   14 1
    16   12   13 2
    17   14   15 am
    18   14   16 2
    19   17   18 2
    20   17   22 1
    21   18   19 1
    22   19   20 2
    23   20   21 1
    24   20   23 1
    25   21   22 2
    26   23   24 1
    27    2   25 1
    28    6   26 1
    29    7   27 1
    30    7   28 1
    31    9   29 1
    32   10   30 1
    33   12   31 1
    34   13   32 1
    35   15   33 1
    36   15   34 1
    37   18   35 1
    38   19   36 1
    39   21   37 1
    40   22   38 1
    41   24   39 1
    42   24   40 1
    43   24   41 1
@<TRIPOS>PROPERTY_DATA
  Total_Score	| 7.8700
  Crash		| -0.9995
  Polar		| 3.4272
  FragIndex	| 1
  FragRMSD	| 0.242

