@<TRIPOS>MOLECULE
BindingDB_50309210
 41 43 0 0 0
SMALL
NO_CHARGES


@<TRIPOS>ATOM
1    C        38.3007  -32.9703    6.2214  C     
2    C        37.9236  -34.0654    5.4103  C     
3    N        37.1054  -35.0320    5.8851  N     
4    C        36.5874  -35.0224    7.1358  C     
5    C        36.9363  -33.9755    8.0318  C     
6    C        37.8188  -32.9736    7.5619  C     
7    N        35.7282  -36.0279    7.4193  N     
8    C        36.4066  -33.8797    9.3509  C     
9    C        36.2973  -35.0212   10.1886  C     
10   C        35.6689  -34.9329   11.4461  C     
11   C        35.2056  -33.6933   11.9536  C     
12   C        35.3774  -32.5403   11.1384  C     
13   C        35.9600  -32.6343    9.8670  C     
14   C        34.6421  -33.6153   13.2077  C     
15   N        34.7868  -32.5595   13.9783  N     
16   O        34.0877  -34.5928   13.7103  O     
17   C        39.0878  -31.8839    5.7107  C     
18   C        40.0633  -32.1069    4.6665  C     
19   C        40.7442  -31.0487    4.0569  C     
20   C        40.5262  -29.7305    4.4982  C     
21   C        39.5952  -29.4814    5.5442  C     
22   C        38.8878  -30.5499    6.1263  C     
23   O        41.6964  -31.1841    3.0610  O     
24   C        41.7080  -32.3489    2.2248  C     
25   H        38.1977  -34.1362    4.4232  H     
26   H        38.1239  -32.2233    8.1808  H     
27   H        35.2496  -36.0425    8.2732  H     
28   H        35.5929  -36.7313    6.7362  H     
29   H        36.6758  -35.9241    9.8862  H     
30   H        35.5889  -35.7914   12.0024  H     
31   H        35.0308  -31.6304   11.4545  H     
32   H        36.0310  -31.7768    9.3046  H     
33   H        34.4428  -32.5764   14.8873  H     
34   H        35.2640  -31.7718   13.6574  H     
35   H        40.2527  -33.0764    4.3779  H     
36   H        41.0330  -28.9455    4.0939  H     
37   H        39.4224  -28.5239    5.8482  H     
38   H        38.1926  -30.3257    6.8493  H     
39   H        42.1145  -33.2035    2.7491  H     
40   H        42.3748  -32.1648    1.3464  H     
41   H        40.7171  -32.5714    1.8338  H     
@<TRIPOS>BOND
     1    1    2 2
     2    1    6 1
     3    1   17 1
     4    2    3 1
     5    3    4 2
     6    4    5 1
     7    4    7 1
     8    5    6 2
     9    5    8 1
    10    8    9 2
    11    8   13 1
    12    9   10 1
    13   10   11 2
    14   11   12 1
    15   11   14 1
    16   12   13 2
    17   14   15 am
    18   14   16 2
    19   17   18 2
    20   17   22 1
    21   18   19 1
    22   19   20 2
    23   19   23 1
    24   20   21 1
    25   21   22 2
    26   23   24 1
    27    2   25 1
    28    6   26 1
    29    7   27 1
    30    7   28 1
    31    9   29 1
    32   10   30 1
    33   12   31 1
    34   13   32 1
    35   15   33 1
    36   15   34 1
    37   18   35 1
    38   20   36 1
    39   21   37 1
    40   22   38 1
    41   24   39 1
    42   24   40 1
    43   24   41 1
@<TRIPOS>PROPERTY_DATA
  Total_Score	| 8.5078
  Crash		| -0.6297
  Polar		| 3.4976
  FragIndex	| 1
  FragRMSD	| 0.282

