@<TRIPOS>MOLECULE
BindingDB_50309208
 43 46 0 0 0
SMALL
NO_CHARGES


@<TRIPOS>ATOM
1    C        38.2932  -33.0003    6.1622  C     
2    C        37.8969  -34.0833    5.3405  C     
3    N        37.0760  -35.0457    5.8169  N     
4    C        36.5744  -35.0592    7.0742  C     
5    C        36.9363  -34.0209    7.9859  C     
6    C        37.8241  -33.0203    7.4993  C     
7    N        35.6961  -36.0406    7.3281  N     
8    C        36.3972  -33.9166    9.3090  C     
9    C        35.9961  -32.6595    9.8126  C     
10   C        35.4473  -32.5305   11.1096  C     
11   C        35.2614  -33.6683   11.9405  C     
12   C        35.6791  -34.9215   11.4337  C     
13   C        36.2417  -35.0440   10.1440  C     
14   C        34.7020  -33.5559   13.2096  C     
15   N        34.7327  -32.4417   13.9164  N     
16   O        34.1831  -34.5246   13.7563  O     
17   C        39.0961  -31.9330    5.6306  C     
18   C        40.0807  -32.1736    4.6417  C     
19   C        40.8284  -31.1175    4.0731  C     
20   C        40.6383  -29.7939    4.5377  C     
21   C        39.6526  -29.5346    5.5052  C     
22   C        38.8863  -30.5921    6.0405  C     
23   O        41.7709  -31.4182    3.1179  O     
24   C        42.2834  -30.3034    2.3608  C     
25   O        41.3568  -28.7451    4.0099  O     
26   C        42.5617  -29.1033    3.2994  C     
27   H        38.1741  -34.1425    4.3633  H     
28   H        38.1391  -32.2841    8.1369  H     
29   H        35.2466  -36.0983    8.1838  H     
30   H        35.5176  -36.7179    6.6383  H     
31   H        36.0733  -31.8119    9.2411  H     
32   H        35.1471  -31.6014   11.4124  H     
33   H        35.6020  -35.7643   12.0082  H     
34   H        36.5413  -35.9717    9.8460  H     
35   H        34.3685  -32.4261   14.8180  H     
36   H        35.1588  -31.6477   13.5579  H     
37   H        40.2791  -33.1236    4.3174  H     
38   H        39.4713  -28.5779    5.8113  H     
39   H        38.1530  -30.3504    6.7130  H     
40   H        43.2051  -30.6108    1.8588  H     
41   H        41.5546  -30.0135    1.5986  H     
42   H        43.3456  -29.3701    4.0147  H     
43   H        42.9059  -28.2415    2.7199  H     
@<TRIPOS>BOND
     1    1    2 2
     2    1    6 1
     3    1   17 1
     4    2    3 1
     5    3    4 2
     6    4    5 1
     7    4    7 1
     8    5    6 2
     9    5    8 1
    10    8    9 2
    11    8   13 1
    12    9   10 1
    13   10   11 2
    14   11   12 1
    15   11   14 1
    16   12   13 2
    17   14   15 am
    18   14   16 2
    19   17   18 2
    20   17   22 1
    21   18   19 1
    22   19   20 2
    23   19   23 1
    24   20   21 1
    25   20   25 1
    26   21   22 2
    27   23   24 1
    28   24   26 1
    29   25   26 1
    30    2   27 1
    31    6   28 1
    32    7   29 1
    33    7   30 1
    34    9   31 1
    35   10   32 1
    36   12   33 1
    37   13   34 1
    38   15   35 1
    39   15   36 1
    40   18   37 1
    41   21   38 1
    42   22   39 1
    43   24   40 1
    44   24   41 1
    45   26   42 1
    46   26   43 1
@<TRIPOS>PROPERTY_DATA
  Total_Score	| 7.9272
  Crash		| -0.7736
  Polar		| 3.3788
  FragIndex	| 1
  FragRMSD	| 0.604

