@<TRIPOS>MOLECULE
BindingDB_7976
 91 92 0 0 0
SMALL
NO_CHARGES


@<TRIPOS>ATOM
1    C        19.1991    8.7765   22.0661  C     
2    C        19.8940    9.4228   21.0237  C     
3    C        19.3451   10.5665   20.4199  C     
4    C        18.1013   11.0395   20.8636  C     
5    C        17.9541    9.2848   22.5034  C     
6    N        17.4653   10.3924   21.8709  N     
7    C        17.2237    8.7216   23.5422  C     
8    O        17.6417    7.7043   24.1001  O     
9    N        16.0925    9.2847   23.9403  N     
10   C        15.1861    8.8461   24.9704  C     
11   C        14.9314    9.9749   26.0326  C     
12   C        13.8634    9.5812   27.0983  C     
13   C        16.2417   10.3887   26.7607  C     
14   C        13.9661    8.4281   24.2884  C     
15   O        13.3345    9.2568   23.6390  O     
16   N        13.5476    7.1728   24.3967  N     
17   C        12.2732    6.6551   23.9634  C     
18   C        10.1984    5.2979   24.9257  C     
19   C        12.4594    5.8548   22.6480  C     
20   C        11.6620    5.8246   25.1388  C     
21   O        11.6934    6.5913   26.3539  O     
22   C         9.0700    6.1829   25.1981  C     
23   O         9.1810    7.2111   25.8519  O     
24   C         6.6193    6.4914   24.8392  C     
25   N         7.8818    5.8163   24.6996  N     
26   C         5.5416    5.4595   25.2598  C     
27   C         6.6681    7.6329   25.7596  C     
28   O         6.8227    7.4030   26.9618  O     
29   N         6.5959    8.8670   25.2889  N     
30   C         7.1232   10.1143   25.8010  C     
31   C         7.0884   10.2650   27.2601  C     
32   O         8.1158   10.6557   27.8322  O     
33   N         6.0447   10.0913   28.0587  N     
34   C         6.4396   11.2441   24.9264  C     
35   C         6.7918   12.7748   25.0559  C     
36   C         5.6208   13.7307   24.6286  C     
37   C         7.3972   13.2038   26.4302  C     
38   O        12.6507    6.7902   21.5626  O     
39   C        12.5430    6.2231   20.2440  C     
40   C        13.1905    7.1263   19.2622  C     
41   C        12.7745    8.4781   19.1570  C     
42   C        14.2234    6.6720   18.4042  C     
43   C        14.8273    7.5417   17.4785  C     
44   C        14.4004    8.8792   17.3851  C     
45   C        13.3727    9.3428   18.2229  C     
46   H        19.6105    7.9449   22.4922  H     
47   H        20.8000    9.0644   20.7113  H     
48   H        19.8432   11.0479   19.6660  H     
49   H        17.6721   11.8650   20.4428  H     
50   H        15.8255   10.0899   23.4650  H     
51   H        15.6119    7.9927   25.5108  H     
52   H        14.5600   10.8646   25.5143  H     
53   H        12.9060    9.3634   26.6233  H     
54   H        13.7042   10.4013   27.8025  H     
55   H        14.1816    8.6984   27.6581  H     
56   H        16.6368    9.5607   27.3546  H     
57   H        16.0578   11.2374   27.4226  H     
58   H        17.0039   10.6920   26.0402  H     
59   H        14.1139    6.5619   24.9082  H     
60   H        11.5850    7.4700   23.7492  H     
61   H        10.1104    4.9314   23.8997  H     
62   H        10.0909    4.4297   25.5852  H     
63   H        13.3348    5.1964   22.7300  H     
64   H        11.5687    5.2372   22.4792  H     
65   H        12.3016    4.9423   25.3046  H     
66   H        12.2648    6.0664   26.9671  H     
67   H         6.3475    6.8375   23.8372  H     
68   H         7.8858    5.0109   24.1663  H     
69   H         5.5673    4.6048   24.5852  H     
70   H         4.5484    5.9113   25.2034  H     
71   H         5.7043    5.0980   26.2787  H     
72   H         6.2925    8.9053   24.3725  H     
73   H         8.1865   10.1229   25.5363  H     
74   H         6.1535   10.2608   29.0217  H     
75   H         5.1646    9.8981   27.6831  H     
76   H         6.6615   10.9906   23.8818  H     
77   H         5.3540   11.1102   25.0207  H     
78   H         7.5821   12.9900   24.3042  H     
79   H         5.2732   13.4806   23.6118  H     
80   H         5.9750   14.7717   24.6170  H     
81   H         4.7904   13.6472   25.3324  H     
82   H         6.7373   12.8972   27.2462  H     
83   H         7.5294   14.2943   26.4661  H     
84   H         8.3788   12.7308   26.5429  H     
85   H        13.0043    5.2303   20.2241  H     
86   H        11.4864    6.1133   19.9771  H     
87   H        12.0289    8.8360   19.7599  H     
88   H        14.5440    5.7022   18.4478  H     
89   H        15.5814    7.2054   16.8733  H     
90   H        14.8443    9.5123   16.7141  H     
91   H        13.0615   10.3150   18.1545  H     
@<TRIPOS>BOND
     1    1    2 1
     2    1    5 2
     3    2    3 2
     4    3    4 1
     5    4    6 2
     6    5    6 1
     7    5    7 1
     8    7    8 2
     9    7    9 am
    10    9   10 1
    11   10   11 1
    12   10   14 1
    13   11   12 1
    14   11   13 1
    15   14   15 2
    16   14   16 am
    17   16   17 1
    18   17   19 1
    19   17   20 1
    20   18   20 1
    21   18   22 1
    22   19   38 1
    23   20   21 1
    24   22   23 2
    25   22   25 am
    26   24   25 1
    27   24   26 1
    28   24   27 1
    29   27   28 2
    30   27   29 am
    31   29   30 1
    32   30   31 1
    33   30   34 1
    34   31   32 2
    35   31   33 am
    36   34   35 1
    37   35   36 1
    38   35   37 1
    39   38   39 1
    40   39   40 1
    41   40   41 2
    42   40   42 1
    43   41   45 1
    44   42   43 2
    45   43   44 1
    46   44   45 2
    47    1   46 1
    48    2   47 1
    49    3   48 1
    50    4   49 1
    51    9   50 1
    52   10   51 1
    53   11   52 1
    54   12   53 1
    55   12   54 1
    56   12   55 1
    57   13   56 1
    58   13   57 1
    59   13   58 1
    60   16   59 1
    61   17   60 1
    62   18   61 1
    63   18   62 1
    64   19   63 1
    65   19   64 1
    66   20   65 1
    67   21   66 1
    68   24   67 1
    69   25   68 1
    70   26   69 1
    71   26   70 1
    72   26   71 1
    73   29   72 1
    74   30   73 1
    75   33   74 1
    76   33   75 1
    77   34   76 1
    78   34   77 1
    79   35   78 1
    80   36   79 1
    81   36   80 1
    82   36   81 1
    83   37   82 1
    84   37   83 1
    85   37   84 1
    86   39   85 1
    87   39   86 1
    88   41   87 1
    89   42   88 1
    90   43   89 1
    91   44   90 1
    92   45   91 1
@<TRIPOS>PROPERTY_DATA
  Total_Score	| 14.5149
  Crash		| -2.2435
  Polar		| 8.2248
  FragIndex	| 1
  FragRMSD	| 0.186

