@<TRIPOS>MOLECULE
BindingDB_7979
 81 83 0 0 0
SMALL
NO_CHARGES


@<TRIPOS>ATOM
1    C        19.2079    8.7158   21.9233  C     
2    C        19.9066    9.3238   20.8651  C     
3    C        19.4083   10.4977   20.2770  C     
4    C        18.2154   11.0487   20.7695  C     
5    C        18.0195    9.3067   22.4158  C     
6    N        17.5710   10.4351   21.7920  N     
7    C        17.2964    8.7726   23.4807  C     
8    O        17.6914    7.7515   24.0356  O     
9    N        16.1881    9.3745   23.9015  N     
10   C        15.2973    8.9647   24.9584  C     
11   C        15.1476   10.0939   26.0385  C     
12   C        14.1257    9.7096   27.1467  C     
13   C        16.5094   10.4456   26.7049  C     
14   C        14.0444    8.5806   24.3082  C     
15   O        13.3844    9.4278   23.7161  O     
16   N        13.6865    7.3020   24.3007  N     
17   C        12.5487    6.7100   23.6537  C     
18   C        11.2401    6.1068   25.8584  C     
19   C        13.0034    6.1700   22.2668  C     
20   C        11.9614    5.5960   24.5746  C     
21   O        13.0382    4.7169   24.9381  O     
22   C        10.1003    6.9782   25.6225  C     
23   O        10.2876    8.0750   25.1113  O     
24   C         7.6810    7.3755   25.8540  C     
25   N         8.8776    6.6021   25.9914  N     
26   O        13.5044    7.2773   21.4869  O     
27   C        14.4959    6.9489   20.4909  C     
28   C        14.6656    8.1022   19.5643  C     
29   C        15.9276    8.7035   19.3503  C     
30   C        13.5456    8.6034   18.8549  C     
31   C        13.6928    9.6749   17.9539  C     
32   C        14.9493   10.2673   17.7570  C     
33   C        16.0670    9.7786   18.4518  C     
34   Br       15.1399   11.6988   16.5814  Br    
35   C         6.4521    6.6396   26.4781  C     
36   C         5.2275    7.5838   26.7036  C     
37   C         6.0057    5.3777   25.6789  C     
38   C         5.2572    5.7212   24.3688  C     
39   C         4.0642    6.6824   24.6084  C     
40   C         4.4869    7.9502   25.3895  C     
41   H        19.5872    7.8640   22.3387  H     
42   H        20.7735    8.9070   20.5184  H     
43   H        19.9105   10.9489   19.5098  H     
44   H        17.8237   11.8958   20.3577  H     
45   H        15.9289   10.1794   23.4224  H     
46   H        15.7105    8.0915   25.4771  H     
47   H        14.7782   10.9981   25.5435  H     
48   H        13.1421    9.5239   26.7146  H     
49   H        14.0249   10.5206   27.8708  H     
50   H        14.4483    8.8080   27.6735  H     
51   H        16.9262    9.5767   27.2193  H     
52   H        16.3792   11.2484   27.4325  H     
53   H        17.2295   10.7858   25.9599  H     
54   H        14.2970    6.6843   24.7377  H     
55   H        11.7629    7.4499   23.4707  H     
56   H        10.9068    5.2299   26.4187  H     
57   H        11.9560    6.6217   26.4969  H     
58   H        13.7663    5.3917   22.4031  H     
59   H        12.1549    5.7264   21.7375  H     
60   H        11.2374    5.0060   24.0056  H     
61   H        12.9615    4.5134   25.8952  H     
62   H         7.8229    8.3361   26.3607  H     
63   H         7.5027    7.5699   24.7930  H     
64   H         8.7829    5.7293   26.4065  H     
65   H        15.4425    6.7147   20.9975  H     
66   H        14.1881    6.0628   19.9173  H     
67   H        16.7510    8.3637   19.8523  H     
68   H        12.6215    8.1854   18.9861  H     
69   H        12.8773   10.0209   17.4465  H     
70   H        16.9855   10.1968   18.3000  H     
71   H         6.7691    6.2981   27.4719  H     
72   H         4.5141    7.0820   27.3679  H     
73   H         5.5394    8.5050   27.2093  H     
74   H         6.8730    4.7595   25.4432  H     
75   H         5.3509    4.7786   26.3163  H     
76   H         5.9500    6.1690   23.6532  H     
77   H         4.8884    4.7917   23.9355  H     
78   H         3.6395    6.9790   23.6470  H     
79   H         3.2856    6.1563   25.1677  H     
80   H         3.5938    8.5374   25.6261  H     
81   H         5.1319    8.5725   24.7639  H     
@<TRIPOS>BOND
     1    1    2 1
     2    1    5 2
     3    2    3 2
     4    3    4 1
     5    4    6 2
     6    5    6 1
     7    5    7 1
     8    7    8 2
     9    7    9 am
    10    9   10 1
    11   10   11 1
    12   10   14 1
    13   11   12 1
    14   11   13 1
    15   14   15 2
    16   14   16 am
    17   16   17 1
    18   17   19 1
    19   17   20 1
    20   18   20 1
    21   18   22 1
    22   19   26 1
    23   20   21 1
    24   22   23 2
    25   22   25 am
    26   24   25 1
    27   24   35 1
    28   26   27 1
    29   27   28 1
    30   28   29 2
    31   28   30 1
    32   29   33 1
    33   30   31 2
    34   31   32 1
    35   32   33 2
    36   32   34 1
    37   35   36 1
    38   35   37 1
    39   36   40 1
    40   37   38 1
    41   38   39 1
    42   39   40 1
    43    1   41 1
    44    2   42 1
    45    3   43 1
    46    4   44 1
    47    9   45 1
    48   10   46 1
    49   11   47 1
    50   12   48 1
    51   12   49 1
    52   12   50 1
    53   13   51 1
    54   13   52 1
    55   13   53 1
    56   16   54 1
    57   17   55 1
    58   18   56 1
    59   18   57 1
    60   19   58 1
    61   19   59 1
    62   20   60 1
    63   21   61 1
    64   24   62 1
    65   24   63 1
    66   25   64 1
    67   27   65 1
    68   27   66 1
    69   29   67 1
    70   30   68 1
    71   31   69 1
    72   33   70 1
    73   35   71 1
    74   36   72 1
    75   36   73 1
    76   37   74 1
    77   37   75 1
    78   38   76 1
    79   38   77 1
    80   39   78 1
    81   39   79 1
    82   40   80 1
    83   40   81 1
@<TRIPOS>PROPERTY_DATA
  Total_Score	| 11.9652
  Crash		| -1.9739
  Polar		| 7.0904
  FragIndex	| 1
  FragRMSD	| 0.613

