@<TRIPOS>MOLECULE
BindingDB_7978
 81 83 0 0 0
SMALL
NO_CHARGES


@<TRIPOS>ATOM
1    C        18.2327   10.8714   22.0814  C     
2    C        19.1050   11.3357   21.0765  C     
3    C        20.1429   10.5126   20.6038  C     
4    C        20.2892    9.2290   21.1504  C     
5    C        18.4079    9.5692   22.6183  C     
6    N        19.4312    8.8182   22.1176  N     
7    C        17.6017    9.0188   23.6119  C     
8    O        17.8909    7.9090   24.0540  O     
9    N        16.5231    9.6476   24.0687  N     
10   C        15.5879    9.1902   25.0643  C     
11   C        15.3484   10.2748   26.1711  C     
12   C        14.3981    9.7848   27.3058  C     
13   C        16.6873   10.7615   26.7986  C     
14   C        14.3689    8.8267   24.3484  C     
15   O        13.7787    9.6729   23.6835  O     
16   N        13.9202    7.5809   24.4122  N     
17   C        12.7295    7.0390   23.8119  C     
18   C        10.6452    5.5781   24.5898  C     
19   C        13.1622    6.3995   22.4558  C     
20   C        12.1042    6.0458   24.8429  C     
21   O        12.1758    6.6179   26.1515  O     
22   C         9.5473    6.5152   24.7481  C     
23   O         9.7470    7.7094   24.9384  O     
24   C         7.0593    6.7264   24.7561  C     
25   N         8.3096    6.0333   24.6401  N     
26   C         6.5621    6.8891   26.2235  C     
27   O        13.5577    7.4536   21.5487  O     
28   C        14.5856    7.1310   20.5924  C     
29   C        14.7135    8.2620   19.6325  C     
30   C        13.5780    8.6814   18.8933  C     
31   C        15.9470    8.9256   19.4189  C     
32   C        16.0433    9.9782   18.4892  C     
33   C        14.9107   10.3741   17.7577  C     
34   C        13.6808    9.7220   17.9537  C     
35   Br       15.0297   11.7719   16.5354  Br    
36   C         5.0175    6.8386   26.3898  C     
37   C         4.2689    7.5917   25.3398  C     
38   C         3.5586    6.9020   24.3273  C     
39   C         4.2601    9.0064   25.3303  C     
40   C         3.5711    9.7126   24.3263  C     
41   C         2.8979    9.0163   23.3091  C     
42   C         2.8831    7.6100   23.3190  C     
43   H        17.4896   11.4926   22.4137  H     
44   H        18.9868   12.2757   20.6907  H     
45   H        20.7845   10.8458   19.8803  H     
46   H        21.0333    8.6042   20.8320  H     
47   H        16.3223   10.5119   23.6727  H     
48   H        15.9805    8.3048   25.5802  H     
49   H        14.8732   11.1462   25.7056  H     
50   H        13.4080    9.5537   26.9057  H     
51   H        14.2749   10.5607   28.0655  H     
52   H        14.7992    8.8887   27.7855  H     
53   H        17.1904    9.9394   27.3112  H     
54   H        16.5032   11.5617   27.5194  H     
55   H        17.3559   11.1545   26.0308  H     
56   H        14.4591    6.9588   24.9228  H     
57   H        11.9980    7.8233   23.6075  H     
58   H        10.5981    5.1669   23.5813  H     
59   H        10.4583    4.7532   25.2830  H     
60   H        13.9898    5.7039   22.6366  H     
61   H        12.3239    5.8464   22.0210  H     
62   H        12.7434    5.1622   24.8526  H     
63   H        12.4498    5.8871   26.7613  H     
64   H         7.1316    7.7056   24.2776  H     
65   H         6.3228    6.1390   24.1845  H     
66   H         8.2303    5.0938   24.3984  H     
67   H         6.9704    6.0786   26.8316  H     
68   H         6.9391    7.8332   26.6394  H     
69   H        15.5224    6.9664   21.1335  H     
70   H        14.3519    6.2181   20.0299  H     
71   H        12.6766    8.2157   19.0285  H     
72   H        16.7773    8.6467   19.9465  H     
73   H        16.9341   10.4461   18.3523  H     
74   H        12.8612   10.0034   17.4223  H     
75   H         4.7119    5.7807   26.3932  H     
76   H         4.7541    7.2402   27.3764  H     
77   H         3.5332    5.8797   24.3147  H     
78   H         4.7540    9.5298   26.0602  H     
79   H         3.5782   10.7336   24.3270  H     
80   H         2.3987    9.5269   22.5815  H     
81   H         2.4005    7.1017   22.5747  H     
@<TRIPOS>BOND
     1    1    2 1
     2    1    5 2
     3    2    3 2
     4    3    4 1
     5    4    6 2
     6    5    6 1
     7    5    7 1
     8    7    8 2
     9    7    9 am
    10    9   10 1
    11   10   11 1
    12   10   14 1
    13   11   12 1
    14   11   13 1
    15   14   15 2
    16   14   16 am
    17   16   17 1
    18   17   19 1
    19   17   20 1
    20   18   20 1
    21   18   22 1
    22   19   27 1
    23   20   21 1
    24   22   23 2
    25   22   25 am
    26   24   25 1
    27   24   26 1
    28   26   36 1
    29   27   28 1
    30   28   29 1
    31   29   30 2
    32   29   31 1
    33   30   34 1
    34   31   32 2
    35   32   33 1
    36   33   34 2
    37   33   35 1
    38   36   37 1
    39   37   38 2
    40   37   39 1
    41   38   42 1
    42   39   40 2
    43   40   41 1
    44   41   42 2
    45    1   43 1
    46    2   44 1
    47    3   45 1
    48    4   46 1
    49    9   47 1
    50   10   48 1
    51   11   49 1
    52   12   50 1
    53   12   51 1
    54   12   52 1
    55   13   53 1
    56   13   54 1
    57   13   55 1
    58   16   56 1
    59   17   57 1
    60   18   58 1
    61   18   59 1
    62   19   60 1
    63   19   61 1
    64   20   62 1
    65   21   63 1
    66   24   64 1
    67   24   65 1
    68   25   66 1
    69   26   67 1
    70   26   68 1
    71   28   69 1
    72   28   70 1
    73   30   71 1
    74   31   72 1
    75   32   73 1
    76   34   74 1
    77   36   75 1
    78   36   76 1
    79   38   77 1
    80   39   78 1
    81   40   79 1
    82   41   80 1
    83   42   81 1
@<TRIPOS>PROPERTY_DATA
  Total_Score	| 11.0541
  Crash		| -1.5886
  Polar		| 5.5258
  FragIndex	| 1
  FragRMSD	| 0.569

