@<TRIPOS>MOLECULE
BindingDB_7977
 91 92 0 0 0
SMALL
NO_CHARGES


@<TRIPOS>ATOM
1    C        19.1626    8.6090   21.9578  C     
2    C        19.8429    9.1688   20.8629  C     
3    C        19.3235   10.3058   20.2202  C     
4    C        18.1223   10.8632   20.6939  C     
5    C        17.9570    9.1913   22.4219  C     
6    N        17.4960   10.2912   21.7566  N     
7    C        17.2305    8.6846   23.5003  C     
8    O        17.6712    7.7163   24.1129  O     
9    N        16.0756    9.2379   23.8573  N     
10   C        15.1822    8.8182   24.9035  C     
11   C        14.9445    9.9610   25.9565  C     
12   C        13.9187    9.5457   27.0519  C     
13   C        16.2658   10.4052   26.6424  C     
14   C        13.9571    8.3625   24.2498  C     
15   O        13.2914    9.1725   23.6081  O     
16   N        13.5910    7.0874   24.3354  N     
17   C        12.3691    6.4936   23.8500  C     
18   C        10.2094    5.2487   24.7589  C     
19   C        12.6839    5.6191   22.6004  C     
20   C        11.6924    5.6707   24.9913  C     
21   O        11.7498    6.4134   26.2211  O     
22   C         9.1359    6.1868   25.0891  C     
23   O         9.3511    7.2361   25.6924  O     
24   C         6.6438    6.4719   25.0650  C     
25   N         7.8985    5.8313   24.7540  N     
26   C         5.7382    5.4499   25.7971  C     
27   C         6.7855    7.6907   25.8622  C     
28   O         7.1466    7.5868   27.0237  O     
29   N         6.6654    8.8789   25.2620  N     
30   C         7.0391   10.1733   25.7794  C     
31   C         6.6899   10.4034   27.1806  C     
32   O         5.6405    9.9969   27.6621  O     
33   N         7.4885   11.0806   27.9809  N     
34   C         6.5282   11.3177   24.8366  C     
35   C         5.0314   11.8099   24.8593  C     
36   C         4.0024   10.6481   24.8214  C     
37   C         4.7159   12.8204   25.9912  C     
38   O        13.2456    6.4403   21.5581  O     
39   C        12.9335    6.0122   20.2158  C     
40   C        13.3548    7.0631   19.2746  C     
41   C        14.3070    6.8267   18.2507  C     
42   C        12.7773    8.3554   19.3760  C     
43   C        13.1535    9.3778   18.4931  C     
44   C        14.1114    9.1344   17.4904  C     
45   C        14.6837    7.8518   17.3707  C     
46   Br       14.6487   10.5279   16.3847  Br    
47   H        19.5499    7.7753   22.3995  H     
48   H        20.7115    8.7536   20.5270  H     
49   H        19.8080   10.7284   19.4235  H     
50   H        17.7144   11.6895   20.2481  H     
51   H        15.7946   10.0086   23.3454  H     
52   H        15.6171    7.9746   25.4550  H     
53   H        14.5383   10.8376   25.4366  H     
54   H        12.9506    9.3104   26.6068  H     
55   H        13.7642   10.3577   27.7660  H     
56   H        14.2722    8.6676   27.5951  H     
57   H        16.7405    9.5650   27.1481  H     
58   H        16.0723   11.1872   27.3765  H     
59   H        16.9601   10.8081   25.9067  H     
60   H        14.1924    6.4969   24.8194  H     
61   H        11.6699    7.2746   23.5362  H     
62   H        10.0796    4.9434   23.7231  H     
63   H        10.0426    4.3576   25.3746  H     
64   H        13.3898    4.8233   22.8646  H     
65   H        11.7551    5.1501   22.2532  H     
66   H        12.2770    4.7510   25.1454  H     
67   H        12.3959    5.9260   26.8078  H     
68   H         6.1677    6.6926   24.1076  H     
69   H         7.8279    5.0302   24.2045  H     
70   H         5.5721    4.5726   25.1657  H     
71   H         4.7637    5.8865   26.0313  H     
72   H         6.2085    5.1216   26.7339  H     
73   H         6.3910    8.8567   24.3330  H     
74   H         8.1385   10.1899   25.7012  H     
75   H         7.2384   11.2248   28.9057  H     
76   H         8.3370   11.4097   27.6501  H     
77   H         7.1651   12.1881   25.0050  H     
78   H         6.7407   10.9935   23.8165  H     
79   H         4.8850   12.3638   23.9243  H     
80   H         4.2021   10.0077   23.9608  H     
81   H         2.9842   11.0397   24.7225  H     
82   H         4.0495   10.0457   25.7319  H     
83   H         4.8398   12.3791   26.9775  H     
84   H         3.6822   13.1689   25.9168  H     
85   H         5.3747   13.6895   25.9189  H     
86   H        13.4314    5.0590   20.0094  H     
87   H        11.8527    5.8747   20.1046  H     
88   H        14.7315    5.9021   18.1440  H     
89   H        12.0733    8.5512   20.0883  H     
90   H        12.7305   10.3003   18.5773  H     
91   H        15.3792    7.6736   16.6389  H     
@<TRIPOS>BOND
     1    1    2 1
     2    1    5 2
     3    2    3 2
     4    3    4 1
     5    4    6 2
     6    5    6 1
     7    5    7 1
     8    7    8 2
     9    7    9 am
    10    9   10 1
    11   10   11 1
    12   10   14 1
    13   11   12 1
    14   11   13 1
    15   14   15 2
    16   14   16 am
    17   16   17 1
    18   17   19 1
    19   17   20 1
    20   18   20 1
    21   18   22 1
    22   19   38 1
    23   20   21 1
    24   22   23 2
    25   22   25 am
    26   24   25 1
    27   24   26 1
    28   24   27 1
    29   27   28 2
    30   27   29 am
    31   29   30 1
    32   30   31 1
    33   30   34 1
    34   31   32 2
    35   31   33 am
    36   34   35 1
    37   35   36 1
    38   35   37 1
    39   38   39 1
    40   39   40 1
    41   40   41 2
    42   40   42 1
    43   41   45 1
    44   42   43 2
    45   43   44 1
    46   44   45 2
    47   44   46 1
    48    1   47 1
    49    2   48 1
    50    3   49 1
    51    4   50 1
    52    9   51 1
    53   10   52 1
    54   11   53 1
    55   12   54 1
    56   12   55 1
    57   12   56 1
    58   13   57 1
    59   13   58 1
    60   13   59 1
    61   16   60 1
    62   17   61 1
    63   18   62 1
    64   18   63 1
    65   19   64 1
    66   19   65 1
    67   20   66 1
    68   21   67 1
    69   24   68 1
    70   25   69 1
    71   26   70 1
    72   26   71 1
    73   26   72 1
    74   29   73 1
    75   30   74 1
    76   33   75 1
    77   33   76 1
    78   34   77 1
    79   34   78 1
    80   35   79 1
    81   36   80 1
    82   36   81 1
    83   36   82 1
    84   37   83 1
    85   37   84 1
    86   37   85 1
    87   39   86 1
    88   39   87 1
    89   41   88 1
    90   42   89 1
    91   43   90 1
    92   45   91 1
@<TRIPOS>PROPERTY_DATA
  Total_Score	| 14.9003
  Crash		| -2.5929
  Polar		| 8.1537
  FragIndex	| 1
  FragRMSD	| 0.748

