@<TRIPOS>MOLECULE
BindingDB_50169109
 91 92 0 0 0
SMALL
NO_CHARGES


@<TRIPOS>ATOM
1    C        14.1571    8.5811   24.3394  C     
2    N        16.2849    9.3604   23.8919  N     
3    C        17.3796    8.7477   23.4552  C     
4    C         6.8907    7.6718   25.7759  C     
5    N        13.7232    7.3278   24.4193  N     
6    C        15.4181    8.9652   24.9696  C     
7    N         6.0871    8.6681   25.4330  N     
8    C         9.9489    6.8372   25.3809  C     
9    C        11.0948    6.0265   25.7783  C     
10   C         5.3031    9.4905   26.3066  C     
11   C         3.9038    9.3663   25.9112  C     
12   N         8.7745    6.2590   25.1684  N     
13   C        12.5766    6.7704   23.7472  C     
14   C        11.9976    5.5805   24.5784  C     
15   C         7.5692    6.9149   24.7253  C     
16   C        18.0322    9.2189   22.3192  C     
17   O        13.5193    9.4302   23.7222  O     
18   N        17.5575   10.3281   21.6722  N     
19   O        17.8073    7.7540   24.0377  O     
20   O         7.0082    7.3018   26.9380  O     
21   O        10.1181    8.0326   25.1645  O     
22   O         3.0190    9.2190   26.7513  O     
23   C         5.7977   10.9725   26.2732  C     
24   N         3.5243    9.3381   24.6447  N     
25   C        15.2893   10.1128   26.0322  C     
26   C        13.4332    8.4579   18.4626  C     
27   O        12.3843    7.4240   21.4075  O     
28   C        14.4590    8.5911   17.5095  C     
29   O        13.0631    4.7344   25.0413  O     
30   Br       14.6588   10.1929   16.5802  Br    
31   C        13.2186    7.2279   19.1284  C     
32   C        12.9173    6.3894   22.2660  C     
33   C        15.1257    6.2851   17.9098  C     
34   C         7.3052   11.2085   26.6143  C     
35   C        18.1320   10.8668   20.5694  C     
36   C        12.0596    7.0686   20.0428  C     
37   C         6.6008    5.8726   24.1127  C     
38   C        19.1709    8.5800   21.7720  C     
39   C        15.3081    7.5053   17.2344  C     
40   C        14.0878    6.1470   18.8520  C     
41   C        14.3137    9.7344   27.1843  C     
42   C        16.6721   10.5052   26.6360  C     
43   C         7.6223   12.7302   26.6381  C     
44   C         7.7514   10.5581   27.9528  C     
45   C        19.2743   10.2659   20.0190  C     
46   C        19.7947    9.1101   20.6301  C     
47   H        16.0028   10.1442   23.3920  H     
48   H        14.2533    6.7202   24.9741  H     
49   H        15.8365    8.0985   25.4934  H     
50   H         6.0006    8.8482   24.4831  H     
51   H        11.7136    6.5804   26.4925  H     
52   H        10.7241    5.1365   26.3028  H     
53   H         5.3846    9.1535   27.3452  H     
54   H         8.7321    5.2954   25.2833  H     
55   H        11.7865    7.5234   23.7232  H     
56   H        11.3819    4.9632   23.9141  H     
57   H         7.8529    7.5948   23.9180  H     
58   H         5.6192   11.3810   25.2693  H     
59   H         5.1872   11.5668   26.9637  H     
60   H         2.5835    9.2232   24.4089  H     
61   H         4.1888    9.4043   23.9366  H     
62   H        14.8857   11.0016   25.5333  H     
63   H        12.8183    9.2608   18.6364  H     
64   H        12.9881    4.7076   26.0235  H     
65   H        14.0017    6.3193   22.1163  H     
66   H        12.4818    5.4090   22.0225  H     
67   H        15.7419    5.4916   17.7016  H     
68   H         7.9134   10.7733   25.8137  H     
69   H        17.7267   11.7014   20.1421  H     
70   H        11.6292    6.0583   19.9620  H     
71   H        11.2593    7.7524   19.7285  H     
72   H         6.3303    5.1046   24.8484  H     
73   H         7.0768    5.3835   23.2590  H     
74   H         5.6821    6.3474   23.7507  H     
75   H        19.5539    7.7321   22.1968  H     
76   H        16.0476    7.5928   16.5346  H     
77   H        13.9520    5.2449   19.3130  H     
78   H        13.3305    9.4786   26.7881  H     
79   H        14.1906   10.5745   27.8709  H     
80   H        14.6962    8.8783   27.7446  H     
81   H        17.1452    9.6428   27.1129  H     
82   H        16.5546   11.2941   27.3823  H     
83   H        17.3395   10.8817   25.8576  H     
84   H         7.3495   13.1923   25.6864  H     
85   H         8.6871   12.9031   26.7971  H     
86   H         7.0653   13.2243   27.4383  H     
87   H         7.1226   10.9048   28.7763  H     
88   H         8.7896   10.8094   28.1776  H     
89   H         7.6849    9.4727   27.8933  H     
90   H        19.7237   10.6601   19.1897  H     
91   H        20.6209    8.6523   20.2402  H     
@<TRIPOS>BOND
     1    1    5 am
     2    1    6 1
     3    1   17 2
     4    2    3 am
     5    2    6 1
     6    3   16 1
     7    3   19 2
     8    4    7 am
     9    4   15 1
    10    4   20 2
    11    5   13 1
    12    6   25 1
    13    7   10 1
    14    8    9 1
    15    8   12 am
    16    8   21 2
    17    9   14 1
    18   10   11 1
    19   10   23 1
    20   11   22 2
    21   11   24 am
    22   12   15 1
    23   13   14 1
    24   13   32 1
    25   14   29 1
    26   15   37 1
    27   16   18 1
    28   16   38 2
    29   18   35 2
    30   23   34 1
    31   25   41 1
    32   25   42 1
    33   26   28 1
    34   26   31 2
    35   27   32 1
    36   27   36 1
    37   28   30 1
    38   28   39 2
    39   31   36 1
    40   31   40 1
    41   33   39 1
    42   33   40 2
    43   34   43 1
    44   34   44 1
    45   35   45 1
    46   38   46 1
    47   45   46 2
    48    2   47 1
    49    5   48 1
    50    6   49 1
    51    7   50 1
    52    9   51 1
    53    9   52 1
    54   10   53 1
    55   12   54 1
    56   13   55 1
    57   14   56 1
    58   15   57 1
    59   23   58 1
    60   23   59 1
    61   24   60 1
    62   24   61 1
    63   25   62 1
    64   26   63 1
    65   29   64 1
    66   32   65 1
    67   32   66 1
    68   33   67 1
    69   34   68 1
    70   35   69 1
    71   36   70 1
    72   36   71 1
    73   37   72 1
    74   37   73 1
    75   37   74 1
    76   38   75 1
    77   39   76 1
    78   40   77 1
    79   41   78 1
    80   41   79 1
    81   41   80 1
    82   42   81 1
    83   42   82 1
    84   42   83 1
    85   43   84 1
    86   43   85 1
    87   43   86 1
    88   44   87 1
    89   44   88 1
    90   44   89 1
    91   45   90 1
    92   46   91 1
@<TRIPOS>PROPERTY_DATA
  Total_Score	| 14.5560
  Crash		| -3.0275
  Polar		| 9.6644
  FragIndex	| 1
  FragRMSD	| 0.476

