@<TRIPOS>MOLECULE
BindingDB_7986
 91 92 0 0 0
SMALL
NO_CHARGES


@<TRIPOS>ATOM
1    C        19.1867    8.6649   22.1013  C     
2    C        20.0019    9.1579   21.0633  C     
3    C        19.5904   10.2629   20.2986  C     
4    C        18.3497   10.8484   20.5785  C     
5    C        17.9566    9.3118   22.3838  C     
6    N        17.5975   10.3647   21.5956  N     
7    C        17.1131    8.9304   23.4106  C     
8    O        17.2682    7.8502   23.9759  O     
9    N        16.1579    9.7716   23.7972  N     
10   C        15.1230    9.5964   24.7765  C     
11   C        15.6410    9.0568   26.1584  C     
12   C        16.8524    9.8754   26.6977  C     
13   C        14.5182    9.0319   27.2290  C     
14   C        13.9833    8.9209   24.1511  C     
15   O        13.2736    9.6023   23.4216  O     
16   N        13.7147    7.6199   24.3073  N     
17   C        12.5212    6.9408   23.8345  C     
18   C        10.5138    5.4428   24.7366  C     
19   C        12.7797    6.2681   22.4561  C     
20   C        11.9827    5.9470   24.9268  C     
21   O        12.0825    6.5389   26.2127  O     
22   C         9.4192    6.4022   24.8230  C     
23   O         9.6389    7.5977   24.9684  O     
24   N         8.1749    5.9600   24.6869  N     
25   O        13.3952    7.2146   21.5509  O     
26   C        13.4088    6.8828   20.1446  C     
27   C        14.7696    6.6492   19.5967  C     
28   C        15.0202    6.8049   18.2075  C     
29   C        15.8288    6.2037   20.4219  C     
30   C        17.0932    5.9144   19.8789  C     
31   C        17.3264    6.0834   18.5058  C     
32   C        16.2914    6.5333   17.6690  C     
33   Br       19.0054    5.6915   17.7929  Br    
34   C         6.9751    6.7508   24.5608  C     
35   C         6.7516    7.6978   25.6425  C     
36   C         5.7441    5.8237   24.3969  C     
37   O         7.0964    7.3985   26.7809  O     
38   N         6.1615    8.8614   25.3817  N     
39   C         5.9993    9.9470   26.3119  C     
40   C         7.3793   10.3383   26.9543  C     
41   C         7.3528   10.5874   28.5059  C     
42   C         8.6308   10.0431   29.2012  C     
43   C         7.1124   12.0807   28.8567  C     
44   C         5.3417   11.0865   25.6756  C     
45   O         5.5846   11.3866   24.5135  O     
46   N         4.5447   11.8923   26.3506  N     
47   H        19.5041    7.8596   22.6498  H     
48   H        20.9019    8.7147   20.8697  H     
49   H        20.1802   10.6300   19.5467  H     
50   H        18.0056   11.6400   20.0357  H     
51   H        16.1666   10.6466   23.3611  H     
52   H        14.7932   10.6237   24.9946  H     
53   H        15.9783    8.0321   26.0188  H     
54   H        17.6859    9.8407   25.9986  H     
55   H        17.2038    9.4600   27.6430  H     
56   H        16.5788   10.9205   26.8548  H     
57   H        14.1592   10.0421   27.4394  H     
58   H        14.8925    8.5904   28.1538  H     
59   H        13.6736    8.4345   26.8913  H     
60   H        14.3193    7.0994   24.8665  H     
61   H        11.7308    7.6847   23.6643  H     
62   H        10.4501    4.9563   23.7537  H     
63   H        10.3357    4.6563   25.4832  H     
64   H        13.4174    5.3949   22.5835  H     
65   H        11.8224    5.9449   22.0437  H     
66   H        12.6462    5.0773   24.9353  H     
67   H        12.4012    5.8167   26.7972  H     
68   H         8.0687    5.0044   24.5480  H     
69   H        12.7899    6.0125   19.9070  H     
70   H        12.9566    7.7313   19.6330  H     
71   H        14.2775    7.1142   17.5784  H     
72   H        15.6817    6.0622   21.4190  H     
73   H        17.8381    5.5637   20.4889  H     
74   H        16.4608    6.6461   16.6680  H     
75   H         7.0707    7.3064   23.6185  H     
76   H         5.8894    5.1727   23.5346  H     
77   H         4.8367    6.4079   24.2234  H     
78   H         5.5999    5.2014   25.2812  H     
79   H         5.8651    9.0112   24.4683  H     
80   H         5.3209    9.5790   27.0896  H     
81   H         8.0943    9.5356   26.7477  H     
82   H         7.7997   11.2131   26.4452  H     
83   H         6.5187   10.0299   28.9549  H     
84   H         8.7385    8.9748   28.9988  H     
85   H         8.5633   10.1731   30.2820  H     
86   H         9.5159   10.5611   28.8316  H     
87   H         7.9323   12.6971   28.4839  H     
88   H         7.0375   12.2104   29.9382  H     
89   H         6.1803   12.4256   28.4061  H     
90   H         4.1664   12.6769   25.9183  H     
91   H         4.3591   11.7275   27.2914  H     
@<TRIPOS>BOND
     1    1    2 1
     2    1    5 2
     3    2    3 2
     4    3    4 1
     5    4    6 2
     6    5    6 1
     7    5    7 1
     8    7    8 2
     9    7    9 am
    10    9   10 1
    11   10   11 1
    12   10   14 1
    13   11   12 1
    14   11   13 1
    15   14   15 2
    16   14   16 am
    17   16   17 1
    18   17   19 1
    19   17   20 1
    20   18   20 1
    21   18   22 1
    22   19   25 1
    23   20   21 1
    24   22   23 2
    25   22   24 am
    26   24   34 1
    27   25   26 1
    28   26   27 1
    29   27   28 2
    30   27   29 1
    31   28   32 1
    32   29   30 2
    33   30   31 1
    34   31   32 2
    35   31   33 1
    36   34   35 1
    37   34   36 1
    38   35   37 2
    39   35   38 am
    40   38   39 1
    41   39   40 1
    42   39   44 1
    43   40   41 1
    44   41   42 1
    45   41   43 1
    46   44   45 2
    47   44   46 am
    48    1   47 1
    49    2   48 1
    50    3   49 1
    51    4   50 1
    52    9   51 1
    53   10   52 1
    54   11   53 1
    55   12   54 1
    56   12   55 1
    57   12   56 1
    58   13   57 1
    59   13   58 1
    60   13   59 1
    61   16   60 1
    62   17   61 1
    63   18   62 1
    64   18   63 1
    65   19   64 1
    66   19   65 1
    67   20   66 1
    68   21   67 1
    69   24   68 1
    70   26   69 1
    71   26   70 1
    72   28   71 1
    73   29   72 1
    74   30   73 1
    75   32   74 1
    76   34   75 1
    77   36   76 1
    78   36   77 1
    79   36   78 1
    80   38   79 1
    81   39   80 1
    82   40   81 1
    83   40   82 1
    84   41   83 1
    85   42   84 1
    86   42   85 1
    87   42   86 1
    88   43   87 1
    89   43   88 1
    90   43   89 1
    91   46   90 1
    92   46   91 1
@<TRIPOS>PROPERTY_DATA
  Total_Score	| 12.8201
  Crash		| -2.4111
  Polar		| 7.6000
  FragIndex	| 1
  FragRMSD	| 0.942

