@<TRIPOS>MOLECULE
BindingDB_7984
 76 78 0 0 0
SMALL
NO_CHARGES


@<TRIPOS>ATOM
1    C        19.3464    9.0913   22.0201  C     
2    C        20.0297    9.7738   20.9992  C     
3    C        19.4366   10.8868   20.3774  C     
4    C        18.1570   11.2917   20.7951  C     
5    C        18.0589    9.5244   22.4311  C     
6    N        17.5288   10.6051   21.7828  N     
7    C        17.3417    8.9082   23.4534  C     
8    O        17.7692    7.8767   23.9593  O     
9    N        16.2100    9.4492   23.8890  N     
10   C        15.3409    8.9841   24.9291  C     
11   C        15.1146   10.0823   26.0245  C     
12   C        14.1036    9.6326   27.1251  C     
13   C        16.4449   10.5203   26.6999  C     
14   C        14.0988    8.5754   24.2851  C     
15   O        13.4448    9.4094   23.6649  O     
16   N        13.7190    7.3010   24.3237  N     
17   C        12.5935    6.7175   23.6345  C     
18   C        11.2088    6.1063   25.7818  C     
19   C        13.1107    6.2459   22.2481  C     
20   C        11.9622    5.5927   24.5146  C     
21   O        12.9958    4.6669   24.8914  O     
22   C        10.0906    6.9958   25.5055  C     
23   O        10.3101    8.0650   24.9470  O     
24   N         8.8646    6.6854   25.9281  N     
25   O        13.6000    7.3972   21.5246  O     
26   C        14.6551    7.1576   20.5712  C     
27   C        14.7563    8.3121   19.6390  C     
28   C        13.6164    8.7162   18.9021  C     
29   C        15.9826    8.9871   19.4248  C     
30   C        16.0674   10.0258   18.4785  C     
31   C        14.9328   10.4046   17.7415  C     
32   C        13.7083    9.7477   17.9563  C     
33   Br       15.0647   11.7436   16.4576  Br    
34   C         7.6641    7.4505   25.7303  C     
35   C         7.7037    8.8364   26.2827  C     
36   C         7.1956    9.9270   25.5436  C     
37   C         8.2652    9.0820   27.5585  C     
38   C         8.3142   10.3861   28.0824  C     
39   C         7.8150   11.4709   27.3306  C     
40   C         7.2538   11.2351   26.0585  C     
41   C         7.8920   12.6847   27.7972  C     
42   N         7.9665   13.7542   28.2039  N     
43   H        19.7972    8.2888   22.4682  H     
44   H        20.9614    9.4651   20.7120  H     
45   H        19.9254   11.3914   19.6374  H     
46   H        17.6972   12.0919   20.3605  H     
47   H        15.9289   10.2609   23.4365  H     
48   H        15.7888    8.1199   25.4382  H     
49   H        14.6928   10.9726   25.5435  H     
50   H        13.1281    9.4049   26.6847  H     
51   H        13.9557   10.4274   27.8646  H     
52   H        14.4664    8.7400   27.6434  H     
53   H        16.9179    9.6766   27.2067  H     
54   H        16.2579   11.3096   27.4323  H     
55   H        17.1388   10.9167   25.9566  H     
56   H        14.3014    6.6867   24.8121  H     
57   H        11.8150    7.4658   23.4485  H     
58   H        10.8517    5.2333   26.3326  H     
59   H        11.9119    6.6210   26.4367  H     
60   H        13.8927    5.4914   22.3878  H     
61   H        12.2940    5.8032   21.6779  H     
62   H        11.2456    5.0330   23.9069  H     
63   H        12.9174    4.4962   25.8607  H     
64   H         8.7508    5.8395   26.4007  H     
65   H        15.5934    7.0086   21.1243  H     
66   H        14.4587    6.2480   19.9857  H     
67   H        12.7230    8.2448   19.0465  H     
68   H        16.8209    8.7167   19.9457  H     
69   H        16.9641   10.4868   18.3138  H     
70   H        12.8884   10.0058   17.4099  H     
71   H         7.4392    7.4584   24.6579  H     
72   H         6.8461    6.9128   26.2281  H     
73   H         6.7789    9.7780   24.6241  H     
74   H         8.6596    8.3115   28.1072  H     
75   H         8.7313   10.5305   29.0062  H     
76   H         6.8845   12.0028   25.4940  H     
@<TRIPOS>BOND
     1    1    2 1
     2    1    5 2
     3    2    3 2
     4    3    4 1
     5    4    6 2
     6    5    6 1
     7    5    7 1
     8    7    8 2
     9    7    9 am
    10    9   10 1
    11   10   11 1
    12   10   14 1
    13   11   12 1
    14   11   13 1
    15   14   15 2
    16   14   16 am
    17   16   17 1
    18   17   19 1
    19   17   20 1
    20   18   20 1
    21   18   22 1
    22   19   25 1
    23   20   21 1
    24   22   23 2
    25   22   24 am
    26   24   34 1
    27   25   26 1
    28   26   27 1
    29   27   28 2
    30   27   29 1
    31   28   32 1
    32   29   30 2
    33   30   31 1
    34   31   32 2
    35   31   33 1
    36   34   35 1
    37   35   36 2
    38   35   37 1
    39   36   40 1
    40   37   38 2
    41   38   39 1
    42   39   40 2
    43   39   41 1
    44   41   42 3
    45    1   43 1
    46    2   44 1
    47    3   45 1
    48    4   46 1
    49    9   47 1
    50   10   48 1
    51   11   49 1
    52   12   50 1
    53   12   51 1
    54   12   52 1
    55   13   53 1
    56   13   54 1
    57   13   55 1
    58   16   56 1
    59   17   57 1
    60   18   58 1
    61   18   59 1
    62   19   60 1
    63   19   61 1
    64   20   62 1
    65   21   63 1
    66   24   64 1
    67   26   65 1
    68   26   66 1
    69   28   67 1
    70   29   68 1
    71   30   69 1
    72   32   70 1
    73   34   71 1
    74   34   72 1
    75   36   73 1
    76   37   74 1
    77   38   75 1
    78   40   76 1
@<TRIPOS>PROPERTY_DATA
  Total_Score	| 10.5402
  Crash		| -1.5869
  Polar		| 7.0536
  FragIndex	| 1
  FragRMSD	| 0.361

