@<TRIPOS>MOLECULE
BindingDB_7985
 74 75 0 0 0
SMALL
NO_CHARGES


@<TRIPOS>ATOM
1    C        10.9874    5.5464   24.6971  C     
2    C        12.3448    5.1820   24.6290  C     
3    C        13.3465    6.1646   24.6444  C     
4    C        12.9702    7.5124   24.7394  C     
5    C        10.6367    6.9141   24.7977  C     
6    N        11.6529    7.8278   24.8189  N     
7    C         9.3297    7.3809   24.8891  C     
8    O         9.1763    8.5871   25.0383  O     
9    N         8.2529    6.5972   24.7910  N     
10   C         6.8780    7.0432   24.7102  C     
11   C         5.8521    5.8568   24.6439  C     
12   C         5.9585    4.8681   25.8364  C     
13   C         4.3801    6.3452   24.4821  C     
14   C         6.5419    8.0089   25.7559  C     
15   O         6.8430    7.7749   26.9246  O     
16   N         5.9102    9.1171   25.4017  N     
17   C         5.3879   10.1804   26.2103  C     
18   C         7.6417   10.2496   27.5638  C     
19   C         3.8394   10.0514   26.3004  C     
20   C         6.0873   10.4181   27.5945  C     
21   O         5.5560    9.5955   28.6325  O     
22   C         8.2180    9.9844   28.8714  C     
23   O         7.7250   10.5335   29.8475  O     
24   N         9.1769    9.0729   29.0077  N     
25   O         3.3260    9.4501   25.1004  O     
26   C         1.9810    9.7879   24.7075  C     
27   C         1.8408   11.1611   24.1486  C     
28   C         2.9490   12.0117   23.9150  C     
29   C         0.5497   11.6331   23.8030  C     
30   C         0.3746   12.9034   23.2226  C     
31   C         1.4894   13.7246   22.9794  C     
32   C         2.7762   13.2813   23.3333  C     
33   Br        1.2642   15.3887   22.1799  Br    
34   C         9.7901    8.6963   30.2469  C     
35   C        10.6247    7.3896   30.1815  C     
36   C        11.4263    7.1528   28.8708  C     
37   C        10.7289    6.2393   27.8394  C     
38   H        10.2725    4.8163   24.6943  H     
39   H        12.6089    4.1979   24.5866  H     
40   H        14.3316    5.9078   24.5988  H     
41   H        13.6704    8.2547   24.7577  H     
42   H         8.4056    5.6504   24.6588  H     
43   H         6.8048    7.5322   23.7297  H     
44   H         6.0948    5.2899   23.7404  H     
45   H         6.9986    4.6064   26.0291  H     
46   H         5.4044    3.9548   25.6020  H     
47   H         5.5427    5.3073   26.7421  H     
48   H         4.0218    6.8228   25.3970  H     
49   H         3.7217    5.5018   24.2578  H     
50   H         4.3073    7.0693   23.6677  H     
51   H         5.7161    9.2016   24.4578  H     
52   H         5.5802   11.0889   25.6282  H     
53   H         7.9037    9.4314   26.8946  H     
54   H         8.0992   11.1549   27.1534  H     
55   H         3.5619    9.4141   27.1409  H     
56   H         3.4117   11.0450   26.4538  H     
57   H         5.8732   11.4489   27.8973  H     
58   H         5.2813    8.7515   28.2297  H     
59   H         9.4922    8.6348   28.2094  H     
60   H         1.7116    9.0800   23.9201  H     
61   H         1.2642    9.6529   25.5240  H     
62   H         3.8965   11.7102   24.1531  H     
63   H        -0.2748   11.0459   23.9591  H     
64   H        -0.5609   13.2260   22.9743  H     
65   H         3.5902   13.8758   23.1654  H     
66   H        10.4486    9.5035   30.5753  H     
67   H         9.0085    8.5658   31.0040  H     
68   H        11.3482    7.4456   30.9979  H     
69   H         9.9801    6.5342   30.3788  H     
70   H        11.6580    8.1116   28.3946  H     
71   H        12.3712    6.6619   29.1253  H     
72   H        10.5384    5.2456   28.2622  H     
73   H        11.3873    6.1303   26.9753  H     
74   H         9.7862    6.6775   27.5131  H     
@<TRIPOS>BOND
     1    1    2 1
     2    1    5 2
     3    2    3 2
     4    3    4 1
     5    4    6 2
     6    5    6 1
     7    5    7 1
     8    7    8 2
     9    7    9 am
    10    9   10 1
    11   10   11 1
    12   10   14 1
    13   11   12 1
    14   11   13 1
    15   14   15 2
    16   14   16 am
    17   16   17 1
    18   17   19 1
    19   17   20 1
    20   18   20 1
    21   18   22 1
    22   19   25 1
    23   20   21 1
    24   22   23 2
    25   22   24 am
    26   24   34 1
    27   25   26 1
    28   26   27 1
    29   27   28 2
    30   27   29 1
    31   28   32 1
    32   29   30 2
    33   30   31 1
    34   31   32 2
    35   31   33 1
    36   34   35 1
    37   35   36 1
    38   36   37 1
    39    1   38 1
    40    2   39 1
    41    3   40 1
    42    4   41 1
    43    9   42 1
    44   10   43 1
    45   11   44 1
    46   12   45 1
    47   12   46 1
    48   12   47 1
    49   13   48 1
    50   13   49 1
    51   13   50 1
    52   16   51 1
    53   17   52 1
    54   18   53 1
    55   18   54 1
    56   19   55 1
    57   19   56 1
    58   20   57 1
    59   21   58 1
    60   24   59 1
    61   26   60 1
    62   26   61 1
    63   28   62 1
    64   29   63 1
    65   30   64 1
    66   32   65 1
    67   34   66 1
    68   34   67 1
    69   35   68 1
    70   35   69 1
    71   36   70 1
    72   36   71 1
    73   37   72 1
    74   37   73 1
    75   37   74 1
@<TRIPOS>PROPERTY_DATA
  Total_Score	| 4.0861
  Crash		| -5.4708
  Polar		| 3.2365
  FragIndex	| 1
  FragRMSD	| 0.902

