@<TRIPOS>MOLECULE
BindingDB_7982
 80 82 0 0 0
SMALL
NO_CHARGES


@<TRIPOS>ATOM
1    C        19.2357    8.9349   22.1095  C     
2    C        19.8910    9.5814   21.0427  C     
3    C        19.2802   10.6740   20.4068  C     
4    C        18.0118   11.0864   20.8427  C     
5    C        17.9656    9.3862   22.5421  C     
6    N        17.4222   10.4441   21.8817  N     
7    C        17.2758    8.8094   23.6036  C     
8    O        17.7367    7.8307   24.1744  O     
9    N        16.1093    9.3239   23.9957  N     
10   C        15.2177    8.8449   25.0180  C     
11   C        14.9174    9.9615   26.0810  C     
12   C        13.8287    9.5254   27.1108  C     
13   C        16.1986   10.3870   26.8576  C     
14   C        14.0264    8.3656   24.3243  C     
15   O        13.3760    9.1705   23.6530  O     
16   N        13.6690    7.0914   24.4356  N     
17   C        12.4628    6.4962   23.9293  C     
18   C        10.2974    5.2844   24.8103  C     
19   C        12.8141    5.5971   22.7111  C     
20   C        11.7641    5.7322   25.0979  C     
21   O        11.7413    6.5309   26.2848  O     
22   C         9.2253    6.2337   25.0658  C     
23   O         9.4651    7.3277   25.5586  O     
24   C         6.8067    6.6875   24.9067  C     
25   N         7.9830    5.8976   24.7293  N     
26   O        13.3775    6.4165   21.6513  O     
27   C        13.0070    6.0003   20.3204  C     
28   C        13.3879    7.0664   19.3702  C     
29   C        12.7471    8.3294   19.4280  C     
30   C        14.3505    6.8392   18.3369  C     
31   C        14.6852    7.8569   17.4302  C     
32   C        14.0577    9.1190   17.5285  C     
33   C        13.0894    9.3505   18.5325  C     
34   Br       14.5270   10.5074   16.3976  Br    
35   C         6.0197    6.2541   26.1772  C     
36   N         4.7842    6.9643   26.3007  N     
37   C         4.0881    7.6062   25.3178  C     
38   C         3.4186    6.9483   24.2642  C     
39   C         4.0507    9.0198   25.3541  C     
40   C         3.4166    9.7505   24.3336  C     
41   C         2.7744    9.0746   23.2783  C     
42   C         2.7684    7.6696   23.2466  C     
43   H        19.6948    8.1454   22.5517  H     
44   H        20.8160    9.2620   20.7345  H     
45   H        19.7457   11.1565   19.6349  H     
46   H        17.5371   11.8808   20.4010  H     
47   H        15.8196   10.1061   23.5104  H     
48   H        15.6872    8.0170   25.5565  H     
49   H        14.5397   10.8483   25.5566  H     
50   H        12.8902    9.2959   26.6063  H     
51   H        13.6337   10.3353   27.8209  H     
52   H        14.1487    8.6368   27.6669  H     
53   H        16.6092    9.5445   27.4261  H     
54   H        15.9634   11.1958   27.5507  H     
55   H        16.9595   10.7440   26.1674  H     
56   H        14.2622    6.5151   24.9457  H     
57   H        11.7809    7.2725   23.5621  H     
58   H        10.2194    4.9416   23.7813  H     
59   H        10.0941    4.4176   25.4462  H     
60   H        13.5061    4.7942   23.0031  H     
61   H        11.8798    5.1383   22.3460  H     
62   H        12.3404    4.8400   25.3202  H     
63   H        12.3308    6.0658   26.9279  H     
64   H         7.0295    7.7559   24.9820  H     
65   H         6.1847    6.5563   24.0161  H     
66   H         7.8671    5.0545   24.2495  H     
67   H        13.5231    5.0586   20.0877  H     
68   H        11.9256    5.8453   20.2031  H     
69   H        12.0250    8.5004   20.1311  H     
70   H        14.8127    5.9285   18.2537  H     
71   H        15.3887    7.6945   16.7082  H     
72   H        12.6275   10.2617   18.6009  H     
73   H         5.8283    5.1834   26.1686  H     
74   H         6.6099    6.4942   27.0689  H     
75   H         4.4571    7.0749   27.2031  H     
76   H         3.3865    5.9322   24.2331  H     
77   H         4.5249    9.5256   26.1067  H     
78   H         3.4106   10.7705   24.3521  H     
79   H         2.3117    9.6020   22.5381  H     
80   H         2.2779    7.1747   22.4950  H     
@<TRIPOS>BOND
     1    1    2 1
     2    1    5 2
     3    2    3 2
     4    3    4 1
     5    4    6 2
     6    5    6 1
     7    5    7 1
     8    7    8 2
     9    7    9 am
    10    9   10 1
    11   10   11 1
    12   10   14 1
    13   11   12 1
    14   11   13 1
    15   14   15 2
    16   14   16 am
    17   16   17 1
    18   17   19 1
    19   17   20 1
    20   18   20 1
    21   18   22 1
    22   19   26 1
    23   20   21 1
    24   22   23 2
    25   22   25 am
    26   24   25 1
    27   24   35 1
    28   26   27 1
    29   27   28 1
    30   28   29 2
    31   28   30 1
    32   29   33 1
    33   30   31 2
    34   31   32 1
    35   32   33 2
    36   32   34 1
    37   35   36 1
    38   36   37 1
    39   37   38 2
    40   37   39 1
    41   38   42 1
    42   39   40 2
    43   40   41 1
    44   41   42 2
    45    1   43 1
    46    2   44 1
    47    3   45 1
    48    4   46 1
    49    9   47 1
    50   10   48 1
    51   11   49 1
    52   12   50 1
    53   12   51 1
    54   12   52 1
    55   13   53 1
    56   13   54 1
    57   13   55 1
    58   16   56 1
    59   17   57 1
    60   18   58 1
    61   18   59 1
    62   19   60 1
    63   19   61 1
    64   20   62 1
    65   21   63 1
    66   24   64 1
    67   24   65 1
    68   25   66 1
    69   27   67 1
    70   27   68 1
    71   29   69 1
    72   30   70 1
    73   31   71 1
    74   33   72 1
    75   35   73 1
    76   35   74 1
    77   36   75 1
    78   38   76 1
    79   39   77 1
    80   40   78 1
    81   41   79 1
    82   42   80 1
@<TRIPOS>PROPERTY_DATA
  Total_Score	| 13.6073
  Crash		| -2.2082
  Polar		| 6.0752
  FragIndex	| 1
  FragRMSD	| 0.681

