@<TRIPOS>MOLECULE
BindingDB_50380152
 37 38 0 0 0
SMALL
NO_CHARGES


@<TRIPOS>ATOM
1    S        -5.8345    1.2561   16.3982  S     
2    O        -4.6731    1.3636   17.4781  O     
3    O        -5.7288   -0.2252   15.8211  O     
4    C        -5.9278    4.7528   14.3058  C     
5    C        -6.0513    3.8333   15.3647  C     
6    C        -5.6410    2.4858   15.1723  C     
7    C        -5.0479    2.1204   13.9449  C     
8    C        -4.8814    3.0495   12.8868  C     
9    C        -5.3737    4.3641   13.0818  C     
10   C        -4.2444    2.6938   11.7078  C     
11   C        -2.9134    2.0960   11.6577  C     
12   O        -4.8284    2.8829   10.6374  O     
13   S        -1.7092    3.0803   10.7211  S     
14   C        -1.4379    4.4715   11.7377  C     
15   N        -0.5881    5.4247   11.2878  N     
16   C        -0.3056    6.5392   12.0067  C     
17   C        -0.8955    6.7483   13.2786  C     
18   C        -1.7759    5.7412   13.7230  C     
19   N        -2.0196    4.6386   12.9475  N     
20   Cl       -6.6669    4.4090   16.8383  Cl    
21   N        -7.2984    1.2352   17.2087  N     
22   C        -0.5471    7.9868   14.0418  C     
23   C        -1.1448    8.1688   15.4577  C     
24   H        -6.2308    5.7247   14.4323  H     
25   H        -4.7410    1.1485   13.8014  H     
26   H        -5.2778    5.0566   12.3320  H     
27   H        -2.5021    1.9408   12.6620  H     
28   H        -2.9850    1.1174   11.1865  H     
29   H         0.3418    7.2174   11.6052  H     
30   H        -2.2521    5.8003   14.6203  H     
31   H        -8.0741    0.8285   16.7888  H     
32   H        -7.3470    1.5266   18.1334  H     
33   H         0.5427    8.0204   14.1499  H     
34   H        -0.8541    8.8544   13.4440  H     
35   H        -2.2334    8.2020   15.4247  H     
36   H        -0.7916    9.1161   15.8992  H     
37   H        -0.8228    7.3596   16.1157  H     
@<TRIPOS>BOND
     1    1    2 2
     2    1    3 2
     3    1    6 1
     4    1   21 am
     5    4    5 2
     6    4    9 1
     7    5    6 1
     8    5   20 1
     9    6    7 2
    10    7    8 1
    11    8    9 2
    12    8   10 1
    13   10   11 1
    14   10   12 2
    15   11   13 1
    16   13   14 1
    17   14   15 2
    18   14   19 1
    19   15   16 1
    20   16   17 2
    21   17   18 1
    22   17   22 1
    23   18   19 2
    24   22   23 1
    25    4   24 1
    26    7   25 1
    27    9   26 1
    28   11   27 1
    29   11   28 1
    30   16   29 1
    31   18   30 1
    32   21   31 1
    33   21   32 1
    34   22   33 1
    35   22   34 1
    36   23   35 1
    37   23   36 1
    38   23   37 1
@<TRIPOS>PROPERTY_DATA
  Total_Score	| 8.7017
  Crash		| -0.5600
  Polar		| 5.0913
  FragIndex	| 1
  FragRMSD	| 0.784

