@<TRIPOS>MOLECULE
BindingDB_50380153
 37 38 0 0 0
SMALL
NO_CHARGES


@<TRIPOS>ATOM
1    S        -5.8807    1.2598   16.3743  S     
2    O        -4.8547    1.3591   17.5829  O     
3    O        -5.7184   -0.2139   15.8041  O     
4    C        -5.8847    4.7409   14.2811  C     
5    C        -6.0254    3.8228   15.3379  C     
6    C        -5.6224    2.4781   15.1511  C     
7    C        -5.0183    2.0998   13.9298  C     
8    C        -4.8659    3.0202   12.8637  C     
9    C        -5.3424    4.3385   13.0489  C     
10   C        -4.2524    2.6510   11.6663  C     
11   C        -2.9308    2.0343   11.6077  C     
12   O        -4.8408    2.8604   10.6126  O     
13   S        -1.7233    2.9593   10.6145  S     
14   C        -1.3333    4.3378   11.6077  C     
15   N        -2.1520    4.8200   12.5779  N     
16   C        -1.8471    5.9226   13.3114  C     
17   C        -0.6299    6.5916   13.0663  C     
18   C         0.2111    6.0963   12.0491  C     
19   N        -0.1711    4.9911   11.3551  N     
20   Cl       -6.6596    4.4106   16.7988  Cl    
21   N        -7.4345    1.2408   17.0131  N     
22   C         1.4713    6.7799   11.7058  C     
23   C        -2.8324    6.4070   14.2889  C     
24   H        -6.1856    5.7110   14.4000  H     
25   H        -4.7133    1.1311   13.8010  H     
26   H        -5.2476    5.0348   12.3046  H     
27   H        -2.5006    1.8886   12.6007  H     
28   H        -3.0360    1.0489   11.1499  H     
29   H        -0.3778    7.4304   13.5940  H     
30   H        -8.1097    0.6618   16.6213  H     
31   H        -7.6612    1.8342   17.7497  H     
32   H         1.2654    7.8072   11.4009  H     
33   H         1.9815    6.2755   10.8811  H     
34   H         2.1362    6.7901   12.5716  H     
35   H        -3.7130    6.7785   13.7546  H     
36   H        -2.4368    7.2163   14.9043  H     
37   H        -3.1284    5.5796   14.9393  H     
@<TRIPOS>BOND
     1    1    2 2
     2    1    3 2
     3    1    6 1
     4    1   21 am
     5    4    5 2
     6    4    9 1
     7    5    6 1
     8    5   20 1
     9    6    7 2
    10    7    8 1
    11    8    9 2
    12    8   10 1
    13   10   11 1
    14   10   12 2
    15   11   13 1
    16   13   14 1
    17   14   15 2
    18   14   19 1
    19   15   16 1
    20   16   17 2
    21   16   23 1
    22   17   18 1
    23   18   19 2
    24   18   22 1
    25    4   24 1
    26    7   25 1
    27    9   26 1
    28   11   27 1
    29   11   28 1
    30   17   29 1
    31   21   30 1
    32   21   31 1
    33   22   32 1
    34   22   33 1
    35   22   34 1
    36   23   35 1
    37   23   36 1
    38   23   37 1
@<TRIPOS>PROPERTY_DATA
  Total_Score	| 7.3975
  Crash		| -0.6871
  Polar		| 5.0789
  FragIndex	| 1
  FragRMSD	| 0.872

