@<TRIPOS>MOLECULE
BindingDB_50380141
 43 44 0 0 0
SMALL
NO_CHARGES


@<TRIPOS>ATOM
1    S        -5.8412    1.2383   16.3811  S     
2    O        -4.6576    1.3415   17.4368  O     
3    O        -5.7366   -0.2417   15.8077  O     
4    C        -5.9298    4.7362   14.2844  C     
5    C        -6.0550    3.8152   15.3435  C     
6    C        -5.6631    2.4679   15.1490  C     
7    C        -5.0850    2.0906   13.9171  C     
8    C        -4.9183    3.0212   12.8648  C     
9    C        -5.3730    4.3431   13.0576  C     
10   C        -4.2909    2.6530   11.6787  C     
11   C        -2.9705    2.0385   11.6347  C     
12   O        -4.8467    2.8868   10.6099  O     
13   S        -1.7385    3.0716   10.7838  S     
14   C        -1.4556    4.3864   11.8959  C     
15   N        -0.4624    5.2610   11.5846  N     
16   C        -0.1657    6.3188   12.3787  C     
17   C        -0.8905    6.5584   13.5664  C     
18   C        -1.9130    5.6275   13.8712  C     
19   N        -2.1626    4.5786   13.0413  N     
20   Cl       -6.6418    4.4082   16.8224  Cl    
21   N        -7.2890    1.2498   17.2298  N     
22   C        -0.5820    7.7376   14.4313  C     
23   C        -1.5970    8.8994   14.2508  C     
24   C        -0.9642   10.3051   14.4579  C     
25   C        -1.9621   11.4626   14.2257  C     
26   H        -6.2213    5.7063   14.4082  H     
27   H        -4.7887    1.1188   13.7799  H     
28   H        -5.2587    5.0438   12.3224  H     
29   H        -2.5783    1.8137   12.6310  H     
30   H        -3.0446    1.0919   11.0924  H     
31   H         0.5915    6.9415   12.0912  H     
32   H        -2.4763    5.7319   14.7190  H     
33   H        -8.0899    0.8813   16.8214  H     
34   H        -7.3114    1.5513   18.1529  H     
35   H        -0.5805    7.4327   15.4803  H     
36   H         0.4237    8.0957   14.2012  H     
37   H        -2.0226    8.8643   13.2364  H     
38   H        -2.4165    8.7608   14.9670  H     
39   H        -0.5690   10.3747   15.4716  H     
40   H        -0.1313   10.4254   13.7579  H     
41   H        -2.3867   11.4083   13.2197  H     
42   H        -1.4442   12.4199   14.3335  H     
43   H        -2.7760   11.4269   14.9545  H     
@<TRIPOS>BOND
     1    1    2 2
     2    1    3 2
     3    1    6 1
     4    1   21 am
     5    4    5 2
     6    4    9 1
     7    5    6 1
     8    5   20 1
     9    6    7 2
    10    7    8 1
    11    8    9 2
    12    8   10 1
    13   10   11 1
    14   10   12 2
    15   11   13 1
    16   13   14 1
    17   14   15 2
    18   14   19 1
    19   15   16 1
    20   16   17 2
    21   17   18 1
    22   17   22 1
    23   18   19 2
    24   22   23 1
    25   23   24 1
    26   24   25 1
    27    4   26 1
    28    7   27 1
    29    9   28 1
    30   11   29 1
    31   11   30 1
    32   16   31 1
    33   18   32 1
    34   21   33 1
    35   21   34 1
    36   22   35 1
    37   22   36 1
    38   23   37 1
    39   23   38 1
    40   24   39 1
    41   24   40 1
    42   25   41 1
    43   25   42 1
    44   25   43 1
@<TRIPOS>PROPERTY_DATA
  Total_Score	| 8.8250
  Crash		| -1.1564
  Polar		| 5.0985
  FragIndex	| 1
  FragRMSD	| 0.861

