@<TRIPOS>MOLECULE
BindingDB_50380142
 37 38 0 0 0
SMALL
NO_CHARGES


@<TRIPOS>ATOM
1    S        -6.0149    2.3293   16.9787  S     
2    O        -6.0572    3.7122   17.7623  O     
3    O        -4.9722    1.4152   17.7769  O     
4    N        -7.5167    1.5894   17.1285  N     
5    C        -4.9772    1.3881   14.6490  C     
6    C        -5.5209    2.4960   15.3232  C     
7    C        -5.6773    3.7230   14.6351  C     
8    C        -5.2700    3.8392   13.2981  C     
9    C        -4.6454    2.7401   12.6214  C     
10   C        -4.5315    1.5195   13.3105  C     
11   C        -4.1403    2.9148   11.3520  C     
12   C        -2.8327    2.4569   10.8642  C     
13   O        -4.9131    3.3539   10.4959  O     
14   S        -1.4655    2.3199   12.0520  S     
15   C        -1.3250    3.9790   12.5421  C     
16   N        -0.2879    4.7372   12.0896  N     
17   C        -0.1152    6.0116   12.5091  C     
18   C        -1.0063    6.5990   13.4452  C     
19   C        -2.0784    5.7964   13.8725  C     
20   N        -2.1949    4.5035   13.4258  N     
21   C        -0.8274    8.0158   13.8800  C     
22   C        -1.2761    8.3760   15.3080  C     
23   H        -7.5801    0.6262   17.1738  H     
24   H        -8.2992    2.1376   17.2913  H     
25   H        -4.8981    0.4790   15.1099  H     
26   H        -6.0908    4.5286   15.1075  H     
27   H        -5.3736    4.7380   12.8272  H     
28   H        -4.1379    0.6969   12.8506  H     
29   H        -2.9830    1.4675   10.4291  H     
30   H        -2.4825    3.1114   10.0751  H     
31   H         0.6733    6.5419   12.1303  H     
32   H        -2.7879    6.1337   14.5161  H     
33   H         0.2312    8.2853   13.7978  H     
34   H        -1.3814    8.6378   13.1752  H     
35   H        -2.3635    8.3363   15.4042  H     
36   H        -0.9671    9.4061   15.5365  H     
37   H        -0.8233    7.7080   16.0444  H     
@<TRIPOS>BOND
     1    1    2 2
     2    1    3 2
     3    1    4 am
     4    1    6 1
     5    5    6 2
     6    5   10 1
     7    6    7 1
     8    7    8 2
     9    8    9 1
    10    9   10 2
    11    9   11 1
    12   11   12 1
    13   11   13 2
    14   12   14 1
    15   14   15 1
    16   15   16 2
    17   15   20 1
    18   16   17 1
    19   17   18 2
    20   18   19 1
    21   18   21 1
    22   19   20 2
    23   21   22 1
    24    4   23 1
    25    4   24 1
    26    5   25 1
    27    7   26 1
    28    8   27 1
    29   10   28 1
    30   12   29 1
    31   12   30 1
    32   17   31 1
    33   19   32 1
    34   21   33 1
    35   21   34 1
    36   22   35 1
    37   22   36 1
    38   22   37 1
@<TRIPOS>PROPERTY_DATA
  Total_Score	| 5.4130
  Crash		| -0.8311
  Polar		| 2.7993
  FragIndex	| 1
  FragRMSD	| 0.810

