@<TRIPOS>MOLECULE
BindingDB_50380139
 33 34 0 0 0
SMALL
NO_CHARGES


@<TRIPOS>ATOM
1    S        -5.8017    1.2333   16.3782  S     
2    O        -4.6024    1.3028   17.4191  O     
3    O        -5.7022   -0.2299   15.7522  O     
4    C        -5.9652    4.7617   14.3331  C     
5    C        -6.0871    3.8165   15.3698  C     
6    C        -5.6258    2.4891   15.1730  C     
7    C        -5.0025    2.1569   13.9473  C     
8    C        -4.8907    3.0962   12.8972  C     
9    C        -5.3915    4.4018   13.1017  C     
10   C        -4.2736    2.7435   11.7056  C     
11   C        -2.8328    2.6373   11.6041  C     
12   O        -4.9051    2.8929   10.6543  O     
13   S        -2.1308    4.3078   11.6451  S     
14   C        -0.5205    3.9605   11.0849  C     
15   C        -0.3220    3.4553    9.7837  C     
16   C         0.9895    3.2918    9.2849  C     
17   C         2.0933    3.6428   10.0817  C     
18   C         1.8939    4.1503   11.3818  C     
19   C         0.5893    4.3116   11.8777  C     
20   Cl       -6.7709    4.3476   16.8308  Cl    
21   N        -7.2375    1.1960   17.2436  N     
22   H        -6.2961    5.7254   14.4663  H     
23   H        -4.6442    1.2061   13.8151  H     
24   H        -5.3140    5.1136   12.3713  H     
25   H        -2.4151    2.0511   12.4354  H     
26   H        -2.5612    2.1323   10.6730  H     
27   H        -1.1191    3.2200    9.1872  H     
28   H         1.1368    2.9338    8.3350  H     
29   H         3.0421    3.5411    9.7130  H     
30   H         2.6957    4.4133   11.9578  H     
31   H         0.4528    4.7037   12.8112  H     
32   H        -8.0117    0.7339   16.8769  H     
33   H        -7.2625    1.5133   18.1622  H     
@<TRIPOS>BOND
     1    1    2 2
     2    1    3 2
     3    1    6 1
     4    1   21 am
     5    4    5 2
     6    4    9 1
     7    5    6 1
     8    5   20 1
     9    6    7 2
    10    7    8 1
    11    8    9 2
    12    8   10 1
    13   10   11 1
    14   10   12 2
    15   11   13 1
    16   13   14 1
    17   14   15 2
    18   14   19 1
    19   15   16 1
    20   16   17 2
    21   17   18 1
    22   18   19 2
    23    4   22 1
    24    7   23 1
    25    9   24 1
    26   11   25 1
    27   11   26 1
    28   15   27 1
    29   16   28 1
    30   17   29 1
    31   18   30 1
    32   19   31 1
    33   21   32 1
    34   21   33 1
@<TRIPOS>PROPERTY_DATA
  Total_Score	| 7.6863
  Crash		| -0.6591
  Polar		| 5.1210
  FragIndex	| 1
  FragRMSD	| 1.078

