@<TRIPOS>MOLECULE
BindingDB_50380138
 48 50 0 0 0
SMALL
NO_CHARGES


@<TRIPOS>ATOM
1    S        -5.8395    1.1995   16.3989  S     
2    O        -4.6220    1.3232   17.4181  O     
3    O        -5.7046   -0.2709   15.8087  O     
4    C        -5.9785    4.7014   14.3085  C     
5    C        -6.1197    3.7710   15.3572  C     
6    C        -5.6977    2.4307   15.1674  C     
7    C        -5.1007    2.0675   13.9418  C     
8    C        -4.9465    2.9998   12.8884  C     
9    C        -5.4156    4.3190   13.0817  C     
10   C        -4.3094    2.6390   11.7073  C     
11   C        -3.0098    1.9779   11.6712  C     
12   O        -4.8601    2.8868   10.6370  O     
13   S        -1.7298    2.9419   10.8198  S     
14   C        -1.4430    4.3016   11.8734  C     
15   N        -2.1140    4.5752   13.0170  N     
16   C        -1.8722    5.6798   13.7227  C     
17   C        -0.8974    6.5879   13.3338  C     
18   C        -0.2004    6.2938   12.1966  C     
19   N        -0.4925    5.1825   11.4909  N     
20   Cl       -6.7764    4.3465   16.8158  Cl    
21   N        -7.2447    1.1409   17.3130  N     
22   C        -0.5818    7.7627   14.1673  C     
23   C        -1.1212    9.0894   13.7391  C     
24   C        -1.7084    9.3435   12.4727  C     
25   C        -2.2274   10.6162   12.1541  C     
26   C        -2.1690   11.6596   13.0960  C     
27   C        -1.5803   11.4285   14.3504  C     
28   C        -1.0628   10.1587   14.6656  C     
29   C         0.8849    7.1013   11.6514  C     
30   O        -2.6148    5.8727   14.6750  O     
31   H        -6.2718    5.6741   14.4370  H     
32   H        -4.7807    1.1043   13.8078  H     
33   H        -5.3111    5.0240   12.3494  H     
34   H        -2.6300    1.7478   12.6709  H     
35   H        -3.1205    1.0299   11.1347  H     
36   H        -2.8085    3.9700   13.3172  H     
37   H        -8.0382    0.7248   16.9437  H     
38   H        -7.2813    1.5829   18.1760  H     
39   H        -0.9134    7.6162   15.1958  H     
40   H         0.5021    7.8407   14.2341  H     
41   H        -1.7730    8.6056   11.7697  H     
42   H        -2.6572   10.7867   11.2402  H     
43   H        -2.5620   12.5808   12.8742  H     
44   H        -1.5339   12.1890   15.0372  H     
45   H        -0.6353   10.0238   15.5826  H     
46   H         0.5315    8.1117   11.4364  H     
47   H         1.2819    6.6883   10.7166  H     
48   H         1.7115    7.1535   12.3610  H     
@<TRIPOS>BOND
     1    1    2 2
     2    1    3 2
     3    1    6 1
     4    1   21 am
     5    4    5 2
     6    4    9 1
     7    5    6 1
     8    5   20 1
     9    6    7 2
    10    7    8 1
    11    8    9 2
    12    8   10 1
    13   10   11 1
    14   10   12 2
    15   11   13 1
    16   13   14 1
    17   14   15 1
    18   14   19 2
    19   15   16 1
    20   16   17 1
    21   16   30 2
    22   17   18 2
    23   17   22 1
    24   18   19 1
    25   18   29 1
    26   22   23 1
    27   23   24 2
    28   23   28 1
    29   24   25 1
    30   25   26 2
    31   26   27 1
    32   27   28 2
    33    4   31 1
    34    7   32 1
    35    9   33 1
    36   11   34 1
    37   11   35 1
    38   15   36 1
    39   21   37 1
    40   21   38 1
    41   22   39 1
    42   22   40 1
    43   24   41 1
    44   25   42 1
    45   26   43 1
    46   27   44 1
    47   28   45 1
    48   29   46 1
    49   29   47 1
    50   29   48 1
@<TRIPOS>PROPERTY_DATA
  Total_Score	| 8.6216
  Crash		| -1.1961
  Polar		| 4.9672
  FragIndex	| 1
  FragRMSD	| 1.277

