@<TRIPOS>MOLECULE
BindingDB_50380159
 41 42 0 0 0
SMALL
NO_CHARGES


@<TRIPOS>ATOM
1    S        -5.8632    1.2140   16.3865  S     
2    O        -4.7661    1.3423   17.5305  O     
3    O        -5.6856   -0.2651   15.8287  O     
4    C        -5.9237    4.7223   14.3199  C     
5    C        -6.0620    3.7896   15.3662  C     
6    C        -5.6500    2.4445   15.1656  C     
7    C        -5.0611    2.0795   13.9362  C     
8    C        -4.9001    3.0133   12.8867  C     
9    C        -5.3552    4.3364   13.0926  C     
10   C        -4.2669    2.6644   11.6917  C     
11   C        -2.9506    2.0390   11.6284  C     
12   O        -4.8136    2.9435   10.6278  O     
13   S        -1.6962    3.0790   10.8306  S     
14   C        -1.5581    4.4195   11.9372  C     
15   N        -2.3290    4.5694   13.0449  N     
16   C        -2.1888    5.6329   13.8472  C     
17   C        -1.2762    6.6058   13.6012  C     
18   C        -0.4630    6.4170   12.4936  C     
19   N        -0.6261    5.3732   11.6824  N     
20   Cl       -6.7110    4.3529   16.8312  Cl    
21   N        -7.3601    1.1941   17.1365  N     
22   O         0.4217    7.2038   12.1666  O     
23   C        -1.2027    7.7454   14.4191  C     
24   O        -2.1919    8.0404   15.3013  O     
25   O        -0.1341    8.5911   14.3440  O     
26   C         0.1049    9.8050   15.0682  C     
27   C        -0.7079   10.9884   14.5083  C     
28   H        -6.2146    5.6926   14.4522  H     
29   H        -4.7574    1.1133   13.7949  H     
30   H        -5.2449    5.0414   12.3579  H     
31   H        -2.5771    1.7788   12.6219  H     
32   H        -3.0334    1.1079   11.0641  H     
33   H        -2.8029    5.6822   14.6275  H     
34   H        -0.0644    5.2961   10.8940  H     
35   H        -8.0868    0.6972   16.7317  H     
36   H        -7.4417    1.5008   18.0516  H     
37   H        -0.1214    9.6659   16.1293  H     
38   H         1.1672   10.0421   14.9705  H     
39   H        -0.4653   11.1426   13.4555  H     
40   H        -0.4681   11.9002   15.0603  H     
41   H        -1.7784   10.7958   14.6014  H     
@<TRIPOS>BOND
     1    1    2 2
     2    1    3 2
     3    1    6 1
     4    1   21 am
     5    4    5 2
     6    4    9 1
     7    5    6 1
     8    5   20 1
     9    6    7 2
    10    7    8 1
    11    8    9 2
    12    8   10 1
    13   10   11 1
    14   10   12 2
    15   11   13 1
    16   13   14 1
    17   14   15 2
    18   14   19 1
    19   15   16 1
    20   16   17 2
    21   17   18 1
    22   17   23 1
    23   18   19 1
    24   18   22 2
    25   23   24 2
    26   23   25 1
    27   25   26 1
    28   26   27 1
    29    4   28 1
    30    7   29 1
    31    9   30 1
    32   11   31 1
    33   11   32 1
    34   16   33 1
    35   19   34 1
    36   21   35 1
    37   21   36 1
    38   26   37 1
    39   26   38 1
    40   27   39 1
    41   27   40 1
    42   27   41 1
@<TRIPOS>PROPERTY_DATA
  Total_Score	| 8.1263
  Crash		| -0.4532
  Polar		| 4.9157
  FragIndex	| 1
  FragRMSD	| 0.850

