@<TRIPOS>MOLECULE
BindingDB_50329835
 36 38 0 0 0
SMALL
NO_CHARGES


@<TRIPOS>ATOM
1    C        -5.8694    4.7367   14.2209  C     
2    C        -5.9926    3.8546   15.3143  C     
3    C        -5.6130    2.4932   15.1666  C     
4    C        -5.0395    2.0735   13.9459  C     
5    C        -4.8892    2.9609   12.8524  C     
6    C        -5.3389    4.2914   13.0021  C     
7    Cl       -6.5660    4.5130   16.7713  Cl    
8    C        -4.2907    2.5531   11.6611  C     
9    C        -3.0381    1.8045   11.6083  C     
10   O        -4.7981    2.8819   10.5925  O     
11   S        -5.7939    1.3181   16.4554  S     
12   N        -7.2193    1.4507   17.3340  N     
13   O        -5.8580   -0.1503   15.8455  O     
14   O        -4.5591    1.3941   17.4453  O     
15   S        -1.7416    2.6476   10.6607  S     
16   C        -1.4382    4.0528   11.6463  C     
17   N        -0.3707    4.8471   11.4610  N     
18   N        -2.1941    4.5282   12.6595  N     
19   C        -1.5848    5.6323   13.1091  C     
20   C        -0.4304    5.8343   12.3579  C     
21   C        -1.0914    7.6166   14.4048  C     
22   C        -1.9397    6.5219   14.1373  C     
23   C         0.0838    7.8157   13.6451  C     
24   C         0.4223    6.9251   12.6080  C     
25   Br       -1.5302    8.8024   15.7694  Br    
26   H        -6.1496    5.7183   14.3123  H     
27   H        -4.7381    1.1054   13.8440  H     
28   H        -5.2380    4.9638   12.2354  H     
29   H        -2.6387    1.5937   12.6043  H     
30   H        -3.2332    0.8464   11.1229  H     
31   H        -7.4630    0.7446   17.9528  H     
32   H        -7.6931    2.2936   17.3651  H     
33   H         0.3208    4.7200   10.7929  H     
34   H        -2.7957    6.3742   14.6736  H     
35   H         0.6917    8.6137   13.8482  H     
36   H         1.2670    7.0645   12.0484  H     
@<TRIPOS>BOND
     1    1    2 2
     2    1    6 1
     3    2    3 1
     4    2    7 1
     5    3    4 2
     6    3   11 1
     7    4    5 1
     8    5    6 2
     9    5    8 1
    10    8    9 1
    11    8   10 2
    12    9   15 1
    13   11   12 am
    14   11   13 2
    15   11   14 2
    16   15   16 1
    17   16   17 1
    18   16   18 2
    19   17   20 1
    20   18   19 1
    21   19   20 2
    22   19   22 1
    23   20   24 1
    24   21   22 2
    25   21   23 1
    26   21   25 1
    27   23   24 2
    28    1   26 1
    29    4   27 1
    30    6   28 1
    31    9   29 1
    32    9   30 1
    33   12   31 1
    34   12   32 1
    35   17   33 1
    36   22   34 1
    37   23   35 1
    38   24   36 1
@<TRIPOS>PROPERTY_DATA
  Total_Score	| 8.2574
  Crash		| -0.9535
  Polar		| 5.1631
  FragIndex	| 1
  FragRMSD	| 1.028

