@<TRIPOS>MOLECULE
BindingDB_50380155
 41 42 0 0 0
SMALL
NO_CHARGES


@<TRIPOS>ATOM
1    S        -5.7368    1.3949   16.5579  S     
2    O        -4.2857    1.0573   17.1007  O     
3    O        -6.1817    0.0194   15.9072  O     
4    C        -5.9860    4.8752   14.4017  C     
5    C        -6.0876    3.9564   15.4728  C     
6    C        -5.5955    2.6339   15.3238  C     
7    C        -4.9553    2.2844   14.1072  C     
8    C        -4.8360    3.2136   13.0433  C     
9    C        -5.3846    4.4996   13.1842  C     
10   C        -4.2319    2.8399   11.8529  C     
11   C        -2.8108    2.5478   11.7478  C     
12   O        -4.9564    2.7215   10.8723  O     
13   S        -2.1087    3.4151   10.3004  S     
14   C        -0.8114    4.2661   11.0536  C     
15   N        -1.0278    5.4194   11.7306  N     
16   C        -0.0203    6.0923   12.3182  C     
17   C         1.2443    5.6173   12.1999  C     
18   C         1.4715    4.4582   11.5098  C     
19   N         0.4567    3.7977   10.9547  N     
20   Cl       -6.8039    4.5251   16.8980  Cl    
21   N        -6.6874    1.5343   17.9407  N     
22   O         2.6036    4.0197   11.3764  O     
23   C        -0.3367    7.3039   13.0725  C     
24   C        -1.5536    7.1414   14.0318  C     
25   C        -1.5869    8.1746   15.1753  C     
26   H        -6.3571    5.8254   14.4980  H     
27   H        -4.5878    1.3329   13.9871  H     
28   H        -5.3398    5.1742   12.4221  H     
29   H        -2.2910    2.8091   12.6742  H     
30   H        -2.6863    1.4787   11.5858  H     
31   H         2.0153    6.1141   12.5903  H     
32   H         0.6314    2.9843   10.4594  H     
33   H        -7.6384    1.3811   17.8895  H     
34   H        -6.3103    1.9657   18.7363  H     
35   H         0.5278    7.6362   13.6590  H     
36   H        -0.5529    8.0952   12.3474  H     
37   H        -2.4749    7.2451   13.4414  H     
38   H        -1.5557    6.1423   14.4760  H     
39   H        -0.7641    7.9813   15.8707  H     
40   H        -2.5281    8.0941   15.7180  H     
41   H        -1.4934    9.1879   14.7829  H     
@<TRIPOS>BOND
     1    1    2 2
     2    1    3 2
     3    1    6 1
     4    1   21 am
     5    4    5 2
     6    4    9 1
     7    5    6 1
     8    5   20 1
     9    6    7 2
    10    7    8 1
    11    8    9 2
    12    8   10 1
    13   10   11 1
    14   10   12 2
    15   11   13 1
    16   13   14 1
    17   14   15 2
    18   14   19 1
    19   15   16 1
    20   16   17 2
    21   16   23 1
    22   17   18 1
    23   18   19 1
    24   18   22 2
    25   23   24 1
    26   24   25 1
    27    4   26 1
    28    7   27 1
    29    9   28 1
    30   11   29 1
    31   11   30 1
    32   17   31 1
    33   19   32 1
    34   21   33 1
    35   21   34 1
    36   23   35 1
    37   23   36 1
    38   24   37 1
    39   24   38 1
    40   25   39 1
    41   25   40 1
    42   25   41 1
@<TRIPOS>PROPERTY_DATA
  Total_Score	| 8.9468
  Crash		| -0.9503
  Polar		| 5.9941
  FragIndex	| 1
  FragRMSD	| 0.701

