@<TRIPOS>MOLECULE
BindingDB_50380151
 40 41 0 0 0
SMALL
NO_CHARGES


@<TRIPOS>ATOM
1    S        -5.8787    1.2060   16.4042  S     
2    O        -4.7688    1.3357   17.5329  O     
3    O        -5.6858   -0.2652   15.8392  O     
4    C        -5.9575    4.7257   14.3466  C     
5    C        -6.0986    3.7877   15.3897  C     
6    C        -5.6681    2.4519   15.1924  C     
7    C        -5.0581    2.0980   13.9673  C     
8    C        -4.8988    3.0382   12.9183  C     
9    C        -5.3851    4.3513   13.1188  C     
10   C        -4.2726    2.6910   11.7202  C     
11   C        -2.9489    2.0803   11.6643  C     
12   O        -4.8603    2.9148   10.6654  O     
13   S        -1.7628    2.9453   10.5951  S     
14   C        -1.3123    4.3062   11.5793  C     
15   N        -1.7317    4.4751   12.8646  N     
16   C        -1.4116    5.5883   13.5715  C     
17   C        -0.6573    6.6315   12.9827  C     
18   C        -0.1722    6.3812   11.6758  C     
19   N        -0.5204    5.2552   11.0110  N     
20   Cl       -6.7759    4.3415   16.8469  Cl    
21   N        -7.3596    1.1674   17.1950  N     
22   C        -0.4354    7.9538   13.6294  C     
23   C        -1.5525    8.4419   14.6096  C     
24   C        -1.1092    8.5072   16.0872  C     
25   H        -6.2634    5.6939   14.4784  H     
26   H        -4.7387    1.1362   13.8259  H     
27   H        -5.2878    5.0612   12.3867  H     
28   H        -2.4950    2.0061   12.6534  H     
29   H        -3.0513    1.0657   11.2754  H     
30   H        -1.7458    5.7052   14.5314  H     
31   H         0.4003    7.0808   11.1946  H     
32   H        -8.1286    0.7515   16.7633  H     
33   H        -7.4338    1.4875   18.1084  H     
34   H         0.5391    7.9399   14.1245  H     
35   H        -0.3729    8.6977   12.8291  H     
36   H        -1.8498    9.4575   14.3350  H     
37   H        -2.4349    7.7864   14.5050  H     
38   H        -0.7724    7.5280   16.4244  H     
39   H        -1.9536    8.8216   16.7061  H     
40   H        -0.2957    9.2224   16.2149  H     
@<TRIPOS>BOND
     1    1    2 2
     2    1    3 2
     3    1    6 1
     4    1   21 am
     5    4    5 2
     6    4    9 1
     7    5    6 1
     8    5   20 1
     9    6    7 2
    10    7    8 1
    11    8    9 2
    12    8   10 1
    13   10   11 1
    14   10   12 2
    15   11   13 1
    16   13   14 1
    17   14   15 2
    18   14   19 1
    19   15   16 1
    20   16   17 2
    21   17   18 1
    22   17   22 1
    23   18   19 2
    24   22   23 1
    25   23   24 1
    26    4   25 1
    27    7   26 1
    28    9   27 1
    29   11   28 1
    30   11   29 1
    31   16   30 1
    32   18   31 1
    33   21   32 1
    34   21   33 1
    35   22   34 1
    36   22   35 1
    37   23   36 1
    38   23   37 1
    39   24   38 1
    40   24   39 1
    41   24   40 1
@<TRIPOS>PROPERTY_DATA
  Total_Score	| 8.6691
  Crash		| -0.9837
  Polar		| 4.9320
  FragIndex	| 1
  FragRMSD	| 0.842

