@<TRIPOS>MOLECULE
BindingDB_50380146
 44 45 0 0 0
SMALL
NO_CHARGES


@<TRIPOS>ATOM
1    S        -5.7706    1.2439   16.3889  S     
2    O        -4.4913    1.2402   17.3302  O     
3    O        -5.7386   -0.2021   15.7319  O     
4    C        -5.8828    4.7581   14.3166  C     
5    C        -6.0248    3.8274   15.3633  C     
6    C        -5.6016    2.4864   15.1716  C     
7    C        -5.0002    2.1251   13.9427  C     
8    C        -4.8618    3.0516   12.8818  C     
9    C        -5.3176    4.3761   13.0896  C     
10   C        -4.2889    2.6938   11.6590  C     
11   C        -2.9959    2.0415   11.5040  C     
12   O        -4.9140    2.9380   10.6333  O     
13   S        -1.6713    2.6509   12.5775  S     
14   C        -1.6612    4.3742   12.3317  C     
15   N        -2.5816    5.0436   11.5883  N     
16   C        -2.5628    6.3876   11.4220  C     
17   C        -1.5891    7.0838   12.0632  C     
18   C        -0.6528    6.4310   12.8122  C     
19   N        -0.6796    5.1049   12.9224  N     
20   Cl       -6.6920    4.4007   16.8147  Cl    
21   N        -7.1286    1.2146   17.3796  N     
22   O         0.2356    7.0507   13.3768  O     
23   C        -3.5558    7.0444   10.5268  C     
24   C        -2.8177    7.9003    9.4428  C     
25   C        -4.4580    6.0170    9.7562  C     
26   C        -4.5123    7.9622   11.3610  C     
27   H        -6.1825    5.7299   14.4408  H     
28   H        -4.6809    1.1621   13.8086  H     
29   H        -5.2178    5.0856   12.3567  H     
30   H        -3.1147    0.9761   11.7104  H     
31   H        -2.6415    2.1326   10.4740  H     
32   H        -1.5258    8.0707   11.9654  H     
33   H         0.0162    4.6550   13.4352  H     
34   H        -7.9543    0.8178   17.0570  H     
35   H        -7.1046    1.6360   18.2536  H     
36   H        -2.2402    8.7094    9.8951  H     
37   H        -3.5294    8.3552    8.7485  H     
38   H        -2.1330    7.2766    8.8621  H     
39   H        -3.8527    5.3332    9.1550  H     
40   H        -5.1502    6.5243    9.0820  H     
41   H        -5.0540    5.4279   10.4545  H     
42   H        -5.0142    7.3841   12.1414  H     
43   H        -5.2786    8.4096   10.7227  H     
44   H        -3.9691    8.7788   11.8389  H     
@<TRIPOS>BOND
     1    1    2 2
     2    1    3 2
     3    1    6 1
     4    1   21 am
     5    4    5 2
     6    4    9 1
     7    5    6 1
     8    5   20 1
     9    6    7 2
    10    7    8 1
    11    8    9 2
    12    8   10 1
    13   10   11 1
    14   10   12 2
    15   11   13 1
    16   13   14 1
    17   14   15 2
    18   14   19 1
    19   15   16 1
    20   16   17 2
    21   16   23 1
    22   17   18 1
    23   18   19 1
    24   18   22 2
    25   23   24 1
    26   23   25 1
    27   23   26 1
    28    4   27 1
    29    7   28 1
    30    9   29 1
    31   11   30 1
    32   11   31 1
    33   17   32 1
    34   19   33 1
    35   21   34 1
    36   21   35 1
    37   24   36 1
    38   24   37 1
    39   24   38 1
    40   25   39 1
    41   25   40 1
    42   25   41 1
    43   26   42 1
    44   26   43 1
    45   26   44 1
@<TRIPOS>PROPERTY_DATA
  Total_Score	| 7.0176
  Crash		| -1.5279
  Polar		| 6.0884
  FragIndex	| 1
  FragRMSD	| 1.306

