@<TRIPOS>MOLECULE
BindingDB_50380158
 35 36 0 0 0
SMALL
NO_CHARGES


@<TRIPOS>ATOM
1    O        -4.5805    1.3236   17.4331  O     
2    S        -5.7882    1.2299   16.4064  S     
3    O        -5.6719   -0.2390   15.8103  O     
4    C        -5.6180    2.4544   15.1698  C     
5    C        -6.0569    3.7904   15.3495  C     
6    C        -5.9419    4.7105   14.2899  C     
7    C        -5.3719    4.3211   13.0652  C     
8    C        -4.8769    3.0091   12.8789  C     
9    C        -5.0133    2.0884   13.9460  C     
10   C        -4.2738    2.6442   11.6767  C     
11   O        -4.8563    2.8925   10.6270  O     
12   C        -2.9764    1.9888   11.5921  C     
13   S        -1.7725    2.9217   10.6104  S     
14   C        -1.3636    4.2360   11.6748  C     
15   N        -2.2438    4.8010   12.5434  N     
16   C        -1.9058    5.8491   13.3186  C     
17   C        -0.6565    6.3616   13.2309  C     
18   C         0.2346    5.8079   12.3549  C     
19   N        -0.1192    4.7758   11.5941  N     
20   O         1.3641    6.2624   12.2413  O     
21   C        -2.9138    6.3742   14.2176  C     
22   Cl       -6.6999    4.3695   16.8097  Cl    
23   N        -7.2191    1.1969   17.2879  N     
24   H        -6.2592    5.6776   14.4063  H     
25   H        -5.2848    5.0202   12.3222  H     
26   H        -4.6863    1.1263   13.8178  H     
27   H        -2.5387    1.8070   12.5767  H     
28   H        -3.1154    1.0215   11.1046  H     
29   H        -0.3829    7.1349   13.7947  H     
30   H         0.5213    4.4056   10.9658  H     
31   H        -3.7621    6.7382   13.6392  H     
32   H        -2.5443    7.2016   14.8302  H     
33   H        -3.2549    5.5817   14.8843  H     
34   H        -7.9875    0.7103   16.9379  H     
35   H        -7.2568    1.6008   18.1707  H     
@<TRIPOS>BOND
     1    1    2 2
     2    2    3 2
     3    2    4 1
     4    2   23 am
     5    4    5 1
     6    4    9 2
     7    5    6 2
     8    5   22 1
     9    6    7 1
    10    7    8 2
    11    8    9 1
    12    8   10 1
    13   10   11 2
    14   10   12 1
    15   12   13 1
    16   13   14 1
    17   14   15 2
    18   14   19 1
    19   15   16 1
    20   16   17 2
    21   16   21 1
    22   17   18 1
    23   18   19 1
    24   18   20 2
    25    6   24 1
    26    7   25 1
    27    9   26 1
    28   12   27 1
    29   12   28 1
    30   17   29 1
    31   19   30 1
    32   21   31 1
    33   21   32 1
    34   21   33 1
    35   23   34 1
    36   23   35 1
@<TRIPOS>PROPERTY_DATA
  Total_Score	| 7.6497
  Crash		| -0.5883
  Polar		| 5.0341
  FragIndex	| 1
  FragRMSD	| 0.883

