@<TRIPOS>MOLECULE
BindingDB_50329833
 36 38 0 0 0
SMALL
NO_CHARGES


@<TRIPOS>ATOM
1    C        -5.9149    4.7481   14.2653  C     
2    C        -6.0432    3.8308   15.3248  C     
3    C        -5.6383    2.4823   15.1436  C     
4    C        -5.0525    2.1037   13.9162  C     
5    C        -4.9000    3.0240   12.8506  C     
6    C        -5.3584    4.3496   13.0406  C     
7    Cl       -6.6517    4.4288   16.8008  Cl    
8    C        -4.2773    2.6569   11.6605  C     
9    C        -2.9595    2.0429   11.6012  C     
10   O        -4.8366    2.9021   10.6003  O     
11   S        -5.8495    1.2754   16.3948  S     
12   N        -7.3584    1.2556   17.1306  N     
13   O        -5.7678   -0.1858   15.7712  O     
14   O        -4.7066    1.3420   17.4993  O     
15   S        -1.7367    3.0419   10.7112  S     
16   C        -1.4955    4.3808   11.7927  C     
17   N        -0.4323    5.2008   11.7247  N     
18   N        -2.3277    4.7891   12.7692  N     
19   C        -1.7732    5.8794   13.3203  C     
20   C        -0.5704    6.1402   12.6651  C     
21   C        -1.4229    7.8133   14.7497  C     
22   C        -2.2231    6.7111   14.3615  C     
23   C        -0.1971    8.0688   14.0892  C     
24   C         0.2377    7.2324   13.0328  C     
25   H        -6.1993    5.7246   14.3857  H     
26   H        -4.7404    1.1362   13.7920  H     
27   H        -5.2417    5.0494   12.3044  H     
28   H        -2.5489    1.8401   12.5921  H     
29   H        -3.0479    1.0917   11.0752  H     
30   H        -7.8709    0.4330   17.1420  H     
31   H        -7.7162    2.0664   17.5331  H     
32   H         0.3053    5.1296   11.0968  H     
33   H        -1.7345    8.4296   15.5088  H     
34   H        -3.1120    6.5274   14.8279  H     
35   H         0.3807    8.8681   14.3731  H     
36   H         1.1185    7.4124   12.5428  H     
@<TRIPOS>BOND
     1    1    2 2
     2    1    6 1
     3    2    3 1
     4    2    7 1
     5    3    4 2
     6    3   11 1
     7    4    5 1
     8    5    6 2
     9    5    8 1
    10    8    9 1
    11    8   10 2
    12    9   15 1
    13   11   12 am
    14   11   13 2
    15   11   14 2
    16   15   16 1
    17   16   17 1
    18   16   18 2
    19   17   20 1
    20   18   19 1
    21   19   20 2
    22   19   22 1
    23   20   24 1
    24   21   22 2
    25   21   23 1
    26   23   24 2
    27    1   25 1
    28    4   26 1
    29    6   27 1
    30    9   28 1
    31    9   29 1
    32   12   30 1
    33   12   31 1
    34   17   32 1
    35   21   33 1
    36   22   34 1
    37   23   35 1
    38   24   36 1
@<TRIPOS>PROPERTY_DATA
  Total_Score	| 7.9005
  Crash		| -0.5717
  Polar		| 5.1627
  FragIndex	| 1
  FragRMSD	| 0.980

