@<TRIPOS>MOLECULE
BindingDB_50380140
 31 32 0 0 0
SMALL
NO_CHARGES


@<TRIPOS>ATOM
1    S        -5.2677    1.1860   16.3959  S     
2    O        -6.3183    0.0415   16.0619  O     
3    O        -5.4503    1.6818   17.8941  O     
4    C        -6.0497    4.5847   14.2619  C     
5    C        -6.0298    3.6598   15.3245  C     
6    C        -5.3994    2.4016   15.1446  C     
7    C        -4.8246    2.0955   13.8893  C     
8    C        -4.8365    3.0171   12.8168  C     
9    C        -5.4610    4.2685   13.0260  C     
10   C        -4.2440    2.7133   11.5893  C     
11   C        -2.9410    2.0707   11.4522  C     
12   O        -4.8239    3.0376   10.5599  O     
13   S        -1.7505    3.1039   10.5521  S     
14   C        -1.4206    4.3925   11.6785  C     
15   N        -1.9983    4.4851   12.9057  N     
16   C        -1.7219    5.5045   13.7572  C     
17   C        -0.8076    6.5013   13.3766  C     
18   C        -0.2146    6.3933   12.1073  C     
19   N        -0.5363    5.3507   11.2987  N     
20   Cl       -6.7907    4.1376   16.7652  Cl    
21   N        -3.7749    0.4218   16.2927  N     
22   H        -6.4885    5.5021   14.3816  H     
23   H        -4.4010    1.1745   13.7464  H     
24   H        -5.4737    4.9742   12.2846  H     
25   H        -2.4959    1.8092   12.4144  H     
26   H        -3.0695    1.1431   10.8909  H     
27   H        -2.1815    5.5419   14.6676  H     
28   H        -0.5779    7.2756   14.0037  H     
29   H         0.4565    7.0937   11.7887  H     
30   H        -3.0618    0.8483   15.7920  H     
31   H        -3.7019   -0.5166   16.5299  H     
@<TRIPOS>BOND
     1    1    2 2
     2    1    3 2
     3    1    6 1
     4    1   21 am
     5    4    5 2
     6    4    9 1
     7    5    6 1
     8    5   20 1
     9    6    7 2
    10    7    8 1
    11    8    9 2
    12    8   10 1
    13   10   11 1
    14   10   12 2
    15   11   13 1
    16   13   14 1
    17   14   15 2
    18   14   19 1
    19   15   16 1
    20   16   17 2
    21   17   18 1
    22   18   19 2
    23    4   22 1
    24    7   23 1
    25    9   24 1
    26   11   25 1
    27   11   26 1
    28   16   27 1
    29   17   28 1
    30   18   29 1
    31   21   30 1
    32   21   31 1
@<TRIPOS>PROPERTY_DATA
  Total_Score	| 6.9816
  Crash		| -0.8351
  Polar		| 5.8074
  FragIndex	| 1
  FragRMSD	| 0.596

