@<TRIPOS>MOLECULE
BindingDB_50329836
 41 44 0 0 0
SMALL
NO_CHARGES


@<TRIPOS>ATOM
1    C        -6.0530    4.8282   14.4185  C     
2    C        -6.1644    3.8959   15.4704  C     
3    C        -5.6770    2.5779   15.2937  C     
4    C        -5.0140    2.2454   14.0911  C     
5    C        -4.8843    3.1739   13.0334  C     
6    C        -5.4438    4.4607   13.2024  C     
7    Cl       -6.8549    4.4281   16.9276  Cl    
8    C        -4.2358    2.8408   11.8500  C     
9    C        -2.8882    2.2901   11.8077  C     
10   O        -4.8722    2.8904   10.7999  O     
11   S        -5.8421    1.3231   16.5028  S     
12   N        -7.1464    1.4524   17.5571  N     
13   O        -5.9286   -0.1305   15.8631  O     
14   O        -4.5306    1.3522   17.4010  O     
15   S        -1.8476    3.0388   10.5259  S     
16   C        -1.2011    4.4330   11.3370  C     
17   N        -1.7161    5.1372   12.3631  N     
18   N        -0.0517    4.9922   10.9330  N     
19   C         0.1700    6.0491   11.7205  C     
20   C        -0.8741    6.1468   12.6354  C     
21   N         1.2334    7.9088   12.6525  N     
22   C         1.2150    6.9553   11.7296  C     
23   C         0.2609    8.0649   13.5981  C     
24   C        -0.8519    7.1733   13.6188  C     
25   C        -1.8392    7.3187   14.6154  C     
26   C        -1.7041    8.3210   15.5976  C     
27   C        -0.5936    9.1894   15.5776  C     
28   C         0.3808    9.0709   14.5741  C     
29   H        -6.4145    5.7783   14.5304  H     
30   H        -4.6383    1.3047   13.9742  H     
31   H        -5.3816    5.1607   12.4541  H     
32   H        -2.3750    2.3817   12.7658  H     
33   H        -2.9610    1.2257   11.5783  H     
34   H        -7.0458    1.2095   18.4970  H     
35   H        -7.9928    1.8253   17.2374  H     
36   H        -2.5429    4.9526   12.8245  H     
37   H         1.9551    6.8878   11.0745  H     
38   H        -2.6441    6.6894   14.6542  H     
39   H        -2.4010    8.4086   16.3393  H     
40   H        -0.4843    9.8997   16.3053  H     
41   H         1.1900    9.6986   14.5708  H     
@<TRIPOS>BOND
     1    1    2 2
     2    1    6 1
     3    2    3 1
     4    2    7 1
     5    3    4 2
     6    3   11 1
     7    4    5 1
     8    5    6 2
     9    5    8 1
    10    8    9 1
    11    8   10 2
    12    9   15 1
    13   11   12 am
    14   11   13 2
    15   11   14 2
    16   15   16 1
    17   16   17 1
    18   16   18 2
    19   17   20 1
    20   18   19 1
    21   19   20 2
    22   19   22 1
    23   20   24 1
    24   21   22 2
    25   21   23 1
    26   23   24 1
    27   23   28 2
    28   24   25 2
    29   25   26 1
    30   26   27 2
    31   27   28 1
    32    1   29 1
    33    4   30 1
    34    6   31 1
    35    9   32 1
    36    9   33 1
    37   12   34 1
    38   12   35 1
    39   17   36 1
    40   22   37 1
    41   25   38 1
    42   26   39 1
    43   27   40 1
    44   28   41 1
@<TRIPOS>PROPERTY_DATA
  Total_Score	| 8.2533
  Crash		| -1.0662
  Polar		| 5.0676
  FragIndex	| 1
  FragRMSD	| 1.309

