@<TRIPOS>MOLECULE
BindingDB_50079035
 21 22 0 0 0
SMALL
NO_CHARGES


@<TRIPOS>ATOM
1    C        15.9483    4.1264   15.8429  C     
2    S        15.0731    3.0254   16.7968  S     
3    N        17.2531    4.2211   15.9518  N     
4    S        15.1822    5.1439   14.7015  S     
5    C        16.7581    5.7644   14.3722  C     
6    C        17.7533    5.1498   15.1317  C     
7    C        17.0853    6.7790   13.4535  C     
8    O        14.8427    1.7345   15.9016  O     
9    O        15.9386    2.6529   18.0773  O     
10   N        13.5586    3.5943   17.2356  N     
11   C        19.1015    5.5235   15.0004  C     
12   C        18.4352    7.1622   13.3040  C     
13   N        18.7585    8.1312   12.4268  N     
14   C        19.4393    6.5326   14.0727  C     
15   H        16.3450    7.2260   12.9046  H     
16   H        12.9380    2.9943   17.6836  H     
17   H        13.2910    4.4976   17.0134  H     
18   H        19.8238    5.0806   15.5697  H     
19   H        19.6841    8.4019   12.3210  H     
20   H        18.0635    8.5635   11.9054  H     
21   H        20.4199    6.8055   13.9634  H     
@<TRIPOS>BOND
     1    1    2 1
     2    1    3 2
     3    1    4 1
     4    2    8 2
     5    2    9 2
     6    2   10 am
     7    3    6 1
     8    4    5 1
     9    5    6 1
    10    5    7 2
    11    6   11 2
    12    7   12 1
    13   11   14 1
    14   12   13 1
    15   12   14 2
    16    7   15 1
    17   10   16 1
    18   10   17 1
    19   11   18 1
    20   13   19 1
    21   13   20 1
    22   14   21 1
@<TRIPOS>PROPERTY_DATA
  Total_Score	| 3.5967
  Crash		| -0.8021
  Polar		| 2.5933
  FragIndex	| 1
  FragRMSD	| 1.102

