@<TRIPOS>MOLECULE
BindingDB_50262064
 36 38 0 0 0
SMALL
NO_CHARGES


@<TRIPOS>ATOM
1    C        16.7710    3.9877   16.1339  C     
2    C        15.4481    4.1302   16.5950  C     
3    C        14.7278    5.2950   16.2723  C     
4    C        15.2926    6.2631   15.4295  C     
5    C        16.5804    6.0879   14.8574  C     
6    C        17.3291    4.9583   15.2816  C     
7    N        17.0346    6.8910   13.8438  N     
8    N        18.0808    6.6629   13.1606  N     
9    N        18.0301    7.2211   12.0707  N     
10   C        16.9347    7.8793   11.9693  C     
11   C        16.3430    7.7766   13.1521  C     
12   S        14.6761    2.9056   17.5570  S     
13   N        15.3917    1.3872   17.5231  N     
14   O        14.5888    3.4648   19.0412  O     
15   O        13.2046    2.7364   16.9793  O     
16   C        16.2424    8.1747   10.8006  C     
17   C        16.3755    7.3430    9.6642  C     
18   C        15.5427    7.5079    8.5338  C     
19   C        14.6001    8.5611    8.5292  C     
20   C        14.4835    9.4238    9.6317  C     
21   C        15.2859    9.2211   10.7642  C     
22   C        15.6559    6.5676    7.3965  C     
23   H        17.3227    3.1642   16.3821  H     
24   H        13.7780    5.4391   16.6268  H     
25   H        14.7224    7.0795   15.2105  H     
26   H        18.2716    4.7951   14.9205  H     
27   H        15.4014    8.0415   13.3201  H     
28   H        14.9297    0.6344   17.9189  H     
29   H        16.2661    1.2551   17.1246  H     
30   H        17.0413    6.5613    9.6746  H     
31   H        13.9922    8.7122    7.7237  H     
32   H        13.7932   10.1789    9.6199  H     
33   H        15.1518    9.8374   11.5736  H     
34   H        16.6589    6.6343    6.9716  H     
35   H        14.9295    6.7777    6.6090  H     
36   H        15.4883    5.5509    7.7468  H     
@<TRIPOS>BOND
     1    1    2 2
     2    1    6 1
     3    2    3 1
     4    2   12 1
     5    3    4 2
     6    4    5 1
     7    5    6 2
     8    5    7 1
     9    7    8 1
    10    7   11 1
    11    8    9 2
    12    9   10 1
    13   10   11 2
    14   10   16 1
    15   12   13 am
    16   12   14 2
    17   12   15 2
    18   16   17 2
    19   16   21 1
    20   17   18 1
    21   18   19 2
    22   18   22 1
    23   19   20 1
    24   20   21 2
    25    1   23 1
    26    3   24 1
    27    4   25 1
    28    6   26 1
    29   11   27 1
    30   13   28 1
    31   13   29 1
    32   17   30 1
    33   19   31 1
    34   20   32 1
    35   21   33 1
    36   22   34 1
    37   22   35 1
    38   22   36 1
@<TRIPOS>PROPERTY_DATA
  Total_Score	| 2.9072
  Crash		| -1.0396
  Polar		| 0.2371
  FragIndex	| 1
  FragRMSD	| 1.201

