@<TRIPOS>MOLECULE
BindingDB_50262063
 36 38 0 0 0
SMALL
NO_CHARGES


@<TRIPOS>ATOM
1    C        16.8196    4.1528   16.2954  C     
2    C        15.4426    4.2055   16.5791  C     
3    C        14.6647    5.2358   16.0177  C     
4    C        15.2371    6.1356   15.1054  C     
5    C        16.6009    6.0432   14.7317  C     
6    C        17.3939    5.0725   15.3979  C     
7    N        17.1152    6.7698   13.6911  N     
8    N        18.3142    6.7051   13.2799  N     
9    N        18.4097    7.1375   12.1393  N     
10   C        17.2604    7.5143   11.7042  C     
11   C        16.4438    7.3983   12.7452  C     
12   S        14.6897    3.0251   17.6125  S     
13   N        15.3910    1.4983   17.5549  N     
14   O        14.6633    3.5931   19.0941  O     
15   O        13.2016    2.8344   17.0870  O     
16   C        16.9390    7.7433   10.3610  C     
17   C        15.6167    8.0194    9.9224  C     
18   C        15.3154    8.1753    8.5559  C     
19   C        16.3315    8.0778    7.5800  C     
20   C        17.6498    7.8124    8.0038  C     
21   C        17.9462    7.6461    9.3674  C     
22   C        16.0129    8.2744    6.1463  C     
23   H        17.4102    3.4310   16.7147  H     
24   H        13.6722    5.3257   16.2451  H     
25   H        14.6281    6.8433   14.6956  H     
26   H        18.3886    4.9740   15.1820  H     
27   H        15.4634    7.5350   12.7178  H     
28   H        14.8605    0.7220   17.7880  H     
29   H        16.2691    1.3698   17.1679  H     
30   H        14.8456    8.1015   10.5881  H     
31   H        14.3495    8.3645    8.2756  H     
32   H        18.4117    7.7431    7.3209  H     
33   H        18.9183    7.4492    9.6215  H     
34   H        15.2902    7.5213    5.8223  H     
35   H        16.8983    8.1958    5.5072  H     
36   H        15.5806    9.2694    6.0068  H     
@<TRIPOS>BOND
     1    1    2 2
     2    1    6 1
     3    2    3 1
     4    2   12 1
     5    3    4 2
     6    4    5 1
     7    5    6 2
     8    5    7 1
     9    7    8 1
    10    7   11 1
    11    8    9 2
    12    9   10 1
    13   10   11 2
    14   10   16 1
    15   12   13 am
    16   12   14 2
    17   12   15 2
    18   16   17 2
    19   16   21 1
    20   17   18 1
    21   18   19 2
    22   19   20 1
    23   19   22 1
    24   20   21 2
    25    1   23 1
    26    3   24 1
    27    4   25 1
    28    6   26 1
    29   11   27 1
    30   13   28 1
    31   13   29 1
    32   17   30 1
    33   18   31 1
    34   20   32 1
    35   21   33 1
    36   22   34 1
    37   22   35 1
    38   22   36 1
@<TRIPOS>PROPERTY_DATA
  Total_Score	| 2.4695
  Crash		| -1.1325
  Polar		| 0.2023
  FragIndex	| 1
  FragRMSD	| 1.289

