@<TRIPOS>MOLECULE
BindingDB_11639
 40 42 0 0 0
SMALL
NO_CHARGES


@<TRIPOS>ATOM
1    C        18.9626    9.4423   14.3689  C     
2    C        18.3290    9.4535   13.1374  C     
3    C        17.4907    8.3491   13.0970  C     
4    N        17.6919    7.7000   14.2695  N     
5    N        18.5397    8.3460   15.0117  N     
6    C        19.9261   10.4259   14.8733  C     
7    F        20.2717   10.1671   16.1753  F     
8    F        21.0619   10.3863   14.1087  F     
9    F        19.3886   11.6865   14.8042  F     
10   C        16.6758    7.9633   12.0030  C     
11   C        16.0097    6.3283   10.3041  C     
12   C        16.8211    6.6951   11.3925  C     
13   C        15.6848    8.8452   11.5058  C     
14   C        14.8902    8.4822   10.4094  C     
15   C        15.0500    7.2242    9.7916  C     
16   C        14.2006    6.8108    8.6478  C     
17   C        17.0966    6.5827   14.7322  C     
18   C        15.8573    4.2949   15.8809  C     
19   C        17.2656    4.3656   15.7602  C     
20   C        17.8799    5.4949   15.1970  C     
21   C        15.6855    6.4963   14.8252  C     
22   C        15.0699    5.3791   15.4120  C     
23   N        13.4845    3.0406   17.0077  N     
24   S        15.1386    2.9458   16.7076  S     
25   O        15.2882    1.7033   15.7222  O     
26   O        15.9611    2.6423   18.0353  O     
27   H        18.4332   10.1545   12.4115  H     
28   H        16.1520    5.4135    9.8611  H     
29   H        17.5285    6.0253   11.7247  H     
30   H        15.5509    9.7596   11.9513  H     
31   H        14.1791    9.1426   10.0781  H     
32   H        14.8363    6.5009    7.8100  H     
33   H        13.5412    7.6175    8.3073  H     
34   H        13.5810    5.9622    8.9491  H     
35   H        17.8556    3.5830   16.0814  H     
36   H        18.9011    5.5397   15.1444  H     
37   H        15.1023    7.2756   14.4958  H     
38   H        14.0494    5.3570   15.5146  H     
39   H        12.9784    2.2064   17.0798  H     
40   H        13.0475    3.9126   17.0779  H     
@<TRIPOS>BOND
     1    1    2 1
     2    1    5 2
     3    1    6 1
     4    2    3 2
     5    3    4 1
     6    3   10 1
     7    4    5 1
     8    4   17 1
     9    6    7 1
    10    6    8 1
    11    6    9 1
    12   10   12 1
    13   10   13 2
    14   11   12 2
    15   11   15 1
    16   13   14 1
    17   14   15 2
    18   15   16 1
    19   17   20 1
    20   17   21 2
    21   18   19 1
    22   18   22 2
    23   18   24 1
    24   19   20 2
    25   21   22 1
    26   23   24 am
    27   24   25 2
    28   24   26 2
    29    2   27 1
    30   11   28 1
    31   12   29 1
    32   13   30 1
    33   14   31 1
    34   16   32 1
    35   16   33 1
    36   16   34 1
    37   19   35 1
    38   20   36 1
    39   21   37 1
    40   22   38 1
    41   23   39 1
    42   23   40 1
@<TRIPOS>PROPERTY_DATA
  Total_Score	| 7.2874
  Crash		| -0.7901
  Polar		| 2.3096
  FragIndex	| 1
  FragRMSD	| 0.779

