@<TRIPOS>MOLECULE
BindingDB_15781
 28 29 0 0 0
SMALL
NO_CHARGES


@<TRIPOS>ATOM
1    C        66.0544   48.8492   10.4688  C     
2    C        65.4198   47.6549   10.8098  C     
3    C        64.8346   46.8872    9.7792  C     
4    C        66.0778   49.3438    9.1384  C     
5    C        65.4702   48.5069    8.1428  C     
6    N        64.8903   47.3293    8.4954  N     
7    N        65.4105   48.8087    6.8124  N     
8    N        66.6321   50.5409    8.8100  N     
9    C        67.3677   51.4362    9.6692  C     
10   C        68.7363   50.9164    9.9216  C     
11   C        70.8044   49.9458    9.0298  C     
12   C        69.5632   50.5751    8.8337  C     
13   C        69.2271   50.6894   11.2357  C     
14   C        70.4750   50.0639   11.4423  C     
15   C        71.2495   49.6755   10.3338  C     
16   H        66.4533   49.4062   11.2290  H     
17   H        65.3824   47.3394   11.7825  H     
18   H        64.3269   46.0348    9.9949  H     
19   H        64.9833   48.1778    6.1857  H     
20   H        65.7694   49.6277    6.4584  H     
21   H        66.5800   50.7912    7.8785  H     
22   H        67.4491   52.3906    9.1799  H     
23   H        66.8151   51.6064   10.5951  H     
24   H        71.3635   49.6369    8.2278  H     
25   H        69.2438   50.7464    7.8786  H     
26   H        68.6610   50.9303   12.0589  H     
27   H        70.7869   49.8327   12.3873  H     
28   H        72.1295   49.1603   10.4850  H     
@<TRIPOS>BOND
     1    1    2 2
     2    1    4 1
     3    2    3 1
     4    3    6 2
     5    4    5 2
     6    4    8 1
     7    5    6 1
     8    5    7 1
     9    8    9 1
    10    9   10 1
    11   10   12 1
    12   10   13 2
    13   11   12 2
    14   11   15 1
    15   13   14 1
    16   14   15 2
    17    1   16 1
    18    2   17 1
    19    3   18 1
    20    7   19 1
    21    7   20 1
    22    8   21 1
    23    9   22 1
    24    9   23 1
    25   11   24 1
    26   12   25 1
    27   13   26 1
    28   14   27 1
    29   15   28 1
@<TRIPOS>PROPERTY_DATA
  Total_Score	| 4.3952
  Crash		| -0.4717
  Polar		| 4.7598
  FragIndex	| 1
  FragRMSD	| 0.134

