@<TRIPOS>MOLECULE
BindingDB_15782
 37 39 0 0 0
SMALL
NO_CHARGES


@<TRIPOS>ATOM
1    C        66.0104   48.8644   10.4625  C     
2    C        65.4159   47.6379   10.8024  C     
3    C        64.8265   46.8724    9.7820  C     
4    C        66.0367   49.3261    9.1208  C     
5    C        65.4128   48.5129    8.1315  C     
6    N        64.8433   47.3339    8.5067  N     
7    N        65.3725   48.8279    6.8171  N     
8    N        66.6267   50.4921    8.7428  N     
9    C        67.3863   51.4111    9.5354  C     
10   C        68.7284   50.8634    9.8703  C     
11   C        70.3613   50.0795   11.5048  C     
12   C        69.1175   50.6564   11.2105  C     
13   C        69.6275   50.5095    8.8391  C     
14   C        70.8932   49.9171    9.1057  C     
15   C        71.2336   49.7118   10.4692  C     
16   C        71.7811   49.5325    8.0427  C     
17   C        73.1921   49.6009    8.1775  C     
18   C        71.3022   49.0416    6.7992  C     
19   C        73.4943   48.7247    5.9435  C     
20   C        74.0498   49.1887    7.1432  C     
21   N        72.1498   48.6640    5.8119  N     
22   H        66.4076   49.4239   11.2138  H     
23   H        65.4030   47.3162   11.7699  H     
24   H        64.3849   45.9760   10.0003  H     
25   H        64.9807   48.2053    6.1862  H     
26   H        65.7503   49.6549    6.4756  H     
27   H        66.5419   50.7341    7.8108  H     
28   H        67.5236   52.3180    8.9450  H     
29   H        66.8085   51.6912   10.4187  H     
30   H        70.6237   49.9070   12.4816  H     
31   H        68.4885   50.8952   11.9804  H     
32   H        69.3494   50.6991    7.8709  H     
33   H        72.1214   49.2729   10.7320  H     
34   H        73.6220   49.9621    9.0337  H     
35   H        70.2993   48.9335    6.6225  H     
36   H        74.0985   48.4237    5.1681  H     
37   H        75.0648   49.2249    7.2666  H     
@<TRIPOS>BOND
     1    1    2 2
     2    1    4 1
     3    2    3 1
     4    3    6 2
     5    4    5 2
     6    4    8 1
     7    5    6 1
     8    5    7 1
     9    8    9 1
    10    9   10 1
    11   10   12 1
    12   10   13 2
    13   11   12 2
    14   11   15 1
    15   13   14 1
    16   14   15 2
    17   14   16 1
    18   16   17 1
    19   16   18 2
    20   17   20 2
    21   18   21 1
    22   19   20 1
    23   19   21 2
    24    1   22 1
    25    2   23 1
    26    3   24 1
    27    7   25 1
    28    7   26 1
    29    8   27 1
    30    9   28 1
    31    9   29 1
    32   11   30 1
    33   12   31 1
    34   13   32 1
    35   15   33 1
    36   17   34 1
    37   18   35 1
    38   19   36 1
    39   20   37 1
@<TRIPOS>PROPERTY_DATA
  Total_Score	| 5.9755
  Crash		| -0.8197
  Polar		| 4.7085
  FragIndex	| 1
  FragRMSD	| 0.935

