@<TRIPOS>MOLECULE
BindingDB_15783
 41 43 0 0 0
SMALL
NO_CHARGES


@<TRIPOS>ATOM
1    C        65.9542   48.9048   10.4604  C     
2    C        65.3427   47.6857   10.7991  C     
3    C        64.7960   46.8938    9.7798  C     
4    C        66.0121   49.3380    9.1124  C     
5    C        65.4246   48.5019    8.1304  C     
6    N        64.8493   47.3276    8.4983  N     
7    N        65.3878   48.8080    6.8181  N     
8    N        66.6020   50.4989    8.7200  N     
9    C        67.4106   51.3865    9.4891  C     
10   C        68.7265   50.7935    9.8422  C     
11   C        70.3628   50.0873   11.5114  C     
12   C        69.1123   50.6360   11.1895  C     
13   C        69.6255   50.3923    8.8218  C     
14   C        70.9031   49.8644    9.1286  C     
15   C        71.2541   49.7120   10.4906  C     
16   C        71.8322   49.5254    8.1026  C     
17   C        71.5158   48.6013    7.0788  C     
18   C        73.1280   50.0960    8.0782  C     
19   C        73.7248   48.8911    6.1161  C     
20   C        72.4503   48.2959    6.0660  C     
21   N        74.0145   49.7608    7.1079  N     
22   O        72.2209   47.3726    5.0857  O     
23   C        72.1252   47.9520    3.7619  C     
24   H        66.3522   49.4710   11.2089  H     
25   H        65.2994   47.3791   11.7727  H     
26   H        64.3561   45.9977    9.9978  H     
27   H        64.9912   48.1901    6.1832  H     
28   H        65.7411   49.6510    6.4826  H     
29   H        66.4701   50.7576    7.7988  H     
30   H        67.5983   52.2782    8.8842  H     
31   H        66.8428   51.7139   10.3618  H     
32   H        70.6243   49.9609   12.4893  H     
33   H        68.4819   50.9156   11.9444  H     
34   H        69.3485   50.5099    7.8411  H     
35   H        72.1536   49.3080   10.7529  H     
36   H        70.6079   48.1306    7.0714  H     
37   H        73.4240   50.7605    8.7958  H     
38   H        74.4355   48.6669    5.4189  H     
39   H        71.2223   48.5811    3.6823  H     
40   H        72.0414   47.1338    3.0450  H     
41   H        73.0109   48.5534    3.5019  H     
@<TRIPOS>BOND
     1    1    2 2
     2    1    4 1
     3    2    3 1
     4    3    6 2
     5    4    5 2
     6    4    8 1
     7    5    6 1
     8    5    7 1
     9    8    9 1
    10    9   10 1
    11   10   12 1
    12   10   13 2
    13   11   12 2
    14   11   15 1
    15   13   14 1
    16   14   15 2
    17   14   16 1
    18   16   17 1
    19   16   18 2
    20   17   20 2
    21   18   21 1
    22   19   20 1
    23   19   21 2
    24   20   22 1
    25   22   23 1
    26    1   24 1
    27    2   25 1
    28    3   26 1
    29    7   27 1
    30    7   28 1
    31    8   29 1
    32    9   30 1
    33    9   31 1
    34   11   32 1
    35   12   33 1
    36   13   34 1
    37   15   35 1
    38   17   36 1
    39   18   37 1
    40   19   38 1
    41   23   39 1
    42   23   40 1
    43   23   41 1
@<TRIPOS>PROPERTY_DATA
  Total_Score	| 6.4352
  Crash		| -0.9803
  Polar		| 4.6897
  FragIndex	| 1
  FragRMSD	| 0.907

