@<TRIPOS>MOLECULE
BindingDB_15784
 47 49 0 0 0
SMALL
NO_CHARGES


@<TRIPOS>ATOM
1    C        66.0248   48.9005   10.4435  C     
2    C        65.4202   47.6803   10.7941  C     
3    C        64.8360   46.8927    9.7904  C     
4    C        66.0518   49.3296    9.0935  C     
5    C        65.4372   48.5000    8.1240  C     
6    N        64.8633   47.3299    8.5067  N     
7    N        65.3865   48.8069    6.8159  N     
8    N        66.6482   50.4885    8.7153  N     
9    C        67.4484   51.3840    9.4800  C     
10   C        68.7669   50.7984    9.8283  C     
11   C        70.3873   49.9980   11.4802  C     
12   C        69.1400   50.5643   11.1705  C     
13   C        69.6796   50.4592    8.8032  C     
14   C        70.9456   49.8992    9.0996  C     
15   C        71.2873   49.6702   10.4518  C     
16   C        71.8440   49.5577    8.0538  C     
17   C        71.4442   48.7309    6.9803  C     
18   C        73.1774   50.0246    8.0587  C     
19   C        73.6628   48.8836    6.0255  C     
20   C        72.3547   48.3672    5.9691  C     
21   N        74.0296   49.6795    7.0592  N     
22   O        71.9825   47.5439    4.9430  O     
23   C        72.1139   46.1382    5.2494  C     
24   C        72.1113   45.2894    3.9533  C     
25   C        72.9165   45.9294    2.7987  C     
26   H        66.4336   49.4746   11.1850  H     
27   H        65.4144   47.3669   11.7690  H     
28   H        64.4035   45.9924   10.0128  H     
29   H        64.9837   48.1913    6.1821  H     
30   H        65.7515   49.6388    6.4765  H     
31   H        66.5508   50.7319    7.7770  H     
32   H        67.6229   52.2721    8.8702  H     
33   H        66.8980   51.6929   10.3769  H     
34   H        70.6402   49.8172   12.4552  H     
35   H        68.5033   50.7934   11.9373  H     
36   H        69.4216   50.6350    7.8259  H     
37   H        72.1906   49.2584   10.6993  H     
38   H        70.4922   48.3561    6.9411  H     
39   H        73.5212   50.6314    8.8072  H     
40   H        74.3473   48.6529    5.3046  H     
41   H        73.0462   45.9259    5.7870  H     
42   H        71.2769   45.8197    5.8774  H     
43   H        72.5361   44.3055    4.1731  H     
44   H        71.0813   45.1380    3.6170  H     
45   H        72.4313   46.8508    2.4691  H     
46   H        72.9627   45.2407    1.9512  H     
47   H        73.9358   46.1598    3.1191  H     
@<TRIPOS>BOND
     1    1    2 2
     2    1    4 1
     3    2    3 1
     4    3    6 2
     5    4    5 2
     6    4    8 1
     7    5    6 1
     8    5    7 1
     9    8    9 1
    10    9   10 1
    11   10   12 1
    12   10   13 2
    13   11   12 2
    14   11   15 1
    15   13   14 1
    16   14   15 2
    17   14   16 1
    18   16   17 1
    19   16   18 2
    20   17   20 2
    21   18   21 1
    22   19   20 1
    23   19   21 2
    24   20   22 1
    25   22   23 1
    26   23   24 1
    27   24   25 1
    28    1   26 1
    29    2   27 1
    30    3   28 1
    31    7   29 1
    32    7   30 1
    33    8   31 1
    34    9   32 1
    35    9   33 1
    36   11   34 1
    37   12   35 1
    38   13   36 1
    39   15   37 1
    40   17   38 1
    41   18   39 1
    42   19   40 1
    43   23   41 1
    44   23   42 1
    45   24   43 1
    46   24   44 1
    47   25   45 1
    48   25   46 1
    49   25   47 1
@<TRIPOS>PROPERTY_DATA
  Total_Score	| 7.4795
  Crash		| -0.8681
  Polar		| 4.6672
  FragIndex	| 1
  FragRMSD	| 0.924

