@<TRIPOS>MOLECULE
BindingDB_15785
 42 45 0 0 0
SMALL
NO_CHARGES


@<TRIPOS>ATOM
1    C        66.1607   48.8684   10.4438  C     
2    C        65.6220   47.6163   10.7818  C     
3    C        65.0465   46.8314    9.7720  C     
4    C        66.1297   49.3404    9.1068  C     
5    C        65.5165   48.5091    8.1332  C     
6    N        65.0101   47.3017    8.5005  N     
7    N        65.4060   48.8348    6.8261  N     
8    N        66.6602   50.5355    8.7334  N     
9    C        67.4116   51.4593    9.5253  C     
10   C        68.7591   50.9252    9.8721  C     
11   C        70.3842   50.1569   11.5260  C     
12   C        69.1520   50.7525   11.2185  C     
13   C        69.6560   50.5477    8.8469  C     
14   C        70.9022   49.9331    9.1343  C     
15   C        71.2427   49.7372   10.4970  C     
16   C        71.7872   49.5172    8.0907  C     
17   C        73.1961   49.7010    8.1993  C     
18   C        71.2811   48.9006    6.9130  C     
19   C        74.0762   49.2930    7.1790  C     
20   C        73.5419   48.7091    6.0218  C     
21   C        72.1688   48.5101    5.8961  C     
22   C        73.0915   47.7472    4.0649  C     
23   C        74.1300   48.2326    4.8580  C     
24   N        71.9266   47.9187    4.7172  N     
25   H        66.5670   49.4344   11.1909  H     
26   H        65.6446   47.2875   11.7506  H     
27   H        64.6540   45.9171    9.9919  H     
28   H        64.9916   48.2155    6.1985  H     
29   H        65.7379   49.6823    6.4805  H     
30   H        66.5467   50.7769    7.8060  H     
31   H        67.5407   52.3675    8.9336  H     
32   H        66.8340   51.7415   10.4128  H     
33   H        70.6510   50.0133   12.5015  H     
34   H        68.5362   51.0378   11.9820  H     
35   H        69.3921   50.7212    7.8754  H     
36   H        72.1186   49.2716   10.7555  H     
37   H        73.5930   50.1548    9.0265  H     
38   H        70.2801   48.7238    6.7867  H     
39   H        75.0848   49.4157    7.2816  H     
40   H        73.1957   47.3132    3.1452  H     
41   H        75.1253   48.2293    4.6283  H     
42   H        71.0508   47.6459    4.3978  H     
@<TRIPOS>BOND
     1    1    2 2
     2    1    4 1
     3    2    3 1
     4    3    6 2
     5    4    5 2
     6    4    8 1
     7    5    6 1
     8    5    7 1
     9    8    9 1
    10    9   10 1
    11   10   12 1
    12   10   13 2
    13   11   12 2
    14   11   15 1
    15   13   14 1
    16   14   15 2
    17   14   16 1
    18   16   17 1
    19   16   18 2
    20   17   19 2
    21   18   21 1
    22   19   20 1
    23   20   21 2
    24   20   23 1
    25   21   24 1
    26   22   23 2
    27   22   24 1
    28    1   25 1
    29    2   26 1
    30    3   27 1
    31    7   28 1
    32    7   29 1
    33    8   30 1
    34    9   31 1
    35    9   32 1
    36   11   33 1
    37   12   34 1
    38   13   35 1
    39   15   36 1
    40   17   37 1
    41   18   38 1
    42   19   39 1
    43   22   40 1
    44   23   41 1
    45   24   42 1
@<TRIPOS>PROPERTY_DATA
  Total_Score	| 8.5415
  Crash		| -0.9542
  Polar		| 5.7280
  FragIndex	| 1
  FragRMSD	| 0.073

