@<TRIPOS>MOLECULE
BindingDB_15779
 33 35 0 0 0
SMALL
NO_CHARGES


@<TRIPOS>ATOM
1    C        67.7442   46.1279    8.5697  C     
2    C        66.8152   46.6718    7.6619  C     
3    C        66.8883   48.0463    7.3569  C     
4    C        68.7095   46.9536    9.1777  C     
5    C        68.7298   48.3319    8.8655  C     
6    N        66.0581   48.6093    6.4594  N     
7    N        67.8196   48.8154    7.9767  N     
8    C        69.6507   49.2822    9.5370  C     
9    C        70.4018   50.2703    8.6009  C     
10   C        71.4491   49.6721    7.7271  C     
11   C        71.0667   48.9552    6.5626  C     
12   C        72.8378   49.8744    7.9736  C     
13   C        73.8234   49.3635    7.0988  C     
14   C        72.0556   48.4601    5.6995  C     
15   C        73.4085   48.6637    5.9526  C     
16   C        74.0833   48.0802    4.9211  C     
17   C        73.1769   47.5358    4.1001  C     
18   N        71.9624   47.7599    4.5619  N     
19   H        67.6933   45.1266    8.8117  H     
20   H        66.1037   46.0697    7.2351  H     
21   H        69.3628   46.5442    9.8533  H     
22   H        66.1520   49.5477    6.2307  H     
23   H        65.4172   48.0705    5.9685  H     
24   H        69.0448   49.8739   10.2332  H     
25   H        70.3989   48.7470   10.1406  H     
26   H        69.6719   50.7853    7.9761  H     
27   H        70.8525   51.0328    9.2370  H     
28   H        70.0842   48.8202    6.3220  H     
29   H        73.1418   50.4026    8.7933  H     
30   H        74.8157   49.4992    7.2931  H     
31   H        75.0665   48.0589    4.7981  H     
32   H        73.3871   47.0340    3.2746  H     
33   H        71.1288   47.4603    4.1662  H     
@<TRIPOS>BOND
     1    1    2 2
     2    1    4 1
     3    2    3 1
     4    3    6 1
     5    3    7 2
     6    4    5 2
     7    5    7 1
     8    5    8 1
     9    8    9 1
    10    9   10 1
    11   10   11 1
    12   10   12 2
    13   11   14 2
    14   12   13 1
    15   13   15 2
    16   14   15 1
    17   14   18 1
    18   15   16 1
    19   16   17 2
    20   17   18 1
    21    1   19 1
    22    2   20 1
    23    4   21 1
    24    6   22 1
    25    6   23 1
    26    8   24 1
    27    8   25 1
    28    9   26 1
    29    9   27 1
    30   11   28 1
    31   12   29 1
    32   13   30 1
    33   16   31 1
    34   17   32 1
    35   18   33 1
@<TRIPOS>PROPERTY_DATA
  Total_Score	| 5.0723
  Crash		| -0.6732
  Polar		| 4.1460
  FragIndex	| 1
  FragRMSD	| 0.551

