@<TRIPOS>MOLECULE
BindingDB_15786
 56 60 0 0 0
SMALL
NO_CHARGES


@<TRIPOS>ATOM
1    C        65.9227   48.7633   10.4496  C     
2    C        65.3779   47.4974   10.7330  C     
3    C        64.8768   46.7220    9.6778  C     
4    C        65.9960   49.2496    9.1153  C     
5    C        65.4364   48.4367    8.1008  C     
6    N        64.9141   47.2242    8.4160  N     
7    N        65.4059   48.7825    6.7988  N     
8    N        66.6013   50.4219    8.7732  N     
9    C        67.3524   51.2960    9.6206  C     
10   C        68.7100   50.7484    9.9397  C     
11   C        70.3353   49.7940   11.5104  C     
12   C        69.0976   50.4103   11.2605  C     
13   C        69.6327   50.5112    8.8889  C     
14   C        70.8823   49.8871    9.1217  C     
15   C        71.2143   49.5288   10.4509  C     
16   C        71.7673   49.5627    8.0494  C     
17   C        73.1715   49.7475    8.1829  C     
18   C        71.2706   48.9770    6.8493  C     
19   C        74.0617   49.3256    7.1760  C     
20   C        73.5426   48.7486    6.0098  C     
21   C        72.1692   48.5791    5.8477  C     
22   C        73.1212   47.7599    4.0578  C     
23   C        74.1491   48.2325    4.8693  C     
24   N        71.9403   47.9804    4.6698  N     
25   O        68.2491   50.5720   12.3150  O     
26   C        67.9598   51.9406   12.6481  C     
27   C        66.6082   51.9579   13.2503  C     
28   C        64.9792   51.0169   14.8157  C     
29   C        64.0144   51.9345   14.3675  C     
30   C        64.3350   52.8627   13.3605  C     
31   C        65.6287   52.8704   12.7998  C     
32   C        66.2703   51.0292   14.2651  C     
33   H        66.2632   49.3138   11.2345  H     
34   H        65.3402   47.1474   11.6962  H     
35   H        64.4707   45.8006    9.8506  H     
36   H        64.9901   48.1848    6.1535  H     
37   H        65.7900   49.6126    6.4826  H     
38   H        66.5793   50.6661    7.8342  H     
39   H        67.4848   52.2321    9.0892  H     
40   H        66.7565   51.5193   10.5098  H     
41   H        70.5895   49.5133   12.4583  H     
42   H        69.3750   50.7761    7.9335  H     
43   H        72.0902   49.0485   10.6610  H     
44   H        73.5646   50.1839    9.0195  H     
45   H        70.2732   48.7981    6.7076  H     
46   H        75.0694   49.4261    7.3095  H     
47   H        73.2465   47.3077    3.1502  H     
48   H        75.1540   48.1914    4.6734  H     
49   H        71.0633   47.7255    4.3361  H     
50   H        68.7016   52.3112   13.3643  H     
51   H        67.9865   52.5941   11.7660  H     
52   H        64.7432   50.3448   15.5503  H     
53   H        63.0791   51.9235   14.7680  H     
54   H        63.6224   53.5158   13.0274  H     
55   H        65.8528   53.5249   12.0452  H     
56   H        66.9649   50.3606   14.5951  H     
@<TRIPOS>BOND
     1    1    2 2
     2    1    4 1
     3    2    3 1
     4    3    6 2
     5    4    5 2
     6    4    8 1
     7    5    6 1
     8    5    7 1
     9    8    9 1
    10    9   10 1
    11   10   12 1
    12   10   13 2
    13   11   12 2
    14   11   15 1
    15   12   25 1
    16   13   14 1
    17   14   15 2
    18   14   16 1
    19   16   17 1
    20   16   18 2
    21   17   19 2
    22   18   21 1
    23   19   20 1
    24   20   21 2
    25   20   23 1
    26   21   24 1
    27   22   23 2
    28   22   24 1
    29   25   26 1
    30   26   27 1
    31   27   31 1
    32   27   32 2
    33   28   29 2
    34   28   32 1
    35   29   30 1
    36   30   31 2
    37    1   33 1
    38    2   34 1
    39    3   35 1
    40    7   36 1
    41    7   37 1
    42    8   38 1
    43    9   39 1
    44    9   40 1
    45   11   41 1
    46   13   42 1
    47   15   43 1
    48   17   44 1
    49   18   45 1
    50   19   46 1
    51   22   47 1
    52   23   48 1
    53   24   49 1
    54   26   50 1
    55   26   51 1
    56   28   52 1
    57   29   53 1
    58   30   54 1
    59   31   55 1
    60   32   56 1
@<TRIPOS>PROPERTY_DATA
  Total_Score	| 9.7836
  Crash		| -1.4514
  Polar		| 5.7121
  FragIndex	| 1
  FragRMSD	| 0.130

