@<TRIPOS>MOLECULE
BindingDB_15787
 55 59 0 0 0
SMALL
NO_CHARGES


@<TRIPOS>ATOM
1    C        65.9688   48.8153   10.4463  C     
2    C        65.3570   47.5962   10.7746  C     
3    C        64.7974   46.8181    9.7516  C     
4    C        66.0255   49.2711    9.0927  C     
5    C        65.4188   48.4536    8.1174  C     
6    N        64.8402   47.2740    8.4766  N     
7    N        65.3832   48.7634    6.8012  N     
8    N        66.6285   50.4270    8.7058  N     
9    C        67.4130   51.3284    9.4796  C     
10   C        68.7285   50.7500    9.8843  C     
11   C        70.3049   49.8207   11.5149  C     
12   C        69.0938   50.4846   11.2242  C     
13   C        69.6565   50.4282    8.8547  C     
14   C        70.8866   49.7913    9.1352  C     
15   C        71.1890   49.4779   10.4811  C     
16   C        71.7726   49.4311    8.0731  C     
17   C        73.1761   49.6378    8.1933  C     
18   C        71.2727   48.8490    6.8795  C     
19   C        74.0618   49.2705    7.1589  C     
20   C        73.5330   48.7165    5.9813  C     
21   C        72.1627   48.5055    5.8496  C     
22   C        73.0875   47.7893    4.0026  C     
23   C        74.1230   48.2689    4.8051  C     
24   N        71.9209   47.9431    4.6555  N     
25   O        68.2403   50.7177   12.2674  O     
26   C        67.9334   52.0858   12.5992  C     
27   C        66.5688   52.0734   13.1647  C     
28   C        65.0734   51.0177   14.7046  C     
29   C        64.0549   51.9310   14.3877  C     
30   C        64.3007   52.9306   13.4310  C     
31   C        65.5577   52.9952   12.7945  C     
32   N        66.2776   51.1246   14.0933  N     
33   H        66.3647   49.3486   11.2104  H     
34   H        65.3295   47.2795   11.7486  H     
35   H        64.3525   45.9184    9.9606  H     
36   H        64.9878   48.1460    6.1659  H     
37   H        65.7460   49.5973    6.4657  H     
38   H        66.5180   50.6908    7.7757  H     
39   H        67.6193   52.2040    8.8640  H     
40   H        66.8085   51.6767   10.3225  H     
41   H        70.5303   49.5609   12.4785  H     
42   H        69.4077   50.6452    7.8866  H     
43   H        72.0441   48.9658   10.7195  H     
44   H        73.5653   50.0660    9.0367  H     
45   H        70.2755   48.6575    6.7517  H     
46   H        75.0688   49.3920    7.2739  H     
47   H        73.1955   47.3696    3.0790  H     
48   H        75.1185   48.2752    4.5731  H     
49   H        71.0459   47.6681    4.3357  H     
50   H        68.6404   52.4463   13.3527  H     
51   H        67.9842   52.7664   11.7427  H     
52   H        64.9210   50.2758   15.3900  H     
53   H        63.1457   51.8625   14.8490  H     
54   H        63.5696   53.6083   13.1934  H     
55   H        65.7330   53.7206   12.0977  H     
@<TRIPOS>BOND
     1    1    2 2
     2    1    4 1
     3    2    3 1
     4    3    6 2
     5    4    5 2
     6    4    8 1
     7    5    6 1
     8    5    7 1
     9    8    9 1
    10    9   10 1
    11   10   12 1
    12   10   13 2
    13   11   12 2
    14   11   15 1
    15   12   25 1
    16   13   14 1
    17   14   15 2
    18   14   16 1
    19   16   17 1
    20   16   18 2
    21   17   19 2
    22   18   21 1
    23   19   20 1
    24   20   21 2
    25   20   23 1
    26   21   24 1
    27   22   23 2
    28   22   24 1
    29   25   26 1
    30   26   27 1
    31   27   31 1
    32   27   32 2
    33   28   29 2
    34   28   32 1
    35   29   30 1
    36   30   31 2
    37    1   33 1
    38    2   34 1
    39    3   35 1
    40    7   36 1
    41    7   37 1
    42    8   38 1
    43    9   39 1
    44    9   40 1
    45   11   41 1
    46   13   42 1
    47   15   43 1
    48   17   44 1
    49   18   45 1
    50   19   46 1
    51   22   47 1
    52   23   48 1
    53   24   49 1
    54   26   50 1
    55   26   51 1
    56   28   52 1
    57   29   53 1
    58   30   54 1
    59   31   55 1
@<TRIPOS>PROPERTY_DATA
  Total_Score	| 10.2298
  Crash		| -1.2314
  Polar		| 5.7101
  FragIndex	| 1
  FragRMSD	| 0.109

