@<TRIPOS>MOLECULE
BindingDB_50380153
 37 38 0 0 0
SMALL
NO_CHARGES


@<TRIPOS>ATOM
1    S        -6.4286    1.6352   16.6390  S     
2    O        -6.3694    0.1010   16.2391  O     
3    O        -7.9813    1.9827   16.5732  O     
4    C        -3.1871    3.1047   14.6783  C     
5    C        -4.0157    2.2588   15.4366  C     
6    C        -5.3876    2.5719   15.5860  C     
7    C        -5.9105    3.6893   14.8900  C     
8    C        -5.0944    4.5319   14.0789  C     
9    C        -3.7064    4.2368   14.0572  C     
10   C        -5.6611    5.5944   13.3338  C     
11   C        -4.9500    6.4634   12.3888  C     
12   O        -6.8748    5.7611   13.3670  O     
13   S        -5.0026    5.8807   10.6697  S     
14   C        -4.2457    4.3333   10.8578  C     
15   N        -2.9151    4.2309   11.1078  N     
16   C        -2.3161    3.0325   11.3325  C     
17   C        -3.0988    1.8572   11.2976  C     
18   C        -4.4752    1.9749   11.0041  C     
19   N        -5.0030    3.2100   10.8078  N     
20   Cl       -3.3061    0.8866   16.1395  Cl    
21   N        -5.9712    1.6691   18.2491  N     
22   C        -5.3484    0.7867   10.9552  C     
23   C        -0.8896    3.0234   11.7037  C     
24   H        -2.1941    2.8771   14.5672  H     
25   H        -6.9119    3.8816   14.9734  H     
26   H        -3.0472    4.8314   13.5587  H     
27   H        -5.4285    7.4466   12.3757  H     
28   H        -3.9208    6.6501   12.6840  H     
29   H        -2.6866    0.9447   11.5050  H     
30   H        -6.2578    2.4076   18.8104  H     
31   H        -5.5917    0.8803   18.6660  H     
32   H        -4.9931    0.0897   10.1937  H     
33   H        -6.3754    1.0671   10.7166  H     
34   H        -5.3404    0.2919   11.9264  H     
35   H        -0.2929    3.4677   10.9061  H     
36   H        -0.5235    2.0112   11.8904  H     
37   H        -0.7574    3.6118   12.6137  H     
@<TRIPOS>BOND
     1    1    2 2
     2    1    3 2
     3    1    6 1
     4    1   21 am
     5    4    5 2
     6    4    9 1
     7    5    6 1
     8    5   20 1
     9    6    7 2
    10    7    8 1
    11    8    9 2
    12    8   10 1
    13   10   11 1
    14   10   12 2
    15   11   13 1
    16   13   14 1
    17   14   15 2
    18   14   19 1
    19   15   16 1
    20   16   17 2
    21   16   23 1
    22   17   18 1
    23   18   19 2
    24   18   22 1
    25    4   24 1
    26    7   25 1
    27    9   26 1
    28   11   27 1
    29   11   28 1
    30   17   29 1
    31   21   30 1
    32   21   31 1
    33   22   32 1
    34   22   33 1
    35   22   34 1
    36   23   35 1
    37   23   36 1
    38   23   37 1
@<TRIPOS>PROPERTY_DATA
  Total_Score	| 4.2181
  Crash		| -1.7817
  Polar		| 2.8109
  FragIndex	| 1
  FragRMSD	| 1.408

