@<TRIPOS>MOLECULE
BindingDB_50380142
 37 38 0 0 0
SMALL
NO_CHARGES


@<TRIPOS>ATOM
1    S        -5.9401    1.3424   16.5017  S     
2    O        -5.2468    0.9865   17.8889  O     
3    O        -6.0135   -0.0556   15.7583  O     
4    N        -7.5477    1.7779   16.7164  N     
5    C        -5.5443    3.0652   14.4024  C     
6    C        -4.9724    2.3717   15.4851  C     
7    C        -3.5958    2.5152   15.7395  C     
8    C        -2.8117    3.3605   14.9405  C     
9    C        -3.3617    4.0709   13.8406  C     
10   C        -4.7488    3.8988   13.5951  C     
11   C        -2.5814    4.9002   13.0202  C     
12   C        -1.1688    4.6486   12.7376  C     
13   O        -3.1362    5.8175   12.4216  O     
14   S        -0.3310    5.8423   11.6499  S     
15   C        -0.1441    7.1959   12.7316  C     
16   N        -0.8445    7.3005   13.8926  N     
17   C        -0.6711    8.3382   14.7477  C     
18   C         0.2604    9.3525   14.4499  C     
19   C         0.9550    9.2367   13.2279  C     
20   N         0.7416    8.1711   12.4104  N     
21   C         0.4972   10.4827   15.3898  C     
22   C        -0.0871   11.8111   14.8670  C     
23   H        -8.2419    1.2955   16.2427  H     
24   H        -7.7754    2.5339   17.2769  H     
25   H        -6.5382    2.9655   14.1928  H     
26   H        -3.1604    2.0135   16.5155  H     
27   H        -1.8231    3.4553   15.1902  H     
28   H        -5.1981    4.3676   12.8046  H     
29   H        -0.5891    4.6071   13.6595  H     
30   H        -1.0931    3.6694   12.2589  H     
31   H        -1.2275    8.3602   15.6027  H     
32   H         1.6393    9.9453   12.9454  H     
33   H         0.0465   10.2662   16.3608  H     
34   H         1.5721   10.5954   15.5540  H     
35   H         0.3792   12.0909   13.9234  H     
36   H         0.0966   12.6039   15.5936  H     
37   H        -1.1627   11.7180   14.7189  H     
@<TRIPOS>BOND
     1    1    2 2
     2    1    3 2
     3    1    4 am
     4    1    6 1
     5    5    6 2
     6    5   10 1
     7    6    7 1
     8    7    8 2
     9    8    9 1
    10    9   10 2
    11    9   11 1
    12   11   12 1
    13   11   13 2
    14   12   14 1
    15   14   15 1
    16   15   16 2
    17   15   20 1
    18   16   17 1
    19   17   18 2
    20   18   19 1
    21   18   21 1
    22   19   20 2
    23   21   22 1
    24    4   23 1
    25    4   24 1
    26    5   25 1
    27    7   26 1
    28    8   27 1
    29   10   28 1
    30   12   29 1
    31   12   30 1
    32   17   31 1
    33   19   32 1
    34   21   33 1
    35   21   34 1
    36   22   35 1
    37   22   36 1
    38   22   37 1
@<TRIPOS>PROPERTY_DATA
  Total_Score	| 5.0973
  Crash		| -1.1339
  Polar		| 2.9103
  FragIndex	| 1
  FragRMSD	| 0.935

