@<TRIPOS>MOLECULE
BindingDB_50380156
 48 50 0 0 0
SMALL
NO_CHARGES


@<TRIPOS>ATOM
1    S        -5.9392    1.3478   16.5537  S     
2    O        -5.2288    0.9484   17.9192  O     
3    O        -6.0060   -0.0188   15.7459  O     
4    N        -7.5461    1.7558   16.8055  N     
5    C        -5.6095    3.2333   14.5931  C     
6    C        -5.0012    2.4323   15.5742  C     
7    C        -3.6105    2.5127   15.7469  C     
8    C        -2.8414    3.4030   14.9777  C     
9    C        -3.4342    4.2283   13.9873  C     
10   C        -4.8399    4.1204   13.8134  C     
11   C        -2.6678    5.1087   13.1980  C     
12   C        -1.2603    4.8781   12.8677  C     
13   O        -3.2174    6.0710   12.6787  O     
14   S        -0.5472    5.9611   11.6000  S     
15   C         0.0262    7.2793   12.5780  C     
16   N        -0.5435    7.6729   13.7455  N     
17   C        -0.0429    8.6972   14.4393  C     
18   C         1.0611    9.4117   13.9905  C     
19   C         1.6120    9.0249   12.8011  C     
20   N         1.0939    7.9803   12.1311  N     
21   C         1.5717   10.5498   14.7872  C     
22   C         0.6753   11.7404   14.8016  C     
23   C         0.2325   12.3238   13.5885  C     
24   C        -0.5859   13.4679   13.5994  C     
25   C        -0.9434   14.0657   14.8168  C     
26   C        -0.4925   13.5136   16.0299  C     
27   C         0.3016   12.3530   16.0215  C     
28   O        -0.6127    8.9669   15.4908  O     
29   C         2.7400    9.6722   12.1498  C     
30   H        -8.2385    1.2468   16.3629  H     
31   H        -7.7660    2.6007   17.2222  H     
32   H        -6.6179    3.1756   14.4266  H     
33   H        -3.1357    1.9247   16.4356  H     
34   H        -1.8421    3.4416   15.1656  H     
35   H        -5.3235    4.6717   13.1019  H     
36   H        -0.6454    4.9466   13.7696  H     
37   H        -1.1694    3.8581   12.4896  H     
38   H        -1.3244    7.2108   14.0807  H     
39   H         1.7608   10.1923   15.8027  H     
40   H         2.5400   10.9090   14.4355  H     
41   H         0.4942   11.9141   12.6917  H     
42   H        -0.9181   13.8654   12.7161  H     
43   H        -1.5257   14.9078   14.8211  H     
44   H        -0.7464   13.9528   16.9167  H     
45   H         0.6192   11.9698   16.9139  H     
46   H         2.5267   10.7322   12.0012  H     
47   H         2.9607    9.2426   11.1689  H     
48   H         3.6343    9.5680   12.7671  H     
@<TRIPOS>BOND
     1    1    2 2
     2    1    3 2
     3    1    4 am
     4    1    6 1
     5    5    6 2
     6    5   10 1
     7    6    7 1
     8    7    8 2
     9    8    9 1
    10    9   10 2
    11    9   11 1
    12   11   12 1
    13   11   13 2
    14   12   14 1
    15   14   15 1
    16   15   16 1
    17   15   20 2
    18   16   17 1
    19   17   18 1
    20   17   28 2
    21   18   19 2
    22   18   21 1
    23   19   20 1
    24   19   29 1
    25   21   22 1
    26   22   23 2
    27   22   27 1
    28   23   24 1
    29   24   25 2
    30   25   26 1
    31   26   27 2
    32    4   30 1
    33    4   31 1
    34    5   32 1
    35    7   33 1
    36    8   34 1
    37   10   35 1
    38   12   36 1
    39   12   37 1
    40   16   38 1
    41   21   39 1
    42   21   40 1
    43   23   41 1
    44   24   42 1
    45   25   43 1
    46   26   44 1
    47   27   45 1
    48   29   46 1
    49   29   47 1
    50   29   48 1
@<TRIPOS>PROPERTY_DATA
  Total_Score	| 6.1780
  Crash		| -1.1971
  Polar		| 2.9432
  FragIndex	| 1
  FragRMSD	| 0.905

