@<TRIPOS>MOLECULE
BindingDB_50380149
 43 44 0 0 0
SMALL
NO_CHARGES


@<TRIPOS>ATOM
1    C        -2.6099    5.0396   13.1231  C     
2    C        -1.2013    4.7881   12.8382  C     
3    O        -3.1712    5.9566   12.5178  O     
4    S        -0.4179    5.9048   11.6418  S     
5    C        -0.0325    7.2812   12.6315  C     
6    N        -0.5840    7.5350   13.8588  N     
7    C        -0.1956    8.6199   14.5966  C     
8    C         0.8034    9.4976   14.0972  C     
9    C         1.3542    9.1821   12.8309  C     
10   N         0.9390    8.0938   12.1505  N     
11   C         1.3554   10.6374   14.8878  C     
12   C         0.3484   11.3387   15.8571  C     
13   C         1.0394   12.3887   16.7719  C     
14   C         0.3308   13.7724   16.7370  C     
15   S        -5.9323    1.3627   16.5060  S     
16   O        -5.2388    1.0065   17.8983  O     
17   O        -6.0155   -0.0447   15.7571  O     
18   N        -7.5287    1.7796   16.7834  N     
19   C        -5.5743    3.1806   14.4753  C     
20   C        -4.9887    2.4240   15.5114  C     
21   C        -3.6031    2.5349   15.7358  C     
22   C        -2.8230    3.4061   14.9599  C     
23   C        -3.3888    4.1883   13.9196  C     
24   C        -4.7850    4.0536   13.7035  C     
25   H        -0.6092    4.8437   13.7541  H     
26   H        -1.0908    3.7731   12.4456  H     
27   H        -0.5750    8.7801   15.5376  H     
28   H         2.1065    9.7410   12.4182  H     
29   H         2.2148   10.2680   15.4714  H     
30   H         1.7361   11.4332   14.2175  H     
31   H        -0.4387   11.8227   15.2531  H     
32   H        -0.1168   10.5701   16.4944  H     
33   H         1.0477   12.0140   17.8082  H     
34   H         2.0864   12.5339   16.4529  H     
35   H         0.4601   14.2256   15.7388  H     
36   H         0.7802   14.4344   17.4914  H     
37   H        -0.7362   13.6593   16.9485  H     
38   H        -8.2470    1.2550   16.3888  H     
39   H        -7.7398    2.5655   17.3145  H     
40   H        -6.5738    3.1074   14.2817  H     
41   H        -3.1560    1.9778   16.4650  H     
42   H        -1.8353    3.4784   15.1876  H     
43   H        -5.2563    4.5797   12.9686  H     
@<TRIPOS>BOND
     1    1    2 1
     2    1    3 2
     3    1   23 1
     4    2    4 1
     5    4    5 1
     6    5    6 2
     7    5   10 1
     8    6    7 1
     9    7    8 2
    10    8    9 1
    11    8   11 1
    12    9   10 2
    13   11   12 1
    14   12   13 1
    15   13   14 1
    16   15   16 2
    17   15   17 2
    18   15   18 am
    19   15   20 1
    20   19   20 2
    21   19   24 1
    22   20   21 1
    23   21   22 2
    24   22   23 1
    25   23   24 2
    26    2   25 1
    27    2   26 1
    28    7   27 1
    29    9   28 1
    30   11   29 1
    31   11   30 1
    32   12   31 1
    33   12   32 1
    34   13   33 1
    35   13   34 1
    36   14   35 1
    37   14   36 1
    38   14   37 1
    39   18   38 1
    40   18   39 1
    41   19   40 1
    42   21   41 1
    43   22   42 1
    44   24   43 1
@<TRIPOS>PROPERTY_DATA
  Total_Score	| 5.6740
  Crash		| -1.3297
  Polar		| 2.9130
  FragIndex	| 1
  FragRMSD	| 0.895

