@<TRIPOS>MOLECULE
BindingDB_50380143
 37 38 0 0 0
SMALL
NO_CHARGES


@<TRIPOS>ATOM
1    S        -5.9269    1.3448   16.5534  S     
2    O        -5.1975    0.9017   17.8961  O     
3    O        -6.0708    0.0052   15.7121  O     
4    N        -7.5110    1.8226   16.8310  N     
5    C        -5.5920    3.1518   14.5189  C     
6    C        -4.9833    2.4027   15.5520  C     
7    C        -3.5994    2.5381   15.7759  C     
8    C        -2.8342    3.4060   14.9900  C     
9    C        -3.4207    4.1586   13.9329  C     
10   C        -4.8179    4.0172   13.7287  C     
11   C        -2.6557    4.9855   13.1081  C     
12   C        -1.2857    4.6480   12.7386  C     
13   O        -3.1821    5.9882   12.6202  O     
14   S        -0.4789    5.7373   11.5212  S     
15   C         0.0099    7.0739   12.5252  C     
16   N        -0.5838    7.3963   13.7008  N     
17   C        -0.1857    8.4677   14.4396  C     
18   C         0.8706    9.2688   13.9688  C     
19   C         1.4857    8.9304   12.7441  C     
20   N         1.0267    7.8436   12.0673  N     
21   C         2.6132    9.7096   12.2011  C     
22   C        -0.8799    8.7291   15.7148  C     
23   H        -8.2369    1.2959   16.4618  H     
24   H        -7.6899    2.7129   17.1728  H     
25   H        -6.5978    3.0823   14.3540  H     
26   H        -3.1469    2.0225   16.5386  H     
27   H        -1.8411    3.5018   15.2078  H     
28   H        -5.2862    4.5323   12.9776  H     
29   H        -0.6555    4.5992   13.6242  H     
30   H        -1.3010    3.6555   12.2852  H     
31   H         1.1962   10.0834   14.5003  H     
32   H         2.3184   10.7476   12.0582  H     
33   H         2.9389    9.3086   11.2402  H     
34   H         3.4540    9.6674   12.8916  H     
35   H        -1.9345    8.9445   15.5209  H     
36   H        -0.4450    9.5808   16.2506  H     
37   H        -0.8049    7.8465   16.3551  H     
@<TRIPOS>BOND
     1    1    2 2
     2    1    3 2
     3    1    4 am
     4    1    6 1
     5    5    6 2
     6    5   10 1
     7    6    7 1
     8    7    8 2
     9    8    9 1
    10    9   10 2
    11    9   11 1
    12   11   12 1
    13   11   13 2
    14   12   14 1
    15   14   15 1
    16   15   16 2
    17   15   20 1
    18   16   17 1
    19   17   18 2
    20   17   22 1
    21   18   19 1
    22   19   20 2
    23   19   21 1
    24    4   23 1
    25    4   24 1
    26    5   25 1
    27    7   26 1
    28    8   27 1
    29   10   28 1
    30   12   29 1
    31   12   30 1
    32   18   31 1
    33   21   32 1
    34   21   33 1
    35   21   34 1
    36   22   35 1
    37   22   36 1
    38   22   37 1
@<TRIPOS>PROPERTY_DATA
  Total_Score	| 6.1474
  Crash		| -0.9582
  Polar		| 2.9847
  FragIndex	| 1
  FragRMSD	| 0.849

