@<TRIPOS>MOLECULE
BindingDB_50380158
 35 36 0 0 0
SMALL
NO_CHARGES


@<TRIPOS>ATOM
1    O        -5.6284   -0.2450   15.7333  O     
2    S        -4.4033    0.6439   15.2519  S     
3    O        -3.2258    0.3782   16.2830  O     
4    C        -4.6681    2.3552   15.0181  C     
5    C        -5.7756    3.0764   15.5312  C     
6    C        -5.9447    4.4258   15.1615  C     
7    C        -5.0175    5.0617   14.3224  C     
8    C        -3.8512    4.3959   13.8637  C     
9    C        -3.7179    3.0278   14.2228  C     
10   C        -2.9029    5.0634   13.0639  C     
11   O        -3.2610    6.0637   12.4497  O     
12   C        -1.5081    4.6363   12.9309  C     
13   S        -0.4108    5.5861   11.8314  S     
14   C        -0.0198    7.0265   12.7375  C     
15   N         0.9369    7.8352   12.2171  N     
16   C         1.2991    8.9910   12.8123  C     
17   C         0.6867    9.3719   13.9535  C     
18   C        -0.2644    8.5584   14.5022  C     
19   N        -0.6188    7.4249   13.8941  N     
20   O        -0.8105    8.8507   15.5529  O     
21   C         2.3465    9.7653   12.1816  C     
22   Cl       -6.9315    2.4416   16.6077  Cl    
23   N        -3.9888   -0.0765   13.7942  N     
24   H        -6.7481    4.9562   15.5117  H     
25   H        -5.1903    6.0415   14.0898  H     
26   H        -2.9253    2.4970   13.8765  H     
27   H        -1.0445    4.5767   13.9205  H     
28   H        -1.5072    3.6211   12.5065  H     
29   H         0.9201   10.2244   14.3956  H     
30   H        -1.3017    6.8721   14.2996  H     
31   H         3.2665    9.1697   12.1422  H     
32   H         2.5665   10.6952   12.7164  H     
33   H         2.0524   10.0238   11.1574  H     
34   H        -3.1776    0.1878   13.3262  H     
35   H        -4.6275   -0.6491   13.3344  H     
@<TRIPOS>BOND
     1    1    2 2
     2    2    3 2
     3    2    4 1
     4    2   23 am
     5    4    5 1
     6    4    9 2
     7    5    6 2
     8    5   22 1
     9    6    7 1
    10    7    8 2
    11    8    9 1
    12    8   10 1
    13   10   11 2
    14   10   12 1
    15   12   13 1
    16   13   14 1
    17   14   15 2
    18   14   19 1
    19   15   16 1
    20   16   17 2
    21   16   21 1
    22   17   18 1
    23   18   19 1
    24   18   20 2
    25    6   24 1
    26    7   25 1
    27    9   26 1
    28   12   27 1
    29   12   28 1
    30   17   29 1
    31   19   30 1
    32   21   31 1
    33   21   32 1
    34   21   33 1
    35   23   34 1
    36   23   35 1
@<TRIPOS>PROPERTY_DATA
  Total_Score	| 2.9862
  Crash		| -1.2983
  Polar		| 2.0689
  FragIndex	| 1
  FragRMSD	| 0.622

