@<TRIPOS>MOLECULE
BindingDB_50380140
 31 32 0 0 0
SMALL
NO_CHARGES


@<TRIPOS>ATOM
1    S        -4.9728    1.1975   16.3539  S     
2    O        -3.4624    0.8654   16.7244  O     
3    O        -5.4164   -0.0263   15.4402  O     
4    C        -5.9835    4.9087   15.0056  C     
5    C        -6.0093    3.6975   15.7232  C     
6    C        -4.9982    2.7311   15.5016  C     
7    C        -3.9759    3.0085   14.5632  C     
8    C        -3.9514    4.2209   13.8165  C     
9    C        -4.9828    5.1562   14.0583  C     
10   C        -2.9456    4.5341   12.8966  C     
11   C        -1.5297    4.2935   13.1339  C     
12   O        -3.2738    5.0531   11.8287  O     
13   S        -0.3857    5.2224   12.0666  S     
14   C        -0.2342    6.7749   12.8515  C     
15   N        -0.9085    7.1261   13.9789  N     
16   C        -0.7056    8.3236   14.5923  C     
17   C         0.2313    9.2296   14.0704  C     
18   C         0.9092    8.8608   12.8964  C     
19   N         0.6623    7.6530   12.3245  N     
20   Cl       -7.2742    3.5228   16.8390  Cl    
21   N        -5.8236    1.0566   17.7965  N     
22   H        -6.6868    5.6302   15.1777  H     
23   H        -3.2457    2.3126   14.4008  H     
24   H        -4.9946    6.0570   13.5679  H     
25   H        -1.2743    4.5325   14.1691  H     
26   H        -1.3334    3.2294   12.9814  H     
27   H        -1.2282    8.5558   15.4364  H     
28   H         0.4183   10.1237   14.5288  H     
29   H         1.5938    9.4939   12.4745  H     
30   H        -6.7898    0.9538   17.7793  H     
31   H        -5.3751    1.1957   18.6464  H     
@<TRIPOS>BOND
     1    1    2 2
     2    1    3 2
     3    1    6 1
     4    1   21 am
     5    4    5 2
     6    4    9 1
     7    5    6 1
     8    5   20 1
     9    6    7 2
    10    7    8 1
    11    8    9 2
    12    8   10 1
    13   10   11 1
    14   10   12 2
    15   11   13 1
    16   13   14 1
    17   14   15 2
    18   14   19 1
    19   15   16 1
    20   16   17 2
    21   17   18 1
    22   18   19 2
    23    4   22 1
    24    7   23 1
    25    9   24 1
    26   11   25 1
    27   11   26 1
    28   16   27 1
    29   17   28 1
    30   18   29 1
    31   21   30 1
    32   21   31 1
@<TRIPOS>PROPERTY_DATA
  Total_Score	| 3.1957
  Crash		| -2.1060
  Polar		| 2.5236
  FragIndex	| 1
  FragRMSD	| 0.853

