@<TRIPOS>MOLECULE
BindingDB_50380147
 33 34 0 0 0
SMALL
NO_CHARGES


@<TRIPOS>ATOM
1    S        -5.9364    1.2926   16.5869  S     
2    O        -5.2279    1.0281   17.9872  O     
3    O        -5.9972   -0.1370   15.8873  O     
4    N        -7.5502    1.6847   16.8440  N     
5    C        -3.6549    2.4754   15.7561  C     
6    C        -5.0461    2.3677   15.5670  C     
7    C        -5.6714    3.1448   14.5722  C     
8    C        -4.9105    4.0163   13.7793  C     
9    C        -3.5060    4.1532   13.9518  C     
10   C        -2.9095    3.3438   14.9642  C     
11   C        -2.7458    5.0385   13.1743  C     
12   C        -1.2723    4.9941   13.1386  C     
13   O        -3.3068    5.8855   12.4765  O     
14   S        -0.4013    6.3084   12.2716  S     
15   C        -0.3356    7.5780   13.4849  C     
16   C        -1.1996    7.6097   14.5920  C     
17   C        -1.0959    8.6690   15.5446  C     
18   C        -0.1496    9.6874   15.3644  C     
19   C         0.6993    9.6756   14.2402  C     
20   C         0.6188    8.6135   13.3111  C     
21   H        -8.2400    1.2608   16.3073  H     
22   H        -7.7791    2.4074   17.4489  H     
23   H        -3.1855    1.9202   16.4748  H     
24   H        -6.6806    3.1016   14.4353  H     
25   H        -5.3954    4.5900   13.0750  H     
26   H        -1.9008    3.3859   15.1323  H     
27   H        -0.9065    5.0105   14.1846  H     
28   H        -0.9507    4.0555   12.6596  H     
29   H        -1.9202    6.9242   14.7347  H     
30   H        -1.7233    8.6993   16.3474  H     
31   H        -0.0639   10.4498   16.0475  H     
32   H         1.3648   10.4388   14.0737  H     
33   H         1.2577    8.6048   12.5043  H     
@<TRIPOS>BOND
     1    1    2 2
     2    1    3 2
     3    1    4 am
     4    1    6 1
     5    5    6 2
     6    5   10 1
     7    6    7 1
     8    7    8 2
     9    8    9 1
    10    9   10 2
    11    9   11 1
    12   11   12 1
    13   11   13 2
    14   12   14 1
    15   14   15 1
    16   15   16 2
    17   15   20 1
    18   16   17 1
    19   17   18 2
    20   18   19 1
    21   19   20 2
    22    4   21 1
    23    4   22 1
    24    5   23 1
    25    7   24 1
    26    8   25 1
    27   10   26 1
    28   12   27 1
    29   12   28 1
    30   16   29 1
    31   17   30 1
    32   18   31 1
    33   19   32 1
    34   20   33 1
@<TRIPOS>PROPERTY_DATA
  Total_Score	| 5.2312
  Crash		| -1.4457
  Polar		| 2.7184
  FragIndex	| 1
  FragRMSD	| 1.075

