@<TRIPOS>MOLECULE
BindingDB_50380150
 40 41 0 0 0
SMALL
NO_CHARGES


@<TRIPOS>ATOM
1    S        -5.8479    1.3493   16.4121  S     
2    O        -5.1094    1.0329   17.7813  O     
3    O        -5.8329   -0.0464   15.6530  O     
4    N        -7.4738    1.6287   16.7302  N     
5    C        -5.7496    3.3964   14.6038  C     
6    C        -5.0205    2.5161   15.4223  C     
7    C        -3.6126    2.6122   15.4379  C     
8    C        -2.9508    3.5668   14.6449  C     
9    C        -3.6849    4.4506   13.8188  C     
10   C        -5.0938    4.3641   13.8250  C     
11   C        -3.0400    5.4110   13.0600  C     
12   C        -2.2405    5.1041   11.8824  C     
13   O        -3.2970    6.5982   13.2708  O     
14   S        -0.4382    5.1597   12.1310  S     
15   C        -0.1884    6.7579   12.7625  C     
16   N         0.7192    7.5934   12.1950  N     
17   C         0.9528    8.8356   12.6979  C     
18   C         0.2451    9.2977   13.8356  C     
19   C        -0.6734    8.3996   14.4088  C     
20   N        -0.8812    7.1645   13.8570  N     
21   C         0.3702   10.6817   14.3672  C     
22   C         0.6664   10.7678   15.8890  C     
23   C         0.5574   12.2099   16.4329  C     
24   H        -8.1584    1.1803   16.2086  H     
25   H        -7.7279    2.2359   17.4421  H     
26   H        -6.7688    3.3336   14.5561  H     
27   H        -3.0576    1.9833   16.0225  H     
28   H        -1.9279    3.6312   14.6940  H     
29   H        -5.6557    4.9934   13.2415  H     
30   H        -2.4829    4.1007   11.5248  H     
31   H        -2.4914    5.7930   11.0761  H     
32   H         1.6364    9.4273   12.2224  H     
33   H        -1.2370    8.6670   15.2126  H     
34   H         1.1660   11.2333   13.8371  H     
35   H        -0.5789   11.1982   14.1599  H     
36   H        -0.0393   10.1439   16.4357  H     
37   H         1.6745   10.3883   16.0892  H     
38   H         1.3321   12.8384   15.9929  H     
39   H         0.6811   12.2133   17.5158  H     
40   H        -0.4203   12.6288   16.1904  H     
@<TRIPOS>BOND
     1    1    2 2
     2    1    3 2
     3    1    4 am
     4    1    6 1
     5    5    6 2
     6    5   10 1
     7    6    7 1
     8    7    8 2
     9    8    9 1
    10    9   10 2
    11    9   11 1
    12   11   12 1
    13   11   13 2
    14   12   14 1
    15   14   15 1
    16   15   16 2
    17   15   20 1
    18   16   17 1
    19   17   18 2
    20   18   19 1
    21   18   21 1
    22   19   20 2
    23   21   22 1
    24   22   23 1
    25    4   24 1
    26    4   25 1
    27    5   26 1
    28    7   27 1
    29    8   28 1
    30   10   29 1
    31   12   30 1
    32   12   31 1
    33   17   32 1
    34   19   33 1
    35   21   34 1
    36   21   35 1
    37   22   36 1
    38   22   37 1
    39   23   38 1
    40   23   39 1
    41   23   40 1
@<TRIPOS>PROPERTY_DATA
  Total_Score	| 5.1681
  Crash		| -0.8883
  Polar		| 3.0568
  FragIndex	| 1
  FragRMSD	| 1.025

