@<TRIPOS>MOLECULE
BindingDB_50380157
 35 36 0 0 0
SMALL
NO_CHARGES


@<TRIPOS>ATOM
1    O        -5.1617    1.0009   17.8128  O     
2    S        -5.8959    1.3525   16.4491  S     
3    O        -5.9048   -0.0155   15.6424  O     
4    C        -5.0365    2.5092   15.4812  C     
5    C        -5.7350    3.3968   14.6353  C     
6    C        -5.0406    4.3528   13.8854  C     
7    C        -3.6221    4.4440   13.9360  C     
8    C        -2.9322    3.5368   14.7811  C     
9    C        -3.6272    2.5837   15.5396  C     
10   C        -2.9500    5.4173   13.2006  C     
11   O        -3.1691    6.5977   13.4522  O     
12   C        -2.2570    5.1219   11.9525  C     
13   S        -0.4456    5.1378   12.0720  S     
14   C        -0.1963    6.7263   12.7215  C     
15   N         0.6609    7.5709   12.0970  N     
16   C         0.9631    8.7761   12.6109  C     
17   C         0.4376    9.1429   13.8048  C     
18   C        -0.4328    8.2959   14.4401  C     
19   N        -0.7461    7.1150   13.9032  N     
20   O        -0.9137    8.5879   15.5233  O     
21   C         1.8849    9.6102   11.8696  C     
22   N        -7.5183    1.6670   16.7313  N     
23   H        -6.7551    3.3489   14.5563  H     
24   H        -5.5814    4.9919   13.2903  H     
25   H        -1.9154    3.5943   14.8768  H     
26   H        -3.1031    1.9470   16.1493  H     
27   H        -2.5584    4.1202   11.6056  H     
28   H        -2.5545    5.8261   11.1637  H     
29   H         0.6699   10.0190   14.2197  H     
30   H        -1.3244    6.5176   14.3872  H     
31   H         2.8220    9.0632   11.7032  H     
32   H         2.1181   10.5435   12.3897  H     
33   H         1.4467    9.8605   10.8953  H     
34   H        -8.1995    1.1067   16.3164  H     
35   H        -7.7858    2.4593   17.2239  H     
@<TRIPOS>BOND
     1    1    2 2
     2    2    3 2
     3    2    4 1
     4    2   22 am
     5    4    5 1
     6    4    9 2
     7    5    6 2
     8    6    7 1
     9    7    8 2
    10    7   10 1
    11    8    9 1
    12   10   11 2
    13   10   12 1
    14   12   13 1
    15   13   14 1
    16   14   15 2
    17   14   19 1
    18   15   16 1
    19   16   17 2
    20   16   21 1
    21   17   18 1
    22   18   19 1
    23   18   20 2
    24    5   23 1
    25    6   24 1
    26    8   25 1
    27    9   26 1
    28   12   27 1
    29   12   28 1
    30   17   29 1
    31   19   30 1
    32   21   31 1
    33   21   32 1
    34   21   33 1
    35   22   34 1
    36   22   35 1
@<TRIPOS>PROPERTY_DATA
  Total_Score	| 4.4631
  Crash		| -0.9894
  Polar		| 3.0363
  FragIndex	| 1
  FragRMSD	| 1.016

