@<TRIPOS>MOLECULE
BindingDB_50380146
 44 45 0 0 0
SMALL
NO_CHARGES


@<TRIPOS>ATOM
1    S        -4.8213    1.1895   16.2291  S     
2    O        -3.3178    0.8373   16.6184  O     
3    O        -5.3080   -0.0399   15.3407  O     
4    C        -5.9487    4.8125   14.7610  C     
5    C        -5.9466    3.6215   15.5060  C     
6    C        -4.8829    2.6969   15.3443  C     
7    C        -3.8221    3.0219   14.4594  C     
8    C        -3.7998    4.2334   13.7088  C     
9    C        -4.9056    5.1039   13.8741  C     
10   C        -2.7413    4.5915   12.8419  C     
11   C        -1.4083    3.9960   12.8966  C     
12   O        -2.8937    5.5118   12.0420  O     
13   S        -0.1389    4.6628   11.7701  S     
14   C         0.1649    6.2365   12.4486  C     
15   N        -0.7111    6.8536   13.2848  N     
16   C        -0.4578    8.0807   13.8220  C     
17   C         0.7063    8.6984   13.4915  C     
18   C         1.5729    8.1033   12.6139  C     
19   N         1.3066    6.8967   12.1152  N     
20   Cl       -7.2462    3.4052   16.5754  Cl    
21   N        -5.7004    1.0557   17.6569  N     
22   O         2.5913    8.6744   12.2593  O     
23   C        -1.4693    8.6954   14.7239  C     
24   C        -1.8961   10.1043   14.1953  C     
25   C        -2.7756    7.8319   14.8402  C     
26   C        -0.8834    8.8195   16.1652  C     
27   H        -6.7024    5.4924   14.8770  H     
28   H        -3.0617    2.3516   14.3515  H     
29   H        -4.9595    5.9948   13.3707  H     
30   H        -1.0225    4.0687   13.9150  H     
31   H        -1.4982    2.9396   12.6366  H     
32   H         0.9395    9.5848   13.8764  H     
33   H         1.9365    6.4848   11.4989  H     
34   H        -6.6207    0.7521   17.6293  H     
35   H        -5.3506    1.4361   18.4780  H     
36   H        -1.0663   10.8061   14.2109  H     
37   H        -2.6947   10.5262   14.8052  H     
38   H        -2.2577   10.0308   13.1663  H     
39   H        -3.2582    7.7358   13.8646  H     
40   H        -3.4936    8.2883   15.5239  H     
41   H        -2.5551    6.8278   15.2159  H     
42   H        -0.5894    7.8338   16.5441  H     
43   H        -1.6300    9.2294   16.8484  H     
44   H        -0.0089    9.4743   16.1902  H     
@<TRIPOS>BOND
     1    1    2 2
     2    1    3 2
     3    1    6 1
     4    1   21 am
     5    4    5 2
     6    4    9 1
     7    5    6 1
     8    5   20 1
     9    6    7 2
    10    7    8 1
    11    8    9 2
    12    8   10 1
    13   10   11 1
    14   10   12 2
    15   11   13 1
    16   13   14 1
    17   14   15 2
    18   14   19 1
    19   15   16 1
    20   16   17 2
    21   16   23 1
    22   17   18 1
    23   18   19 1
    24   18   22 2
    25   23   24 1
    26   23   25 1
    27   23   26 1
    28    4   27 1
    29    7   28 1
    30    9   29 1
    31   11   30 1
    32   11   31 1
    33   17   32 1
    34   19   33 1
    35   21   34 1
    36   21   35 1
    37   24   36 1
    38   24   37 1
    39   24   38 1
    40   25   39 1
    41   25   40 1
    42   25   41 1
    43   26   42 1
    44   26   43 1
    45   26   44 1
@<TRIPOS>PROPERTY_DATA
  Total_Score	| 4.8146
  Crash		| -3.6453
  Polar		| 2.2715
  FragIndex	| 1
  FragRMSD	| 0.945

