@<TRIPOS>MOLECULE
BindingDB_50380154
 41 42 0 0 0
SMALL
NO_CHARGES


@<TRIPOS>ATOM
1    C        -2.8087    4.8623   13.3855  C     
2    C        -1.3899    4.6228   13.1381  C     
3    O        -3.3400    5.8575   12.8628  O     
4    S        -0.5447    5.6400   11.8921  S     
5    C        -0.1148    7.0749   12.7960  C     
6    N         0.8739    7.8579   12.3004  N     
7    C         1.2582    8.9818   12.9173  C     
8    C         0.6780    9.3836   14.0827  C     
9    C        -0.3391    8.5934   14.5806  C     
10   N        -0.7248    7.4745   13.9368  N     
11   O        -0.9784    8.8483   15.5879  O     
12   C         1.1191   10.5470   14.7410  C     
13   O         2.1317   11.2981   14.2290  O     
14   O         0.5673   10.9378   15.9146  O     
15   C         0.8450   12.1080   16.7100  C     
16   C         0.0960   13.3421   16.1743  C     
17   S        -6.2718    1.3302   16.7839  S     
18   O        -6.1126   -0.1858   16.3226  O     
19   O        -7.8280    1.5925   16.5859  O     
20   N        -5.9891    1.3686   18.4426  N     
21   C        -3.8799    2.3486   15.9550  C     
22   C        -5.2794    2.3860   15.8174  C     
23   C        -5.8517    3.2615   14.8799  C     
24   C        -5.0322    4.0926   14.0980  C     
25   C        -3.6205    4.0657   14.2015  C     
26   C        -3.0648    3.1723   15.1644  C     
27   H        -0.8342    4.6882   14.0835  H     
28   H        -1.3032    3.5888   12.7730  H     
29   H         1.9798    9.5057   12.4858  H     
30   H        -1.4469    6.9657   14.3069  H     
31   H         0.5102   11.9002   17.7263  H     
32   H         1.9209   12.2953   16.7545  H     
33   H         0.3992   13.5456   15.1512  H     
34   H         0.3202   14.2117   16.7901  H     
35   H        -0.9758   13.1637   16.1972  H     
36   H        -6.6144    1.8443   19.0205  H     
37   H        -5.3351    0.7726   18.8578  H     
38   H        -3.4418    1.7133   16.6293  H     
39   H        -6.8666    3.3018   14.7474  H     
40   H        -5.4959    4.7096   13.4185  H     
41   H        -2.0599    3.1419   15.3327  H     
@<TRIPOS>BOND
     1    1    2 1
     2    1    3 2
     3    1   25 1
     4    2    4 1
     5    4    5 1
     6    5    6 2
     7    5   10 1
     8    6    7 1
     9    7    8 2
    10    8    9 1
    11    8   12 1
    12    9   10 1
    13    9   11 2
    14   12   13 2
    15   12   14 1
    16   14   15 1
    17   15   16 1
    18   17   18 2
    19   17   19 2
    20   17   20 am
    21   17   22 1
    22   21   22 2
    23   21   26 1
    24   22   23 1
    25   23   24 2
    26   24   25 1
    27   25   26 2
    28    2   27 1
    29    2   28 1
    30    7   29 1
    31   10   30 1
    32   15   31 1
    33   15   32 1
    34   16   33 1
    35   16   34 1
    36   16   35 1
    37   20   36 1
    38   20   37 1
    39   21   38 1
    40   23   39 1
    41   24   40 1
    42   26   41 1
@<TRIPOS>PROPERTY_DATA
  Total_Score	| 5.1677
  Crash		| -1.3764
  Polar		| 2.2184
  FragIndex	| 1
  FragRMSD	| 0.868

