@<TRIPOS>MOLECULE
BindingDB_50380148
 31 32 0 0 0
SMALL
NO_CHARGES


@<TRIPOS>ATOM
1    S        -5.8980    1.4081   16.4888  S     
2    O        -5.1190    1.0797   17.8347  O     
3    O        -6.0103    0.0174   15.7331  O     
4    N        -7.4815    1.8563   16.8166  N     
5    C        -3.6073    2.5660   15.5680  C     
6    C        -5.0074    2.4653   15.4332  C     
7    C        -5.6743    3.2634   14.4794  C     
8    C        -4.9547    4.1934   13.7069  C     
9    C        -3.5596    4.3409   13.8880  C     
10   C        -2.8886    3.5076   14.8112  C     
11   C        -2.8717    5.3715   13.2810  C     
12   C        -2.2744    5.2760   11.9609  C     
13   O        -3.0044    6.4711   13.8014  O     
14   S        -0.4657    5.2076   12.0389  S     
15   C        -0.0722    6.7535   12.7364  C     
16   N         0.9686    7.4524   12.2185  N     
17   C         1.3619    8.6410   12.7446  C     
18   C         0.6907    9.1758   13.8595  C     
19   C        -0.3756    8.4352   14.3931  C     
20   N        -0.7195    7.2529   13.8228  N     
21   H        -8.2099    1.3166   16.4704  H     
22   H        -7.6647    2.7455   17.1549  H     
23   H        -3.1066    1.9887   16.2483  H     
24   H        -6.6886    3.1970   14.3627  H     
25   H        -5.4639    4.7938   13.0508  H     
26   H        -1.8793    3.6003   14.9646  H     
27   H        -2.5995    4.3596   11.4637  H     
28   H        -2.5895    6.1127   11.3334  H     
29   H         2.1497    9.1391   12.3275  H     
30   H         0.9733   10.0676   14.2714  H     
31   H        -0.8910    8.7792   15.2052  H     
@<TRIPOS>BOND
     1    1    2 2
     2    1    3 2
     3    1    4 am
     4    1    6 1
     5    5    6 2
     6    5   10 1
     7    6    7 1
     8    7    8 2
     9    8    9 1
    10    9   10 2
    11    9   11 1
    12   11   12 1
    13   11   13 2
    14   12   14 1
    15   14   15 1
    16   15   16 2
    17   15   20 1
    18   16   17 1
    19   17   18 2
    20   18   19 1
    21   19   20 2
    22    4   21 1
    23    4   22 1
    24    5   23 1
    25    7   24 1
    26    8   25 1
    27   10   26 1
    28   12   27 1
    29   12   28 1
    30   17   29 1
    31   18   30 1
    32   19   31 1
@<TRIPOS>PROPERTY_DATA
  Total_Score	| 4.3454
  Crash		| -0.7867
  Polar		| 3.1490
  FragIndex	| 1
  FragRMSD	| 1.020

