@<TRIPOS>MOLECULE
BindingDB_50380145
 41 42 0 0 0
SMALL
NO_CHARGES


@<TRIPOS>ATOM
1    S        -6.1108    1.3938   16.6837  S     
2    O        -5.6363    1.4072   18.2011  O     
3    O        -5.9575   -0.1147   16.2126  O     
4    N        -7.7635    1.6764   16.6483  N     
5    C        -3.7462    2.4417   15.8159  C     
6    C        -5.1449    2.4123   15.6584  C     
7    C        -5.7393    3.2124   14.6626  C     
8    C        -4.9451    4.0230   13.8347  C     
9    C        -3.5314    4.0571   13.9621  C     
10   C        -2.9575    3.2581   14.9871  C     
11   C        -2.7440    4.8277   13.0880  C     
12   C        -1.3171    4.5805   12.8697  C     
13   O        -3.2846    5.7141   12.4350  O     
14   S        -0.5560    5.4381   11.4588  S     
15   C         0.2628    6.7435   12.2585  C     
16   N        -0.3157    7.5201   13.2143  N     
17   C         0.3594    8.5349   13.8088  C     
18   C         1.6348    8.7952   13.4314  C     
19   C         2.2087    8.0414   12.4434  C     
20   N         1.5332    7.0396   11.8779  N     
21   O         3.3449    8.2724   12.0464  O     
22   C        -0.3619    9.3767   14.7589  C     
23   C        -1.2265    8.6350   15.8218  C     
24   C        -2.4282    7.8650   15.2291  C     
25   H        -8.3387    1.1256   16.0924  H     
26   H        -8.1363    2.4260   17.1382  H     
27   H        -3.2912    1.8747   16.5380  H     
28   H        -6.7538    3.2055   14.5280  H     
29   H        -5.4223    4.5711   13.1126  H     
30   H        -1.9505    3.2654   15.1584  H     
31   H        -0.7595    4.8056   13.7863  H     
32   H        -1.1853    3.5125   12.6652  H     
33   H         2.1441    9.5542   13.8314  H     
34   H         1.9436    6.5250   11.1574  H     
35   H         0.3336   10.0294   15.3181  H     
36   H        -1.0213   10.0369   14.1869  H     
37   H        -0.6045    7.9421   16.3948  H     
38   H        -1.6248    9.3745   16.5206  H     
39   H        -2.9078    8.4412   14.4367  H     
40   H        -3.1707    7.6433   16.0001  H     
41   H        -2.0849    6.9141   14.8071  H     
@<TRIPOS>BOND
     1    1    2 2
     2    1    3 2
     3    1    4 am
     4    1    6 1
     5    5    6 2
     6    5   10 1
     7    6    7 1
     8    7    8 2
     9    8    9 1
    10    9   10 2
    11    9   11 1
    12   11   12 1
    13   11   13 2
    14   12   14 1
    15   14   15 1
    16   15   16 2
    17   15   20 1
    18   16   17 1
    19   17   18 2
    20   17   22 1
    21   18   19 1
    22   19   20 1
    23   19   21 2
    24   22   23 1
    25   23   24 1
    26    4   25 1
    27    4   26 1
    28    5   27 1
    29    7   28 1
    30    8   29 1
    31   10   30 1
    32   12   31 1
    33   12   32 1
    34   18   33 1
    35   20   34 1
    36   22   35 1
    37   22   36 1
    38   23   37 1
    39   23   38 1
    40   24   39 1
    41   24   40 1
    42   24   41 1
@<TRIPOS>PROPERTY_DATA
  Total_Score	| 5.4851
  Crash		| -2.0786
  Polar		| 2.3025
  FragIndex	| 1
  FragRMSD	| 1.485

