@<TRIPOS>MOLECULE
BindingDB_16652
 31 32 0 0 0
SMALL
NO_CHARGES


@<TRIPOS>ATOM
1    C        -5.3364    2.3373   15.8466  C     
2    C        -6.0555    3.4736   15.4140  C     
3    C        -5.3589    4.5879   14.8878  C     
4    C        -3.9394    4.5622   14.7291  C     
5    C        -3.2492    3.3917   15.1278  C     
6    C        -3.9313    2.2901   15.6847  C     
7    S        -6.1012    1.0097   16.6946  S     
8    O        -5.9190   -0.2662   15.7567  O     
9    O        -5.3407    0.6992   18.0617  O     
10   N        -7.7664    1.0892   16.9226  N     
11   N        -3.1700    5.5858   14.2449  N     
12   C        -3.4824    6.6508   13.5110  C     
13   O        -4.6609    6.7579   13.1379  O     
14   C        -2.5456    7.6175   13.1424  C     
15   C        -1.8844    9.4642   11.6520  C     
16   C        -2.7940    8.4566   12.0207  C     
17   C        -1.3422    7.8146   13.8724  C     
18   C        -0.4364    8.8282   13.5035  C     
19   C        -0.7026    9.6523   12.3946  C     
20   H        -7.0807    3.5092   15.5297  H     
21   H        -5.9092    5.4274   14.6227  H     
22   H        -2.2239    3.3538   15.0535  H     
23   H        -3.3895    1.4745   16.0077  H     
24   H        -8.2887    0.2774   16.7933  H     
25   H        -8.2185    1.9612   17.0322  H     
26   H        -2.2358    5.4863   14.4421  H     
27   H        -2.0791   10.0531   10.8395  H     
28   H        -3.6432    8.3390   11.4531  H     
29   H        -1.1260    7.2535   14.7065  H     
30   H         0.4264    8.9645   14.0359  H     
31   H        -0.0475   10.3964   12.1250  H     
@<TRIPOS>BOND
     1    1    2 1
     2    1    6 2
     3    1    7 1
     4    2    3 2
     5    3    4 1
     6    4    5 2
     7    4   11 1
     8    5    6 1
     9    7    8 2
    10    7    9 2
    11    7   10 am
    12   11   12 am
    13   12   13 2
    14   12   14 1
    15   14   16 1
    16   14   17 2
    17   15   16 2
    18   15   19 1
    19   17   18 1
    20   18   19 2
    21    2   20 1
    22    3   21 1
    23    5   22 1
    24    6   23 1
    25   10   24 1
    26   10   25 1
    27   11   26 1
    28   15   27 1
    29   16   28 1
    30   17   29 1
    31   18   30 1
    32   19   31 1
@<TRIPOS>PROPERTY_DATA
  Total_Score	| 4.3673
  Crash		| -0.8900
  Polar		| 2.5089
  FragIndex	| 1
  FragRMSD	| 1.353

