@<TRIPOS>MOLECULE
BindingDB_11382
 25 25 0 0 0
SMALL
NO_CHARGES


@<TRIPOS>ATOM
1    O        -8.0790    0.9018   16.5397  O     
2    S        -6.5657    1.0819   16.9952  S     
3    O        -6.5992    1.5319   18.5246  O     
4    N        -5.7525   -0.3891   17.0084  N     
5    O        -5.3228   -0.8950   15.8929  O     
6    C        -5.7425    2.3766   16.1751  C     
7    C        -6.4487    3.5415   15.8209  C     
8    C        -5.7769    4.6191   15.2178  C     
9    C        -4.3900    4.5654   14.9584  C     
10   C        -3.6885    3.3901   15.3242  C     
11   C        -4.3571    2.3062   15.9212  C     
12   N        -3.8424    5.7008   14.4254  N     
13   C        -2.6368    5.9429   13.9238  C     
14   C        -2.3540    7.2858   13.4656  C     
15   O        -1.7685    5.0881   13.8057  O     
16   H        -5.8322   -0.9597   17.7851  H     
17   H        -4.3426   -0.9465   16.0033  H     
18   H        -7.4519    3.6247   16.0161  H     
19   H        -6.3129    5.4570   14.9799  H     
20   H        -2.6789    3.3160   15.2024  H     
21   H        -3.8183    1.4793   16.1929  H     
22   H        -4.4473    6.4575   14.3909  H     
23   H        -3.0817    7.5795   12.7017  H     
24   H        -1.3512    7.3620   13.0318  H     
25   H        -2.4205    7.9846   14.3046  H     
@<TRIPOS>BOND
     1    1    2 2
     2    2    3 2
     3    2    4 1
     4    2    6 1
     5    4    5 1
     6    6    7 1
     7    6   11 2
     8    7    8 2
     9    8    9 1
    10    9   10 2
    11    9   12 1
    12   10   11 1
    13   12   13 am
    14   13   14 1
    15   13   15 2
    16    4   16 1
    17    5   17 1
    18    7   18 1
    19    8   19 1
    20   10   20 1
    21   11   21 1
    22   12   22 1
    23   14   23 1
    24   14   24 1
    25   14   25 1
@<TRIPOS>PROPERTY_DATA
  Total_Score	| 4.3724
  Crash		| -0.9753
  Polar		| 1.9042
  FragIndex	| 1
  FragRMSD	| 0.241

