@<TRIPOS>MOLECULE
BindingDB_16643
 24 24 0 0 0
SMALL
NO_CHARGES


@<TRIPOS>ATOM
1    C        -5.5042    2.3991   15.9860  C     
2    C        -6.2906    3.5260   15.6769  C     
3    C        -5.6937    4.6519   15.0757  C     
4    C        -4.3106    4.6827   14.7837  C     
5    C        -3.5368    3.5398   15.0961  C     
6    C        -4.1280    2.4144   15.6946  C     
7    S        -6.1768    1.0005   16.7731  S     
8    O        -5.9624   -0.2273   15.7855  O     
9    O        -5.3836    0.7031   18.1186  O     
10   N        -7.8352    1.0436   17.0618  N     
11   N        -3.8466    5.8412   14.2158  N     
12   C        -2.6269    6.2287   13.8615  C     
13   C        -2.4684    7.5496   13.2949  C     
14   O        -1.6290    5.5375   14.0113  O     
15   H        -7.2928    3.5350   15.8858  H     
16   H        -6.2853    5.4591   14.8611  H     
17   H        -2.5421    3.4996   14.9047  H     
18   H        -3.5405    1.6036   15.9182  H     
19   H        -8.3113    0.2072   17.2706  H     
20   H        -8.3330    1.8798   16.9644  H     
21   H        -4.5364    6.5013   14.0360  H     
22   H        -3.0813    7.6405   12.3958  H     
23   H        -1.4272    7.7519   13.0227  H     
24   H        -2.7870    8.3028   14.0197  H     
@<TRIPOS>BOND
     1    1    2 1
     2    1    6 2
     3    1    7 1
     4    2    3 2
     5    3    4 1
     6    4    5 2
     7    4   11 1
     8    5    6 1
     9    7    8 2
    10    7    9 2
    11    7   10 am
    12   11   12 am
    13   12   13 1
    14   12   14 2
    15    2   15 1
    16    3   16 1
    17    5   17 1
    18    6   18 1
    19   10   19 1
    20   10   20 1
    21   11   21 1
    22   13   22 1
    23   13   23 1
    24   13   24 1
@<TRIPOS>PROPERTY_DATA
  Total_Score	| 3.8597
  Crash		| -1.0414
  Polar		| 2.5305
  FragIndex	| 1
  FragRMSD	| 1.050

