@<TRIPOS>MOLECULE
BindingDB_27920
 74 77 0 0 0
SMALL
NO_CHARGES


@<TRIPOS>ATOM
1    C        76.1370   62.9366   15.5082  C     
2    C        77.0007   63.7803   14.7989  C     
3    N        77.6943   63.3374   13.7520  N     
4    O        77.0216   64.9751   15.0772  O     
5    C        78.5312   64.0804   12.8594  C     
6    C        79.0036   66.1054   11.6355  C     
7    C        79.9950   66.0614   12.8215  C     
8    C        79.8226   64.6806   13.4897  C     
9    C        77.8311   65.2394   12.1178  C     
10   C        81.4801   66.1348   12.4450  C     
11   C        81.9328   64.6658   12.3784  C     
12   N        81.0169   63.9262   13.1990  N     
13   C        81.2270   62.6823   13.6725  C     
14   C        82.2679   61.7420   13.2210  C     
15   O        80.5395   62.3028   14.6136  O     
16   N        83.1467   61.4791   14.3378  N     
17   C        81.7422   60.3851   12.5793  C     
18   C        82.9408   59.3826   12.4378  C     
19   C        80.6146   59.6808   13.4008  C     
20   C        81.2023   60.6633   11.1358  C     
21   C        84.4445   61.7718   14.4321  C     
22   C        85.2285   61.4052   15.6190  C     
23   O        85.0057   62.3908   13.5371  O     
24   N        86.2887   60.3778   15.3939  N     
25   C        85.7968   62.6585   16.3342  C     
26   C        87.0194   60.3276   14.1074  C     
27   C        75.9443   63.0000   16.9235  C     
28   C        75.3481   62.0162   14.7647  C     
29   C        74.3908   61.1990   15.3829  C     
30   C        74.1574   61.3042   16.7591  C     
31   C        74.9117   62.2141   17.5354  C     
32   C        74.6774   62.3601   18.9093  C     
33   C        75.4566   63.1623   19.6617  C     
34   C        76.5018   63.8429   19.1126  C     
35   C        76.7508   63.7769   17.7912  C     
36   F        73.2473   60.5245   17.2902  F     
37   H        77.6327   62.3854   13.5689  H     
38   H        78.8304   63.3649   12.0890  H     
39   H        78.6930   67.1330   11.4189  H     
40   H        79.4378   65.6711   10.7278  H     
41   H        79.7437   66.8641   13.5256  H     
42   H        79.7308   64.8138   14.5704  H     
43   H        77.2264   64.8861   11.2785  H     
44   H        77.2019   65.8302   12.7892  H     
45   H        81.6461   66.6558   11.5019  H     
46   H        82.0189   66.6598   13.2365  H     
47   H        81.8972   64.2926   11.3513  H     
48   H        82.9550   64.5932   12.7571  H     
49   H        82.8401   62.2211   12.4270  H     
50   H        82.7597   61.0066   15.0853  H     
51   H        83.7866   59.8515   11.9262  H     
52   H        82.6501   58.4965   11.8658  H     
53   H        83.2834   59.0423   13.4177  H     
54   H        80.8783   59.6269   14.4572  H     
55   H        80.4419   58.6635   13.0426  H     
56   H        79.6674   60.2170   13.3190  H     
57   H        80.3462   61.3364   11.1647  H     
58   H        80.8789   59.7350   10.6570  H     
59   H        81.9708   61.1185   10.5073  H     
60   H        84.5543   60.9426   16.3507  H     
61   H        87.0088   60.5163   16.1085  H     
62   H        85.8848   59.4496   15.5528  H     
63   H        86.5206   63.1725   15.7019  H     
64   H        86.2922   62.3704   17.2631  H     
65   H        84.9943   63.3570   16.5793  H     
66   H        86.3611   59.9679   13.3148  H     
67   H        87.8568   59.6428   14.2073  H     
68   H        87.4042   61.3139   13.8479  H     
69   H        75.4340   61.9470   13.7482  H     
70   H        73.8493   60.5384   14.8185  H     
71   H        73.9286   61.8784   19.3487  H     
72   H        75.2734   63.2475   20.6354  H     
73   H        77.0969   64.3826   19.7051  H     
74   H        77.5532   64.2509   17.4538  H     
@<TRIPOS>BOND
     1    1    2 1
     2    1   27 2
     3    1   28 1
     4    2    3 am
     5    2    4 2
     6    5    3 1
     7    5    8 1
     8    5    9 1
     9    6    7 1
    10    6    9 1
    11    7    8 1
    12    7   10 1
    13    8   12 1
    14   10   11 1
    15   11   12 1
    16   12   13 am
    17   13   14 1
    18   13   15 2
    19   14   16 1
    20   14   17 1
    21   16   21 am
    22   17   18 1
    23   17   19 1
    24   17   20 1
    25   21   22 1
    26   21   23 2
    27   22   24 1
    28   22   25 1
    29   24   26 1
    30   27   31 1
    31   27   35 1
    32   28   29 2
    33   29   30 1
    34   30   31 2
    35   30   36 1
    36   31   32 1
    37   32   33 2
    38   33   34 1
    39   34   35 2
    40    3   37 1
    41    5   38 1
    42    6   39 1
    43    6   40 1
    44    7   41 1
    45    8   42 1
    46    9   43 1
    47    9   44 1
    48   10   45 1
    49   10   46 1
    50   11   47 1
    51   11   48 1
    52   14   49 1
    53   16   50 1
    54   18   51 1
    55   18   52 1
    56   18   53 1
    57   19   54 1
    58   19   55 1
    59   19   56 1
    60   20   57 1
    61   20   58 1
    62   20   59 1
    63   22   60 1
    64   24   61 1
    65   24   62 1
    66   25   63 1
    67   25   64 1
    68   25   65 1
    69   26   66 1
    70   26   67 1
    71   26   68 1
    72   28   69 1
    73   29   70 1
    74   32   71 1
    75   33   72 1
    76   34   73 1
    77   35   74 1
@<TRIPOS>PROPERTY_DATA
  Total_Score	| 9.5093
  Crash		| -1.6726
  Polar		| 5.3265
  FragIndex	| 1
  FragRMSD	| 1.285

