@<TRIPOS>MOLECULE
BindingDB_27936
 73 75 0 0 0
SMALL
NO_CHARGES


@<TRIPOS>ATOM
1    N        76.4619   63.4916   16.0664  N     
2    C        77.1541   64.2068   15.1632  C     
3    N        77.5028   63.6719   13.9983  N     
4    O        77.6137   65.3249   15.4457  O     
5    C        78.3969   64.2328   13.0225  C     
6    C        78.7108   66.6738   12.7802  C     
7    C        80.0794   66.0231   13.0401  C     
8    C        79.8088   64.6097   13.5898  C     
9    C        77.8028   65.5060   12.3659  C     
10   C        80.9272   65.7670   11.7754  C     
11   C        81.6578   64.4508   12.0751  C     
12   N        80.9052   63.8004   13.1140  N     
13   C        81.2351   62.6150   13.6648  C     
14   C        82.3003   61.7056   13.2021  C     
15   O        80.6579   62.2834   14.6950  O     
16   N        83.1897   61.4637   14.3132  N     
17   C        81.7761   60.3548   12.5589  C     
18   C        80.5697   59.7142   13.3266  C     
19   C        81.3310   60.6116   11.0808  C     
20   C        82.9376   59.3049   12.5163  C     
21   C        84.4653   61.8259   14.4303  C     
22   C        85.2559   61.4331   15.5994  C     
23   O        84.9925   62.5468   13.5913  O     
24   N        86.2792   60.3778   15.3391  N     
25   C        85.8936   62.6549   16.3202  C     
26   C        86.9069   60.2499   14.0117  C     
27   C        75.7126   62.2971   15.7072  C     
28   C        76.5220   63.8300   17.3927  C     
29   C        75.5269   64.6417   17.9826  C     
30   C        75.6294   65.0032   19.3359  C     
31   C        76.7153   64.5525   20.1159  C     
32   C        77.7058   63.7380   19.5360  C     
33   C        77.6082   63.3786   18.1827  C     
34   H        77.1475   62.7826   13.8009  H     
35   H        78.5167   63.4794   12.2465  H     
36   H        78.3448   67.1286   13.7031  H     
37   H        78.7573   67.4479   12.0116  H     
38   H        80.6561   66.6295   13.7447  H     
39   H        79.8075   64.6363   14.6949  H     
40   H        77.8170   65.4033   11.2786  H     
41   H        76.7697   65.6923   12.6664  H     
42   H        80.2976   65.6434   10.8869  H     
43   H        81.6204   66.5919   11.5847  H     
44   H        81.7109   63.8494   11.1597  H     
45   H        82.6678   64.6590   12.4394  H     
46   H        82.8716   62.1936   12.4109  H     
47   H        82.8249   60.9482   15.0437  H     
48   H        80.7622   59.6865   14.3989  H     
49   H        80.3850   58.6891   12.9895  H     
50   H        79.6507   60.2880   13.1707  H     
51   H        80.5166   61.3403   11.0394  H     
52   H        80.9786   59.6922   10.6105  H     
53   H        82.1586   60.9938   10.4807  H     
54   H        83.8087   59.7076   11.9948  H     
55   H        82.6326   58.3975   11.9907  H     
56   H        83.2468   59.0191   13.5251  H     
57   H        84.5847   60.9906   16.3430  H     
58   H        87.0470   60.5311   15.9883  H     
59   H        85.8721   59.4721   15.5790  H     
60   H        86.6757   63.1020   15.7030  H     
61   H        86.3451   62.3388   17.2614  H     
62   H        85.1377   63.4162   16.5413  H     
63   H        86.1770   59.9726   13.2497  H     
64   H        87.6577   59.4584   14.0672  H     
65   H        87.4069   61.1785   13.7299  H     
66   H        74.9713   62.5411   14.9324  H     
67   H        75.1634   61.8597   16.5538  H     
68   H        76.3858   61.5215   15.3297  H     
69   H        74.7390   64.9875   17.4265  H     
70   H        74.9183   65.6028   19.7550  H     
71   H        76.7885   64.8232   21.1002  H     
72   H        78.4928   63.4024   20.0987  H     
73   H        78.3390   62.7918   17.7707  H     
@<TRIPOS>BOND
     1    1    2 am
     2    1   27 1
     3    1   28 1
     4    2    3 am
     5    2    4 2
     6    5    3 1
     7    5    8 1
     8    5    9 1
     9    6    7 1
    10    6    9 1
    11    7    8 1
    12    7   10 1
    13    8   12 1
    14   10   11 1
    15   11   12 1
    16   12   13 am
    17   13   14 1
    18   13   15 2
    19   14   16 1
    20   14   17 1
    21   16   21 am
    22   17   18 1
    23   17   19 1
    24   17   20 1
    25   21   22 1
    26   21   23 2
    27   22   24 1
    28   22   25 1
    29   24   26 1
    30   28   29 1
    31   28   33 2
    32   29   30 2
    33   30   31 1
    34   31   32 2
    35   32   33 1
    36    3   34 1
    37    5   35 1
    38    6   36 1
    39    6   37 1
    40    7   38 1
    41    8   39 1
    42    9   40 1
    43    9   41 1
    44   10   42 1
    45   10   43 1
    46   11   44 1
    47   11   45 1
    48   14   46 1
    49   16   47 1
    50   18   48 1
    51   18   49 1
    52   18   50 1
    53   19   51 1
    54   19   52 1
    55   19   53 1
    56   20   54 1
    57   20   55 1
    58   20   56 1
    59   22   57 1
    60   24   58 1
    61   24   59 1
    62   25   60 1
    63   25   61 1
    64   25   62 1
    65   26   63 1
    66   26   64 1
    67   26   65 1
    68   27   66 1
    69   27   67 1
    70   27   68 1
    71   29   69 1
    72   30   70 1
    73   31   71 1
    74   32   72 1
    75   33   73 1
@<TRIPOS>PROPERTY_DATA
  Total_Score	| 9.3659
  Crash		| -1.9643
  Polar		| 5.8185
  FragIndex	| 1
  FragRMSD	| 0.346

