@<TRIPOS>MOLECULE
BindingDB_27919
 74 77 0 0 0
SMALL
NO_CHARGES


@<TRIPOS>ATOM
1    C        76.1837   63.9711   16.0219  C     
2    C        77.2533   63.6643   15.1915  C     
3    N        77.4493   64.3142   14.0501  N     
4    O        77.9573   62.7092   15.4886  O     
5    C        78.5252   64.0571   13.1291  C     
6    C        78.8016   66.1254   11.8788  C     
7    C        79.9935   66.0447   12.8634  C     
8    C        79.8690   64.6967   13.6046  C     
9    C        78.2634   64.6956   11.7522  C     
10   C        81.3965   66.0125   12.2300  C     
11   C        81.8513   64.5398   12.2792  C     
12   N        81.0257   63.9033   13.2600  N     
13   C        81.2746   62.7024   13.8143  C     
14   C        82.2539   61.7057   13.3476  C     
15   O        80.6393   62.4076   14.8264  O     
16   N        83.1790   61.4591   14.4282  N     
17   C        81.6351   60.3490   12.8039  C     
18   C        82.7717   59.2799   12.6219  C     
19   C        80.5476   59.7456   13.7534  C     
20   C        80.9857   60.5883   11.4016  C     
21   C        84.4394   61.8615   14.5287  C     
22   C        85.2590   61.4824   15.6815  C     
23   O        84.9300   62.5753   13.6650  O     
24   N        86.2760   60.4249   15.4030  N     
25   C        85.8959   62.7218   16.3646  C     
26   C        86.8999   60.3191   14.0682  C     
27   C        76.2926   64.0383   17.4452  C     
28   C        74.9187   64.1815   15.4183  C     
29   C        73.7679   64.3869   16.1968  C     
30   C        73.8607   64.4196   17.5933  C     
31   C        75.1116   64.2640   18.2271  C     
32   C        75.2131   64.3286   19.6235  C     
33   C        76.4156   64.2182   20.2233  C     
34   C        77.5528   64.0086   19.4958  C     
35   C        77.5066   63.9193   18.1503  C     
36   H        76.8235   65.0230   13.8234  H     
37   H        78.6046   62.9723   12.9919  H     
38   H        78.0139   66.7566   12.3053  H     
39   H        79.0849   66.5392   10.9042  H     
40   H        79.9249   66.8801   13.5698  H     
41   H        79.8769   64.8824   14.6877  H     
42   H        78.8369   64.1622   10.9888  H     
43   H        77.2081   64.6809   11.4695  H     
44   H        81.4094   66.3989   11.2100  H     
45   H        82.0749   66.6170   12.8358  H     
46   H        81.7244   64.0542   11.3038  H     
47   H        82.9110   64.5059   12.5627  H     
48   H        82.7981   62.1294   12.5029  H     
49   H        82.8514   60.9051   15.1483  H     
50   H        83.5750   59.6672   11.9938  H     
51   H        82.3933   58.3650   12.1625  H     
52   H        83.2093   58.9988   13.5808  H     
53   H        80.9188   59.6931   14.7765  H     
54   H        80.2659   58.7394   13.4371  H     
55   H        79.6393   60.3529   13.7524  H     
56   H        80.2043   61.3436   11.4599  H     
57   H        80.5376   59.6728   11.0074  H     
58   H        81.7272   60.9436   10.6858  H     
59   H        84.6094   61.0386   16.4426  H     
60   H        87.0534   60.5687   16.0511  H     
61   H        85.8662   59.5135   15.6306  H     
62   H        86.5576   63.2479   15.6769  H     
63   H        86.4728   62.4173   17.2372  H     
64   H        85.1204   63.4130   16.6978  H     
65   H        86.1656   60.0936   13.2955  H     
66   H        87.6220   59.5050   14.0973  H     
67   H        87.4256   61.2395   13.8221  H     
68   H        74.8054   64.1420   14.4013  H     
69   H        72.8555   64.4979   15.7483  H     
70   H        73.0053   64.5571   18.1439  H     
71   H        74.3991   64.4837   20.1813  H     
72   H        76.4702   64.2853   21.2127  H     
73   H        78.4242   63.9184   19.9611  H     
74   H        78.3566   63.7706   17.6599  H     
@<TRIPOS>BOND
     1    1    2 1
     2    1   27 2
     3    1   28 1
     4    2    3 am
     5    2    4 2
     6    5    3 1
     7    5    8 1
     8    5    9 1
     9    6    7 1
    10    6    9 1
    11    7    8 1
    12    7   10 1
    13    8   12 1
    14   10   11 1
    15   11   12 1
    16   12   13 am
    17   13   14 1
    18   13   15 2
    19   14   16 1
    20   14   17 1
    21   16   21 am
    22   17   18 1
    23   17   19 1
    24   17   20 1
    25   21   22 1
    26   21   23 2
    27   22   24 1
    28   22   25 1
    29   24   26 1
    30   27   31 1
    31   27   35 1
    32   28   29 2
    33   29   30 1
    34   30   31 2
    35   31   32 1
    36   32   33 2
    37   33   34 1
    38   34   35 2
    39    3   36 1
    40    5   37 1
    41    6   38 1
    42    6   39 1
    43    7   40 1
    44    8   41 1
    45    9   42 1
    46    9   43 1
    47   10   44 1
    48   10   45 1
    49   11   46 1
    50   11   47 1
    51   14   48 1
    52   16   49 1
    53   18   50 1
    54   18   51 1
    55   18   52 1
    56   19   53 1
    57   19   54 1
    58   19   55 1
    59   20   56 1
    60   20   57 1
    61   20   58 1
    62   22   59 1
    63   24   60 1
    64   24   61 1
    65   25   62 1
    66   25   63 1
    67   25   64 1
    68   26   65 1
    69   26   66 1
    70   26   67 1
    71   28   68 1
    72   29   69 1
    73   30   70 1
    74   32   71 1
    75   33   72 1
    76   34   73 1
    77   35   74 1
@<TRIPOS>PROPERTY_DATA
  Total_Score	| 9.7295
  Crash		| -2.1001
  Polar		| 5.5885
  FragIndex	| 1
  FragRMSD	| 0.380

