@<TRIPOS>MOLECULE
BindingDB_27937
 73 75 0 0 0
SMALL
NO_CHARGES


@<TRIPOS>ATOM
1    N        76.6175   63.4892   15.9557  N     
2    C        77.2849   64.1888   15.0224  C     
3    N        77.6439   63.6564   13.8534  N     
4    O        77.6774   65.3361   15.2487  O     
5    C        78.5189   64.2567   12.8849  C     
6    C        78.7018   66.6966   12.5320  C     
7    C        80.0942   66.1568   12.9239  C     
8    C        79.8656   64.7558   13.5170  C     
9    C        77.8818   65.4601   12.1386  C     
10   C        81.0749   65.9265   11.7568  C     
11   C        81.7924   64.6102   12.1078  C     
12   N        81.0041   63.9635   13.1192  N     
13   C        81.2783   62.7747   13.6775  C     
14   C        82.2586   61.7915   13.1900  C     
15   O        80.6913   62.4709   14.7086  O     
16   N        83.1553   61.4727   14.2712  N     
17   C        81.6197   60.4886   12.5533  C     
18   C        80.4514   59.8878   13.4109  C     
19   C        81.0635   60.8078   11.1210  C     
20   C        82.7184   59.3820   12.3891  C     
21   C        84.4162   61.8749   14.4295  C     
22   C        85.2015   61.4287   15.5782  C     
23   O        84.9239   62.6521   13.6325  O     
24   N        86.2326   60.3902   15.2778  N     
25   C        85.8204   62.6268   16.3469  C     
26   C        86.8092   60.2898   13.9217  C     
27   C        75.9715   62.2371   15.6137  C     
28   C        76.5943   63.9061   17.2801  C     
29   C        77.6439   63.5375   18.1656  C     
30   C        77.6196   63.9283   19.5201  C     
31   C        76.5393   64.6776   20.0169  C     
32   C        75.4880   65.0564   19.1536  C     
33   C        75.5253   64.6759   17.7962  C     
34   F        76.4973   65.0181   21.2762  F     
35   H        77.3514   62.7455   13.6774  H     
36   H        78.7286   63.4854   12.1479  H     
37   H        78.2446   67.1887   13.3955  H     
38   H        78.7595   67.4170   11.7154  H     
39   H        80.5607   66.8180   13.6639  H     
40   H        79.7923   64.8423   14.6247  H     
41   H        77.9504   65.3011   11.0567  H     
42   H        76.8244   65.5942   12.3913  H     
43   H        80.5423   65.8189   10.8067  H     
44   H        81.7816   66.7554   11.6702  H     
45   H        81.8760   64.0004   11.2022  H     
46   H        82.7943   64.8198   12.4994  H     
47   H        82.8402   62.2424   12.3859  H     
48   H        82.7986   60.9009   14.9642  H     
49   H        80.7485   59.8020   14.4576  H     
50   H        80.1702   58.8926   13.0533  H     
51   H        79.5572   60.5161   13.3646  H     
52   H        80.2499   61.5373   11.1714  H     
53   H        80.6713   59.9066   10.6387  H     
54   H        81.8504   61.2207   10.4827  H     
55   H        83.5700   59.7636   11.8222  H     
56   H        82.3251   58.5102   11.8599  H     
57   H        83.0773   59.0451   13.3638  H     
58   H        84.5328   60.9409   16.2950  H     
59   H        87.0211   60.5557   15.9045  H     
60   H        85.8441   59.4778   15.5201  H     
61   H        86.5405   63.1574   15.7255  H     
62   H        86.3331   62.2702   17.2439  H     
63   H        85.0394   63.3245   16.6544  H     
64   H        86.0509   59.9805   13.1964  H     
65   H        87.5959   59.5329   13.9367  H     
66   H        87.2458   61.2420   13.6124  H     
67   H        75.2825   62.4085   14.7834  H     
68   H        75.3965   61.8095   16.4349  H     
69   H        76.7194   61.4992   15.3101  H     
70   H        78.4274   62.9768   17.8165  H     
71   H        78.3907   63.6571   20.1407  H     
72   H        74.6994   65.6048   19.5096  H     
73   H        74.7528   64.9517   17.1814  H     
@<TRIPOS>BOND
     1    1    2 am
     2    1   27 1
     3    1   28 1
     4    2    3 am
     5    2    4 2
     6    5    3 1
     7    5    8 1
     8    5    9 1
     9    6    7 1
    10    6    9 1
    11    7    8 1
    12    7   10 1
    13    8   12 1
    14   10   11 1
    15   11   12 1
    16   12   13 am
    17   13   14 1
    18   13   15 2
    19   14   16 1
    20   14   17 1
    21   16   21 am
    22   17   18 1
    23   17   19 1
    24   17   20 1
    25   21   22 1
    26   21   23 2
    27   22   24 1
    28   22   25 1
    29   24   26 1
    30   28   29 1
    31   28   33 2
    32   29   30 2
    33   30   31 1
    34   31   32 2
    35   31   34 1
    36   32   33 1
    37    3   35 1
    38    5   36 1
    39    6   37 1
    40    6   38 1
    41    7   39 1
    42    8   40 1
    43    9   41 1
    44    9   42 1
    45   10   43 1
    46   10   44 1
    47   11   45 1
    48   11   46 1
    49   14   47 1
    50   16   48 1
    51   18   49 1
    52   18   50 1
    53   18   51 1
    54   19   52 1
    55   19   53 1
    56   19   54 1
    57   20   55 1
    58   20   56 1
    59   20   57 1
    60   22   58 1
    61   24   59 1
    62   24   60 1
    63   25   61 1
    64   25   62 1
    65   25   63 1
    66   26   64 1
    67   26   65 1
    68   26   66 1
    69   27   67 1
    70   27   68 1
    71   27   69 1
    72   29   70 1
    73   30   71 1
    74   32   72 1
    75   33   73 1
@<TRIPOS>PROPERTY_DATA
  Total_Score	| 9.8855
  Crash		| -2.0891
  Polar		| 5.7760
  FragIndex	| 1
  FragRMSD	| 0.392

