@<TRIPOS>MOLECULE
BindingDB_27931
 70 73 0 0 0
SMALL
NO_CHARGES


@<TRIPOS>ATOM
1    C        77.0167   63.7985   16.7323  C     
2    C        77.1756   63.6078   15.3797  C     
3    N        78.1105   64.3117   14.7583  N     
4    O        76.5032   62.7554   14.7890  O     
5    C        78.5164   64.2659   13.3891  C     
6    C        78.5269   66.3860   12.1155  C     
7    C        79.9824   65.8930   12.2042  C     
8    C        79.9852   64.7888   13.2740  C     
9    C        77.6582   65.1634   12.4602  C     
10   C        80.5491   65.1907   10.9596  C     
11   C        81.4497   64.0797   11.5316  C     
12   N        80.9468   63.8051   12.8467  N     
13   C        81.3322   62.7590   13.6094  C     
14   C        82.2641   61.6927   13.2075  C     
15   O        80.8643   62.6636   14.7370  O     
16   N        83.1849   61.4601   14.2960  N     
17   C        81.5751   60.3276   12.7656  C     
18   C        82.6662   59.2323   12.4928  C     
19   C        80.5749   59.7724   13.8343  C     
20   C        80.7677   60.5432   11.4446  C     
21   C        84.4679   61.8257   14.4041  C     
22   C        85.2372   61.4462   15.5912  C     
23   O        84.9554   62.5910   13.5848  O     
24   N        86.2720   60.4008   15.3822  N     
25   C        85.8616   62.6828   16.3020  C     
26   C        86.9715   60.3168   14.0807  C     
27   C        75.9063   64.8795   18.6063  C     
28   C        75.9668   64.6253   17.2290  C     
29   C        77.9409   63.2253   17.6563  C     
30   C        77.8526   63.4832   19.0331  C     
31   N        75.0842   65.6230   19.3509  N     
32   C        76.8261   64.3206   19.4846  C     
33   N        76.4741   64.7844   20.6836  N     
34   N        75.4537   65.5279   20.5681  N     
35   H        78.5946   64.9376   15.3249  H     
36   H        78.4603   63.2296   13.0432  H     
37   H        78.3587   67.1702   12.8616  H     
38   H        78.2850   66.7876   11.1281  H     
39   H        80.6447   66.7168   12.4858  H     
40   H        80.3230   65.2469   14.2090  H     
41   H        77.4081   64.6218   11.5426  H     
42   H        76.7195   65.4821   12.9291  H     
43   H        79.7478   64.7364   10.3662  H     
44   H        81.1059   65.8834   10.3274  H     
45   H        81.3997   63.2032   10.8741  H     
46   H        82.4866   64.4352   11.6017  H     
47   H        82.8419   62.0189   12.3475  H     
48   H        82.8393   60.9385   15.0337  H     
49   H        83.3693   59.5741   11.7335  H     
50   H        82.2112   58.3023   12.1440  H     
51   H        83.2267   59.0064   13.3988  H     
52   H        81.0411   59.7195   14.8179  H     
53   H        80.2337   58.7671   13.5663  H     
54   H        79.6873   60.4084   13.9135  H     
55   H        80.0046   61.3173   11.5735  H     
56   H        80.2643   59.6208   11.1378  H     
57   H        81.4249   60.8557   10.6305  H     
58   H        84.5524   61.0086   16.3269  H     
59   H        87.0035   60.5365   16.0838  H     
60   H        85.8511   59.4846   15.5635  H     
61   H        86.5957   63.1580   15.6542  H     
62   H        86.3569   62.3701   17.2242  H     
63   H        85.0908   63.4182   16.5594  H     
64   H        86.2683   60.0288   13.2915  H     
65   H        87.7549   59.5640   14.1465  H     
66   H        87.4336   61.2732   13.8254  H     
67   H        75.2917   65.0561   16.5961  H     
68   H        78.6950   62.6187   17.3177  H     
69   H        78.5235   63.0788   19.6880  H     
70   H        76.9349   64.5880   21.5186  H     
@<TRIPOS>BOND
     1    1    2 1
     2    1   28 1
     3    1   29 2
     4    2    3 am
     5    2    4 2
     6    5    3 1
     7    5    8 1
     8    5    9 1
     9    6    7 1
    10    6    9 1
    11    7    8 1
    12    7   10 1
    13    8   12 1
    14   10   11 1
    15   11   12 1
    16   12   13 am
    17   13   14 1
    18   13   15 2
    19   14   16 1
    20   14   17 1
    21   16   21 am
    22   17   18 1
    23   17   19 1
    24   17   20 1
    25   21   22 1
    26   21   23 2
    27   22   24 1
    28   22   25 1
    29   24   26 1
    30   27   28 2
    31   27   31 1
    32   27   32 1
    33   29   30 1
    34   30   32 2
    35   31   34 2
    36   32   33 1
    37   33   34 1
    38    3   35 1
    39    5   36 1
    40    6   37 1
    41    6   38 1
    42    7   39 1
    43    8   40 1
    44    9   41 1
    45    9   42 1
    46   10   43 1
    47   10   44 1
    48   11   45 1
    49   11   46 1
    50   14   47 1
    51   16   48 1
    52   18   49 1
    53   18   50 1
    54   18   51 1
    55   19   52 1
    56   19   53 1
    57   19   54 1
    58   20   55 1
    59   20   56 1
    60   20   57 1
    61   22   58 1
    62   24   59 1
    63   24   60 1
    64   25   61 1
    65   25   62 1
    66   25   63 1
    67   26   64 1
    68   26   65 1
    69   26   66 1
    70   28   67 1
    71   29   68 1
    72   30   69 1
    73   33   70 1
@<TRIPOS>PROPERTY_DATA
  Total_Score	| 9.3703
  Crash		| -2.2325
  Polar		| 6.1328
  FragIndex	| 1
  FragRMSD	| 0.677

