@<TRIPOS>MOLECULE
BindingDB_27939
 74 77 0 0 0
SMALL
NO_CHARGES


@<TRIPOS>ATOM
1    N        76.2239   62.3437   15.1836  N     
2    C        76.9022   62.7545   14.1172  C     
3    N        77.7202   63.7976   14.1553  N     
4    O        76.7021   62.1977   13.0421  O     
5    C        78.4884   64.3078   13.0522  C     
6    C        78.9405   66.2781   11.7351  C     
7    C        80.0737   66.1763   12.7870  C     
8    C        79.8709   64.8399   13.5292  C     
9    C        77.7835   65.5063   12.3884  C     
10   C        81.5075   66.0928   12.2489  C     
11   C        81.8444   64.5935   12.2149  C     
12   N        80.9818   63.9841   13.1807  N     
13   C        81.1896   62.7880   13.7588  C     
14   C        82.1608   61.7715   13.3212  C     
15   O        80.5163   62.5003   14.7475  O     
16   N        83.0814   61.5429   14.4093  N     
17   C        81.5210   60.4164   12.7905  C     
18   C        80.5363   59.7365   13.8066  C     
19   C        80.7240   60.6786   11.4673  C     
20   C        82.6659   59.3996   12.4677  C     
21   C        84.3705   61.8900   14.4883  C     
22   C        85.1781   61.4805   15.6418  C     
23   O        84.8816   62.5740   13.6145  O     
24   N        86.1972   60.4190   15.3747  N     
25   C        85.8125   62.7001   16.3617  C     
26   C        86.8212   60.2906   14.0385  C     
27   C        75.0832   61.4692   15.0648  C     
28   C        76.4145   62.6768   16.4942  C     
29   C        74.4311   61.3838   16.4610  C     
30   C        77.4787   63.3404   17.1523  C     
31   C        77.4216   63.5601   18.5395  C     
32   C        76.3349   63.0630   19.2996  C     
33   C        75.3115   62.3284   18.6670  C     
34   C        75.3736   62.1375   17.2738  C     
35   H        77.7546   64.2992   14.9888  H     
36   H        78.6506   63.5479   12.2825  H     
37   H        78.6662   67.3217   11.5402  H     
38   H        79.2299   65.8005   10.7971  H     
39   H        79.9752   67.0140   13.4892  H     
40   H        79.8764   65.0344   14.6096  H     
41   H        77.0544   65.1884   11.6412  H     
42   H        77.2877   66.1420   13.1325  H     
43   H        81.6203   66.5752   11.2762  H     
44   H        82.1735   66.5765   12.9671  H     
45   H        81.6432   64.1793   11.2210  H     
46   H        82.8975   64.4668   12.4697  H     
47   H        82.7204   62.1620   12.4678  H     
48   H        82.7355   61.0321   15.1587  H     
49   H        80.9854   59.6633   14.7976  H     
50   H        80.2737   58.7254   13.4781  H     
51   H        79.6028   60.2937   13.8948  H     
52   H        79.8925   61.3662   11.6373  H     
53   H        80.3065   59.7461   11.0718  H     
54   H        81.3733   61.1135   10.7001  H     
55   H        83.3802   59.8327   11.7588  H     
56   H        82.2655   58.4789   12.0252  H     
57   H        83.2096   59.1236   13.3754  H     
58   H        84.5116   61.0336   16.3878  H     
59   H        86.9668   60.5643   16.0336  H     
60   H        85.7806   59.5092   15.6012  H     
61   H        86.5293   63.1980   15.7176  H     
62   H        86.3219   62.3795   17.2714  H     
63   H        85.0367   63.4207   16.6448  H     
64   H        86.0983   59.9011   13.3208  H     
65   H        87.6428   59.5761   14.1189  H     
66   H        87.2130   61.2515   13.6934  H     
67   H        74.3519   61.8688   14.3475  H     
68   H        75.4051   60.4720   14.7305  H     
69   H        73.4469   61.8612   16.4833  H     
70   H        74.3573   60.3493   16.8108  H     
71   H        78.2988   63.6580   16.6330  H     
72   H        78.1775   64.0527   19.0249  H     
73   H        76.3032   63.2155   20.3107  H     
74   H        74.5363   61.9274   19.2107  H     
@<TRIPOS>BOND
     1    1    2 1
     2    1   27 1
     3    1   28 1
     4    2    3 am
     5    2    4 2
     6    5    3 1
     7    5    8 1
     8    5    9 1
     9    6    7 1
    10    6    9 1
    11    7    8 1
    12    7   10 1
    13    8   12 1
    14   10   11 1
    15   11   12 1
    16   12   13 am
    17   13   14 1
    18   13   15 2
    19   14   16 1
    20   14   17 1
    21   16   21 am
    22   17   18 1
    23   17   19 1
    24   17   20 1
    25   21   22 1
    26   21   23 2
    27   22   24 1
    28   22   25 1
    29   24   26 1
    30   27   29 1
    31   28   30 1
    32   28   34 2
    33   29   34 1
    34   30   31 2
    35   31   32 1
    36   32   33 2
    37   33   34 1
    38    3   35 1
    39    5   36 1
    40    6   37 1
    41    6   38 1
    42    7   39 1
    43    8   40 1
    44    9   41 1
    45    9   42 1
    46   10   43 1
    47   10   44 1
    48   11   45 1
    49   11   46 1
    50   14   47 1
    51   16   48 1
    52   18   49 1
    53   18   50 1
    54   18   51 1
    55   19   52 1
    56   19   53 1
    57   19   54 1
    58   20   55 1
    59   20   56 1
    60   20   57 1
    61   22   58 1
    62   24   59 1
    63   24   60 1
    64   25   61 1
    65   25   62 1
    66   25   63 1
    67   26   64 1
    68   26   65 1
    69   26   66 1
    70   27   67 1
    71   27   68 1
    72   29   69 1
    73   29   70 1
    74   30   71 1
    75   31   72 1
    76   32   73 1
    77   33   74 1
@<TRIPOS>PROPERTY_DATA
  Total_Score	| 9.7703
  Crash		| -2.4078
  Polar		| 5.3786
  FragIndex	| 1
  FragRMSD	| 0.753

