@<TRIPOS>MOLECULE
BindingDB_27924
 68 70 0 0 0
SMALL
NO_CHARGES


@<TRIPOS>ATOM
1    C        77.8334   63.2757   17.7436  C     
2    C        76.8858   63.8236   16.8431  C     
3    C        75.7848   64.5348   17.3770  C     
4    C        75.6439   64.7026   18.7697  C     
5    C        76.5886   64.1448   19.6467  C     
6    C        77.6821   63.4239   19.1345  C     
7    C        77.0509   63.6850   15.4746  C     
8    N        78.1271   64.1932   14.9019  N     
9    O        76.1686   63.1517   14.8057  O     
10   C        78.4570   64.2185   13.5071  C     
11   C        78.3690   65.5376   11.4753  C     
12   C        79.7267   65.8463   12.1380  C     
13   C        79.8814   64.8258   13.2847  C     
14   C        77.5080   65.0993   12.6646  C     
15   C        80.9660   65.6513   11.2514  C     
16   C        81.4919   64.2496   11.6181  C     
17   N        80.9096   63.8921   12.8812  N     
18   C        81.2645   62.8186   13.6222  C     
19   C        82.2327   61.7698   13.2418  C     
20   O        80.7532   62.6854   14.7311  O     
21   N        83.1276   61.5661   14.3592  N     
22   C        81.5757   60.3960   12.7839  C     
23   C        80.5936   59.7893   13.8455  C     
24   C        80.7735   60.5897   11.4529  C     
25   C        82.7023   59.3386   12.5112  C     
26   C        84.4023   61.9316   14.4924  C     
27   C        85.1613   61.5518   15.6895  C     
28   O        84.9410   62.6005   13.6200  O     
29   N        86.1835   60.4897   15.4804  N     
30   C        85.7963   62.7671   16.4149  C     
31   C        86.8621   60.4010   14.1718  C     
32   H        78.6320   62.7393   17.3901  H     
33   H        75.0926   64.9611   16.7559  H     
34   H        74.8503   65.2293   19.1388  H     
35   H        76.4762   64.2575   20.6562  H     
36   H        78.3554   63.0019   19.7779  H     
37   H        78.7678   64.6186   15.4983  H     
38   H        78.4194   63.1968   13.1160  H     
39   H        77.9513   66.4157   10.9728  H     
40   H        78.4560   64.7179   10.7525  H     
41   H        79.7025   66.8693   12.5264  H     
42   H        80.2262   65.3648   14.1747  H     
43   H        76.6227   64.5505   12.3376  H     
44   H        77.1884   65.9824   13.2283  H     
45   H        80.7432   65.7396   10.1816  H     
46   H        81.7168   66.4079   11.5102  H     
47   H        81.2014   63.5248   10.8537  H     
48   H        82.5821   64.2961   11.6837  H     
49   H        82.8219   62.1157   12.3935  H     
50   H        82.7547   61.0700   15.1018  H     
51   H        81.0669   59.7232   14.8253  H     
52   H        80.2763   58.7827   13.5594  H     
53   H        79.6922   60.3972   13.9440  H     
54   H        79.9541   61.2995   11.5887  H     
55   H        80.3392   59.6437   11.1127  H     
56   H        81.4196   60.9666   10.6573  H     
57   H        83.4243   59.7170   11.7838  H     
58   H        82.2892   58.4068   12.1158  H     
59   H        83.2428   59.0955   13.4284  H     
60   H        84.4649   61.1292   16.4171  H     
61   H        86.9207   60.6220   16.1804  H     
62   H        85.7560   59.5766   15.6696  H     
63   H        86.5303   63.2646   15.7800  H     
64   H        86.3004   62.4333   17.3277  H     
65   H        85.0273   63.4850   16.6998  H     
66   H        86.1629   60.0789   13.4010  H     
67   H        87.6684   59.6682   14.2527  H     
68   H        87.3004   61.3564   13.8965  H     
@<TRIPOS>BOND
     1    1    2 1
     2    1    6 2
     3    2    3 2
     4    2    7 1
     5    3    4 1
     6    4    5 2
     7    5    6 1
     8    7    8 am
     9    7    9 2
    10   10    8 1
    11   10   13 1
    12   10   14 1
    13   11   12 1
    14   11   14 1
    15   12   13 1
    16   12   15 1
    17   13   17 1
    18   15   16 1
    19   16   17 1
    20   17   18 am
    21   18   19 1
    22   18   20 2
    23   19   21 1
    24   19   22 1
    25   21   26 am
    26   22   23 1
    27   22   24 1
    28   22   25 1
    29   26   27 1
    30   26   28 2
    31   27   29 1
    32   27   30 1
    33   29   31 1
    34    1   32 1
    35    3   33 1
    36    4   34 1
    37    5   35 1
    38    6   36 1
    39    8   37 1
    40   10   38 1
    41   11   39 1
    42   11   40 1
    43   12   41 1
    44   13   42 1
    45   14   43 1
    46   14   44 1
    47   15   45 1
    48   15   46 1
    49   16   47 1
    50   16   48 1
    51   19   49 1
    52   21   50 1
    53   23   51 1
    54   23   52 1
    55   23   53 1
    56   24   54 1
    57   24   55 1
    58   24   56 1
    59   25   57 1
    60   25   58 1
    61   25   59 1
    62   27   60 1
    63   29   61 1
    64   29   62 1
    65   30   63 1
    66   30   64 1
    67   30   65 1
    68   31   66 1
    69   31   67 1
    70   31   68 1
@<TRIPOS>PROPERTY_DATA
  Total_Score	| 9.1433
  Crash		| -1.8099
  Polar		| 5.7459
  FragIndex	| 1
  FragRMSD	| 0.832

