@<TRIPOS>MOLECULE
BindingDB_27942
 71 73 0 0 0
SMALL
NO_CHARGES


@<TRIPOS>ATOM
1    C        80.5597   65.6924   11.7601  C     
2    C        81.4126   64.4448   12.0775  C     
3    N        80.8116   63.8143   13.2158  N     
4    C        79.7999   64.6568   13.8183  C     
5    C        79.8554   66.0245   13.0861  C     
6    C        78.4707   64.0563   13.8043  C     
7    C        81.1903   62.6274   13.7491  C     
8    O        80.6546   62.2720   14.7978  O     
9    C        82.2309   61.7265   13.2317  C     
10   C        81.7143   60.3720   12.6360  C     
11   C        80.5744   59.6852   13.4604  C     
12   C        81.2940   60.4947   11.1422  C     
13   N        83.1768   61.4230   14.2791  N     
14   C        84.4071   61.8725   14.4109  C     
15   C        85.2291   61.3673   15.5089  C     
16   O        84.8613   62.7146   13.6481  O     
17   N        86.6572   61.4658   15.1622  N     
18   C        84.9398   62.1118   16.8293  C     
19   N        78.0002   63.5409   14.9507  N     
20   O        77.8592   63.9536   12.7394  O     
21   C        76.7658   62.8449   15.1343  C     
22   C        75.8092   63.6472   16.0700  C     
23   C        74.4691   62.9913   16.0642  C     
24   C        76.2361   63.9335   17.4875  C     
25   C        76.9358   64.5167   20.1942  C     
26   C        77.7238   63.6360   19.4344  C     
27   C        77.3844   63.3532   18.0945  C     
28   C        75.4571   64.8182   18.2706  C     
29   C        75.7896   65.1027   19.6099  C     
30   C        73.4340   63.4861   15.2347  C     
31   C        74.2142   61.8052   16.8062  C     
32   C        72.9511   61.1838   16.7665  C     
33   C        71.9356   61.7080   15.9473  C     
34   C        72.1851   62.8549   15.1664  C     
35   H        81.1816   66.5235   11.3986  H     
36   H        79.8090   65.4397   10.9954  H     
37   H        81.4228   63.7713   11.2099  H     
38   H        82.4371   64.7388   12.3395  H     
39   H        80.0926   64.8611   14.8567  H     
40   H        80.4731   66.7470   13.6462  H     
41   H        78.8784   66.4762   12.8918  H     
42   H        82.7704   62.2172   12.4202  H     
43   H        82.5503   59.6563   12.6598  H     
44   H        80.8140   59.6490   14.5298  H     
45   H        80.4147   58.6516   13.1195  H     
46   H        79.6239   60.2145   13.3448  H     
47   H        80.4513   61.1874   11.0385  H     
48   H        80.9977   59.5188   10.7433  H     
49   H        82.1424   60.8706   10.5606  H     
50   H        82.8534   60.8232   14.9644  H     
51   H        85.0262   60.2998   15.6696  H     
52   H        86.8320   60.9619   14.2890  H     
53   H        87.2265   61.0545   15.9107  H     
54   H        86.9148   62.4518   15.0437  H     
55   H        85.0736   63.1948   16.7159  H     
56   H        85.6201   61.7577   17.6094  H     
57   H        83.9135   61.9107   17.1546  H     
58   H        78.5695   63.6395   15.7417  H     
59   H        76.2647   62.6755   14.1646  H     
60   H        76.9810   61.8630   15.5554  H     
61   H        75.7192   64.6370   15.5971  H     
62   H        77.1861   64.7172   21.1696  H     
63   H        78.5512   63.1867   19.8503  H     
64   H        77.9686   62.6882   17.5873  H     
65   H        74.6142   65.2737   17.8840  H     
66   H        75.2224   65.7464   20.1719  H     
67   H        73.5953   64.3182   14.6572  H     
68   H        74.9387   61.3969   17.4027  H     
69   H        72.7642   60.3453   17.3297  H     
70   H        71.0158   61.2633   15.9119  H     
71   H        71.4532   63.2255   14.5496  H     
@<TRIPOS>BOND
     1    1    2 1
     2    1    5 1
     3    2    3 1
     4    3    4 1
     5    3    7 am
     6    4    5 1
     7    4    6 1
     8    6   19 am
     9    6   20 2
    10    7    8 2
    11    7    9 1
    12    9   10 1
    13    9   13 1
    14   10   11 1
    15   10   12 1
    16   13   14 am
    17   14   15 1
    18   14   16 2
    19   15   17 1
    20   15   18 1
    21   19   21 1
    22   21   22 1
    23   22   23 1
    24   22   24 1
    25   23   30 1
    26   23   31 2
    27   24   27 1
    28   24   28 2
    29   25   26 1
    30   25   29 2
    31   26   27 2
    32   28   29 1
    33   30   34 2
    34   31   32 1
    35   32   33 2
    36   33   34 1
    37    1   35 1
    38    1   36 1
    39    2   37 1
    40    2   38 1
    41    4   39 1
    42    5   40 1
    43    5   41 1
    44    9   42 1
    45   10   43 1
    46   11   44 1
    47   11   45 1
    48   11   46 1
    49   12   47 1
    50   12   48 1
    51   12   49 1
    52   13   50 1
    53   15   51 1
    54   17   52 1
    55   17   53 1
    56   17   54 1
    57   18   55 1
    58   18   56 1
    59   18   57 1
    60   19   58 1
    61   21   59 1
    62   21   60 1
    63   22   61 1
    64   25   62 1
    65   26   63 1
    66   27   64 1
    67   28   65 1
    68   29   66 1
    69   30   67 1
    70   31   68 1
    71   32   69 1
    72   33   70 1
    73   34   71 1
@<TRIPOS>PROPERTY_DATA
  Total_Score	| 8.2054
  Crash		| -1.5800
  Polar		| 4.6960
  FragIndex	| 1
  FragRMSD	| 0.606

