@<TRIPOS>MOLECULE
BindingDB_27933
 73 76 0 0 0
SMALL
NO_CHARGES


@<TRIPOS>ATOM
1    C        76.2816   63.2820   16.1428  C     
2    C        77.0483   64.0611   15.1768  C     
3    N        77.6939   63.4397   14.1928  N     
4    O        77.0652   65.2918   15.2683  O     
5    C        78.4827   64.0148   13.1350  C     
6    C        78.9013   65.8843   11.6390  C     
7    C        79.9397   65.9789   12.7832  C     
8    C        79.8336   64.6604   13.5773  C     
9    C        77.7573   65.0592   12.2460  C     
10   C        81.4044   66.0571   12.3225  C     
11   C        81.8875   64.5963   12.3400  C     
12   N        81.0169   63.8979   13.2452  N     
13   C        81.2532   62.6699   13.7343  C     
14   C        82.2572   61.7178   13.2277  C     
15   O        80.6147   62.3112   14.7190  O     
16   N        83.1633   61.3979   14.3099  N     
17   C        81.6388   60.4089   12.5663  C     
18   C        80.9094   60.7714   11.2234  C     
19   C        82.7964   59.4080   12.2100  C     
20   C        80.6155   59.6556   13.4846  C     
21   C        84.4141   61.8487   14.4776  C     
22   C        85.2151   61.4416   15.6369  C     
23   O        84.8954   62.6157   13.6667  O     
24   N        86.2574   60.4045   15.3983  N     
25   C        85.8345   62.6645   16.3622  C     
26   C        86.9870   60.3349   14.1073  C     
27   C        76.5718   63.6295   17.5292  C     
28   C        74.7574   63.5816   16.1169  C     
29   O        74.4241   64.4134   17.2441  O     
30   C        77.7950   63.8516   19.6064  C     
31   C        77.7509   63.4222   18.2664  C     
32   C        75.4778   64.2795   18.0909  C     
33   C        75.5207   64.7242   19.4209  C     
34   C        76.6877   64.5106   20.1817  C     
35   H        76.4507   62.2083   15.9998  H     
36   H        77.6244   62.4692   14.1694  H     
37   H        78.7186   63.1764   12.4650  H     
38   H        78.5552   66.8782   11.3271  H     
39   H        79.3101   65.3575   10.7658  H     
40   H        79.6877   66.8358   13.4224  H     
41   H        79.8419   64.8828   14.6511  H     
42   H        77.1505   64.5758   11.4650  H     
43   H        77.1140   65.7301   12.8238  H     
44   H        81.5069   66.5069   11.3329  H     
45   H        81.9742   66.6431   13.0470  H     
46   H        81.8223   64.1501   11.3411  H     
47   H        82.9227   64.5697   12.6959  H     
48   H        82.8238   62.1794   12.4188  H     
49   H        82.8275   60.8012   14.9876  H     
50   H        80.0773   61.4541   11.4049  H     
51   H        80.4994   59.8740   10.7399  H     
52   H        81.5963   61.2535   10.5215  H     
53   H        83.5514   59.8987   11.5848  H     
54   H        82.4216   58.5344   11.6633  H     
55   H        83.2864   59.0476   13.1166  H     
56   H        81.0239   59.5249   14.4947  H     
57   H        80.3572   58.6744   13.0765  H     
58   H        79.6787   60.2177   13.5683  H     
59   H        84.5369   60.9886   16.3678  H     
60   H        86.9692   60.5123   16.1206  H     
61   H        85.8367   59.4809   15.5484  H     
62   H        86.5704   63.1520   15.7177  H     
63   H        86.3345   62.3429   17.2793  H     
64   H        85.0602   63.3907   16.6292  H     
65   H        86.3013   60.0212   13.3150  H     
66   H        87.7867   59.6108   14.1987  H     
67   H        87.4149   61.3084   13.8487  H     
68   H        74.4334   64.0713   15.1930  H     
69   H        74.1954   62.6444   16.2070  H     
70   H        78.6239   63.6671   20.1680  H     
71   H        78.5430   62.9343   17.8435  H     
72   H        74.7082   65.1808   19.8378  H     
73   H        76.7279   64.8143   21.1536  H     
@<TRIPOS>BOND
     1    1    2 1
     2    1   27 1
     3    1   28 1
     4    2    3 am
     5    2    4 2
     6    5    3 1
     7    5    8 1
     8    5    9 1
     9    6    7 1
    10    6    9 1
    11    7    8 1
    12    7   10 1
    13    8   12 1
    14   10   11 1
    15   11   12 1
    16   12   13 am
    17   13   14 1
    18   13   15 2
    19   14   16 1
    20   14   17 1
    21   16   21 am
    22   17   18 1
    23   17   19 1
    24   17   20 1
    25   21   22 1
    26   21   23 2
    27   22   24 1
    28   22   25 1
    29   24   26 1
    30   27   31 1
    31   27   32 2
    32   28   29 1
    33   29   32 1
    34   30   31 2
    35   30   34 1
    36   32   33 1
    37   33   34 2
    38    1   35 1
    39    3   36 1
    40    5   37 1
    41    6   38 1
    42    6   39 1
    43    7   40 1
    44    8   41 1
    45    9   42 1
    46    9   43 1
    47   10   44 1
    48   10   45 1
    49   11   46 1
    50   11   47 1
    51   14   48 1
    52   16   49 1
    53   18   50 1
    54   18   51 1
    55   18   52 1
    56   19   53 1
    57   19   54 1
    58   19   55 1
    59   20   56 1
    60   20   57 1
    61   20   58 1
    62   22   59 1
    63   24   60 1
    64   24   61 1
    65   25   62 1
    66   25   63 1
    67   25   64 1
    68   26   65 1
    69   26   66 1
    70   26   67 1
    71   28   68 1
    72   28   69 1
    73   30   70 1
    74   31   71 1
    75   33   72 1
    76   34   73 1
@<TRIPOS>PROPERTY_DATA
  Total_Score	| 10.6407
  Crash		| -1.6294
  Polar		| 5.6667
  FragIndex	| 1
  FragRMSD	| 0.689

