@<TRIPOS>MOLECULE
BindingDB_27941
 70 72 0 0 0
SMALL
NO_CHARGES


@<TRIPOS>ATOM
1    C        81.3944   66.0546   12.3705  C     
2    C        81.8890   64.6020   12.3660  C     
3    N        80.9996   63.8643   13.2152  N     
4    C        79.8203   64.6117   13.5669  C     
5    C        79.9484   65.9912   12.8639  C     
6    C        78.4668   63.9046   13.2290  C     
7    N        77.4603   64.3230   14.1455  N     
8    C        77.1114   63.7026   15.2704  C     
9    O        77.5668   62.5919   15.5187  O     
10   C        81.2879   62.6325   13.6911  C     
11   O        80.6200   62.2189   14.6355  O     
12   C        82.3176   61.7018   13.1843  C     
13   C        81.7189   60.4264   12.4557  C     
14   C        80.6183   59.6715   13.2875  C     
15   C        81.0867   60.8360   11.0691  C     
16   C        82.8729   59.4012   12.1448  C     
17   N        83.2256   61.3602   14.2607  N     
18   C        84.4589   61.8442   14.4732  C     
19   C        85.2421   61.4074   15.6280  C     
20   O        84.9660   62.6307   13.6683  O     
21   N        86.2502   60.3371   15.3632  N     
22   C        85.8439   62.6243   16.3887  C     
23   C        86.9299   60.2634   14.0498  C     
24   C        76.2270   64.2837   16.1687  C     
25   C        76.4298   64.2989   17.5887  C     
26   C        75.0542   64.8860   15.6486  C     
27   C        74.0978   65.4794   16.4862  C     
28   C        74.2840   65.4780   17.8735  C     
29   C        75.4425   64.9053   18.4357  C     
30   C        75.6436   64.9392   19.8227  C     
31   C        76.7741   64.4429   20.3613  C     
32   C        77.7370   63.8847   19.5738  C     
33   C        77.5884   63.8118   18.2355  C     
34   H        81.9826   66.6564   13.0644  H     
35   H        81.4611   66.5101   11.3801  H     
36   H        81.8888   64.1985   11.3502  H     
37   H        82.9077   64.5891   12.7629  H     
38   H        79.8779   64.7681   14.6451  H     
39   H        79.7293   66.8024   13.5574  H     
40   H        79.2784   66.0838   12.0113  H     
41   H        78.1456   64.1435   12.2147  H     
42   H        78.5758   62.8190   13.2401  H     
43   H        77.0782   65.2004   13.9940  H     
44   H        82.8951   62.2142   12.4156  H     
45   H        80.9693   59.4768   14.3099  H     
46   H        80.3486   58.7136   12.8233  H     
47   H        79.6982   60.2680   13.3456  H     
48   H        80.2587   61.5438   11.2115  H     
49   H        80.6951   59.9595   10.5334  H     
50   H        81.8446   61.3140   10.4366  H     
51   H        83.6667   59.8837   11.5660  H     
52   H        82.5086   58.5474   11.5651  H     
53   H        83.3080   59.0181   13.0745  H     
54   H        82.8942   60.7230   14.9162  H     
55   H        84.5596   60.9420   16.3475  H     
56   H        87.0041   60.4767   16.0416  H     
57   H        85.8075   59.4327   15.5657  H     
58   H        86.4830   63.2250   15.7406  H     
59   H        86.4369   62.2827   17.2405  H     
60   H        85.0441   63.2704   16.7665  H     
61   H        86.1995   60.0457   13.2463  H     
62   H        87.6671   59.4462   14.1010  H     
63   H        87.4577   61.2025   13.8408  H     
64   H        74.8712   64.8913   14.6439  H     
65   H        73.2578   65.9039   16.0832  H     
66   H        73.5723   65.9197   18.4654  H     
67   H        74.9598   65.3348   20.4249  H     
68   H        76.9116   64.4837   21.3438  H     
69   H        78.5678   63.5333   19.9983  H     
70   H        78.3432   63.4335   17.7141  H     
@<TRIPOS>BOND
     1    1    2 1
     2    1    5 1
     3    2    3 1
     4    3    4 1
     5    3   10 am
     6    4    5 1
     7    4    6 1
     8    6    7 1
     9    7    8 am
    10    8    9 2
    11    8   24 1
    12   10   11 2
    13   10   12 1
    14   12   13 1
    15   12   17 1
    16   13   14 1
    17   13   15 1
    18   13   16 1
    19   17   18 am
    20   18   19 1
    21   18   20 2
    22   19   21 1
    23   19   22 1
    24   21   23 1
    25   24   25 2
    26   24   26 1
    27   25   29 1
    28   25   33 1
    29   26   27 2
    30   27   28 1
    31   28   29 2
    32   29   30 1
    33   30   31 2
    34   31   32 1
    35   32   33 2
    36    1   34 1
    37    1   35 1
    38    2   36 1
    39    2   37 1
    40    4   38 1
    41    5   39 1
    42    5   40 1
    43    6   41 1
    44    6   42 1
    45    7   43 1
    46   12   44 1
    47   14   45 1
    48   14   46 1
    49   14   47 1
    50   15   48 1
    51   15   49 1
    52   15   50 1
    53   16   51 1
    54   16   52 1
    55   16   53 1
    56   17   54 1
    57   19   55 1
    58   21   56 1
    59   21   57 1
    60   22   58 1
    61   22   59 1
    62   22   60 1
    63   23   61 1
    64   23   62 1
    65   23   63 1
    66   26   64 1
    67   27   65 1
    68   28   66 1
    69   30   67 1
    70   31   68 1
    71   32   69 1
    72   33   70 1
@<TRIPOS>PROPERTY_DATA
  Total_Score	| 10.3467
  Crash		| -1.7188
  Polar		| 5.7072
  FragIndex	| 1
  FragRMSD	| 0.194

