@<TRIPOS>MOLECULE
BindingDB_27925
 74 76 0 0 0
SMALL
NO_CHARGES


@<TRIPOS>ATOM
1    C        75.7444   64.0921   14.9412  C     
2    C        76.8221   63.3072   15.2662  C     
3    N        77.9553   63.2081   14.5899  N     
4    O        76.7556   62.6594   16.3036  O     
5    C        78.4525   63.8217   13.3874  C     
6    C        78.6616   65.6065   11.7664  C     
7    C        79.8065   65.8080   12.7837  C     
8    C        79.8243   64.5286   13.6425  C     
9    C        77.6138   64.8654   12.6095  C     
10   C        81.2190   65.9124   12.1912  C     
11   C        81.7615   64.4749   12.2351  C     
12   N        80.9839   63.7772   13.2197  N     
13   C        81.2980   62.5660   13.7208  C     
14   C        82.3318   61.6521   13.2060  C     
15   O        80.7001   62.1792   14.7135  O     
16   N        83.2244   61.3417   14.2982  N     
17   C        81.7680   60.3425   12.5089  C     
18   C        80.6784   59.6136   13.3633  C     
19   C        81.1434   60.7048   11.1200  C     
20   C        82.9400   59.3384   12.2442  C     
21   C        84.4656   61.7999   14.4946  C     
22   C        85.2593   61.3673   15.6446  C     
23   O        84.9464   62.6146   13.7156  O     
24   N        86.2717   60.3179   15.3492  N     
25   C        85.9167   62.5673   16.3793  C     
26   C        86.7956   60.1766   13.9714  C     
27   C        74.6178   66.2661   15.0214  C     
28   C        75.7006   65.4349   15.3733  C     
29   C        74.6702   63.5628   14.1968  C     
30   C        73.5712   64.3793   13.8677  C     
31   C        73.5447   65.7245   14.2784  C     
32   S        74.6272   67.9435   15.4935  S     
33   C        73.9116   69.0440   14.2588  C     
34   O        73.8496   68.0954   16.8709  O     
35   O        76.1247   68.4193   15.7566  O     
36   H        78.5827   62.5864   14.9888  H     
37   H        78.6166   62.9875   12.6956  H     
38   H        78.2770   66.5602   11.3880  H     
39   H        78.9771   64.9864   10.9180  H     
40   H        79.5885   66.6851   13.4065  H     
41   H        79.9272   64.8007   14.6946  H     
42   H        76.8493   64.3978   11.9781  H     
43   H        77.1368   65.5886   13.2790  H     
44   H        81.2135   66.3245   11.1796  H     
45   H        81.8327   66.5536   12.8297  H     
46   H        81.6617   63.9962   11.2565  H     
47   H        82.8175   64.5056   12.5194  H     
48   H        82.9044   62.1596   12.4266  H     
49   H        82.8785   60.7367   14.9718  H     
50   H        81.0226   59.4550   14.3878  H     
51   H        80.4326   58.6333   12.9391  H     
52   H        79.7520   60.1964   13.4101  H     
53   H        80.3038   61.3966   11.2291  H     
54   H        80.7728   59.8099   10.6122  H     
55   H        81.8839   61.1746   10.4708  H     
56   H        83.7445   59.8261   11.6926  H     
57   H        82.5964   58.4848   11.6563  H     
58   H        83.3453   58.9572   13.1812  H     
59   H        84.5921   60.9113   16.3792  H     
60   H        87.0823   60.4834   15.9520  H     
61   H        85.8827   59.4108   15.6239  H     
62   H        86.6429   63.0696   15.7353  H     
63   H        86.4365   62.2203   17.2757  H     
64   H        85.1625   63.2972   16.6882  H     
65   H        86.0093   59.8249   13.3026  H     
66   H        87.6048   59.4451   13.9738  H     
67   H        87.1881   61.1259   13.6140  H     
68   H        76.4688   65.8102   15.9351  H     
69   H        74.6766   62.5873   13.8829  H     
70   H        72.7948   63.9952   13.3241  H     
71   H        72.7409   66.3060   14.0256  H     
72   H        74.3914   68.8692   13.2960  H     
73   H        74.0745   70.0808   14.5572  H     
74   H        72.8416   68.8567   14.1727  H     
@<TRIPOS>BOND
     1    1    2 1
     2    1   28 1
     3    1   29 2
     4    2    3 am
     5    2    4 2
     6    5    3 1
     7    5    8 1
     8    5    9 1
     9    6    7 1
    10    6    9 1
    11    7    8 1
    12    7   10 1
    13    8   12 1
    14   10   11 1
    15   11   12 1
    16   12   13 am
    17   13   14 1
    18   13   15 2
    19   14   16 1
    20   14   17 1
    21   16   21 am
    22   17   18 1
    23   17   19 1
    24   17   20 1
    25   21   22 1
    26   21   23 2
    27   22   24 1
    28   22   25 1
    29   24   26 1
    30   27   28 2
    31   27   31 1
    32   27   32 1
    33   29   30 1
    34   30   31 2
    35   32   33 1
    36   32   34 2
    37   32   35 2
    38    3   36 1
    39    5   37 1
    40    6   38 1
    41    6   39 1
    42    7   40 1
    43    8   41 1
    44    9   42 1
    45    9   43 1
    46   10   44 1
    47   10   45 1
    48   11   46 1
    49   11   47 1
    50   14   48 1
    51   16   49 1
    52   18   50 1
    53   18   51 1
    54   18   52 1
    55   19   53 1
    56   19   54 1
    57   19   55 1
    58   20   56 1
    59   20   57 1
    60   20   58 1
    61   22   59 1
    62   24   60 1
    63   24   61 1
    64   25   62 1
    65   25   63 1
    66   25   64 1
    67   26   65 1
    68   26   66 1
    69   26   67 1
    70   28   68 1
    71   29   69 1
    72   30   70 1
    73   31   71 1
    74   33   72 1
    75   33   73 1
    76   33   74 1
@<TRIPOS>PROPERTY_DATA
  Total_Score	| 8.3110
  Crash		| -1.4105
  Polar		| 7.9954
  FragIndex	| 1
  FragRMSD	| 0.362

