@<TRIPOS>MOLECULE
BindingDB_27918
 81 84 0 0 0
SMALL
NO_CHARGES


@<TRIPOS>ATOM
1    C        75.5104   62.2824   16.1189  C     
2    C        76.7472   63.0694   16.4708  C     
3    C        77.3397   63.8900   15.4045  C     
4    N        77.8661   63.2788   14.3489  N     
5    O        77.3303   65.1321   15.4062  O     
6    C        78.4982   63.8751   13.2150  C     
7    C        78.6426   65.8052   11.7464  C     
8    C        79.8235   65.9169   12.7373  C     
9    C        79.8306   64.6120   13.5571  C     
10   C        77.6264   64.8810   12.4425  C     
11   C        81.2450   65.9830   12.1448  C     
12   C        81.7704   64.5367   12.1865  C     
13   N        80.9997   63.8622   13.1853  N     
14   C        81.2939   62.6631   13.7256  C     
15   C        82.3095   61.7182   13.2533  C     
16   O        80.6685   62.3158   14.7191  O     
17   N        83.2092   61.4540   14.3494  N     
18   C        81.7135   60.3733   12.6446  C     
19   C        81.0682   60.6587   11.2466  C     
20   C        82.8736   59.3479   12.4134  C     
21   C        80.6287   59.6890   13.5475  C     
22   C        84.4813   61.8379   14.4774  C     
23   C        85.2794   61.4076   15.6304  C     
24   O        84.9871   62.5789   13.6467  O     
25   N        86.3053   60.3583   15.3557  N     
26   C        85.8986   62.6058   16.4088  C     
27   C        86.9303   60.2455   14.0205  C     
28   C        76.5918   63.8443   17.7546  C     
29   C        73.9765   61.2249   14.4927  C     
30   C        75.0532   62.0758   14.7783  C     
31   C        74.7915   61.6135   17.1505  C     
32   C        73.6842   60.7947   16.8708  C     
33   C        73.2693   60.5928   15.5414  C     
34   C        77.4517   63.6271   18.8578  C     
35   C        77.2664   64.3052   20.0712  C     
36   C        76.2250   65.2450   20.1990  C     
37   C        75.3662   65.4794   19.1176  C     
38   C        75.5474   64.7886   17.9060  C     
39   H        77.4972   62.2929   16.6623  H     
40   H        77.8260   62.3113   14.3501  H     
41   H        78.7149   63.0615   12.5178  H     
42   H        78.2035   66.7795   11.5250  H     
43   H        78.9637   65.3522   10.8103  H     
44   H        79.6454   66.7831   13.3912  H     
45   H        79.9015   64.8685   14.6183  H     
46   H        76.9822   64.3804   11.7132  H     
47   H        76.9751   65.4199   13.1598  H     
48   H        81.2602   66.3958   11.1302  H     
49   H        81.8685   66.6117   12.7884  H     
50   H        81.6396   64.0520   11.2176  H     
51   H        82.8341   64.5534   12.4469  H     
52   H        82.8724   62.1773   12.4395  H     
53   H        82.8640   60.8793   15.0453  H     
54   H        80.2470   61.3677   11.3305  H     
55   H        80.6662   59.7431   10.8042  H     
56   H        81.8022   61.0736   10.5532  H     
57   H        83.6762   59.7957   11.8246  H     
58   H        82.5225   58.4625   11.8746  H     
59   H        83.2941   59.0099   13.3619  H     
60   H        80.9656   59.6258   14.5817  H     
61   H        80.4121   58.6727   13.2031  H     
62   H        79.6882   60.2439   13.5323  H     
63   H        84.6126   60.9350   16.3559  H     
64   H        87.0730   60.5005   16.0164  H     
65   H        85.8959   59.4456   15.5758  H     
66   H        86.5904   63.1678   15.7841  H     
67   H        86.4403   62.2479   17.2865  H     
68   H        85.1152   63.2828   16.7581  H     
69   H        86.2387   59.7829   13.3137  H     
70   H        87.8216   59.6200   14.1064  H     
71   H        87.2452   61.2194   13.6492  H     
72   H        73.6795   61.0728   13.5277  H     
73   H        75.5135   62.5255   13.9806  H     
74   H        75.0881   61.7165   18.1274  H     
75   H        73.1881   60.3259   17.6378  H     
76   H        72.4775   59.9811   15.3337  H     
77   H        78.2221   62.9566   18.7894  H     
78   H        77.8881   64.1261   20.8584  H     
79   H        76.0820   65.7333   21.0844  H     
80   H        74.6176   66.1637   19.1947  H     
81   H        74.9094   64.9788   17.1331  H     
@<TRIPOS>BOND
     1    1    2 1
     2    1   30 1
     3    1   31 2
     4    2    3 1
     5    2   28 1
     6    3    4 am
     7    3    5 2
     8    6    4 1
     9    6    9 1
    10    6   10 1
    11    7    8 1
    12    7   10 1
    13    8    9 1
    14    8   11 1
    15    9   13 1
    16   11   12 1
    17   12   13 1
    18   13   14 am
    19   14   15 1
    20   14   16 2
    21   15   17 1
    22   15   18 1
    23   17   22 am
    24   18   19 1
    25   18   20 1
    26   18   21 1
    27   22   23 1
    28   22   24 2
    29   23   25 1
    30   23   26 1
    31   25   27 1
    32   28   34 1
    33   28   38 2
    34   29   30 2
    35   29   33 1
    36   31   32 1
    37   32   33 2
    38   34   35 2
    39   35   36 1
    40   36   37 2
    41   37   38 1
    42    2   39 1
    43    4   40 1
    44    6   41 1
    45    7   42 1
    46    7   43 1
    47    8   44 1
    48    9   45 1
    49   10   46 1
    50   10   47 1
    51   11   48 1
    52   11   49 1
    53   12   50 1
    54   12   51 1
    55   15   52 1
    56   17   53 1
    57   19   54 1
    58   19   55 1
    59   19   56 1
    60   20   57 1
    61   20   58 1
    62   20   59 1
    63   21   60 1
    64   21   61 1
    65   21   62 1
    66   23   63 1
    67   25   64 1
    68   25   65 1
    69   26   66 1
    70   26   67 1
    71   26   68 1
    72   27   69 1
    73   27   70 1
    74   27   71 1
    75   29   72 1
    76   30   73 1
    77   31   74 1
    78   32   75 1
    79   33   76 1
    80   34   77 1
    81   35   78 1
    82   36   79 1
    83   37   80 1
    84   38   81 1
@<TRIPOS>PROPERTY_DATA
  Total_Score	| 10.3661
  Crash		| -2.2498
  Polar		| 5.8220
  FragIndex	| 1
  FragRMSD	| 0.364

