@<TRIPOS>MOLECULE
BindingDB_27923
 74 77 0 0 0
SMALL
NO_CHARGES


@<TRIPOS>ATOM
1    C        77.0676   63.4307   16.0485  C     
2    C        77.8280   63.2214   14.9171  C     
3    N        77.5472   64.0193   13.8894  N     
4    O        78.8738   62.5900   14.9413  O     
5    C        78.4702   64.4153   12.8731  C     
6    C        78.7884   66.8448   12.5190  C     
7    C        80.1502   66.2184   12.8696  C     
8    C        79.8451   64.8452   13.4995  C     
9    C        77.9091   65.6448   12.1050  C     
10   C        81.0404   65.8720   11.6671  C     
11   C        81.7455   64.5697   12.0985  C     
12   N        80.9637   63.9948   13.1605  N     
13   C        81.2778   62.8465   13.8095  C     
14   C        82.2825   61.8663   13.3520  C     
15   O        80.6946   62.5728   14.8588  O     
16   N        83.1793   61.5560   14.4389  N     
17   C        81.7236   60.5410   12.6747  C     
18   C        81.0909   60.8755   11.2825  C     
19   C        82.9032   59.5334   12.4265  C     
20   C        80.6528   59.7953   13.5361  C     
21   C        84.4733   61.8721   14.5355  C     
22   C        85.2938   61.3159   15.6126  C     
23   O        84.9829   62.6598   13.7454  O     
24   N        86.2862   60.2716   15.2077  N     
25   C        85.9712   62.4404   16.4352  C     
26   C        86.7505   60.1992   13.8102  C     
27   C        76.9667   63.9084   18.4543  C     
28   C        77.6691   63.4291   17.3301  C     
29   C        75.7119   63.8348   15.9312  C     
30   C        74.9971   64.2852   17.0444  C     
31   C        75.6162   64.3544   18.3100  C     
32   C        74.9645   64.8796   19.4259  C     
33   C        75.6097   64.9904   20.6107  C     
34   C        76.9024   64.5583   20.7487  C     
35   C        77.5739   64.0210   19.7123  C     
36   H        76.7276   64.5371   13.9468  H     
37   H        78.6081   63.5980   12.1534  H     
38   H        78.3689   67.3245   13.4136  H     
39   H        78.8622   67.5844   11.7139  H     
40   H        80.7072   66.8630   13.5596  H     
41   H        79.7770   64.9962   14.5917  H     
42   H        78.0139   65.4768   11.0254  H     
43   H        76.8578   65.8433   12.3232  H     
44   H        80.4535   65.6756   10.7602  H     
45   H        81.7444   66.6776   11.4604  H     
46   H        81.8224   63.8968   11.2342  H     
47   H        82.7437   64.7956   12.4778  H     
48   H        82.8770   62.3223   12.5650  H     
49   H        82.8247   60.9924   15.1393  H     
50   H        80.2448   61.5571   11.3962  H     
51   H        80.7325   59.9682   10.7905  H     
52   H        81.8259   61.3490   10.6272  H     
53   H        83.6794   59.9914   11.8080  H     
54   H        82.5487   58.6383   11.9156  H     
55   H        83.3589   59.2237   13.3709  H     
56   H        81.0151   59.6176   14.5466  H     
57   H        80.3992   58.8300   13.0985  H     
58   H        79.7312   60.3673   13.6118  H     
59   H        84.6331   60.7933   16.3144  H     
60   H        87.1244   60.3940   15.7759  H     
61   H        85.8971   59.3569   15.4387  H     
62   H        86.6864   62.9942   15.8333  H     
63   H        86.4935   62.0177   17.2905  H     
64   H        85.2249   63.1417   16.8068  H     
65   H        85.9435   59.8753   13.1507  H     
66   H        87.5516   59.4572   13.7513  H     
67   H        87.1359   61.1615   13.4762  H     
68   H        78.6573   63.1767   17.4276  H     
69   H        75.2586   63.8558   15.0102  H     
70   H        74.0325   64.5982   16.9217  H     
71   H        74.0248   65.1980   19.3600  H     
72   H        75.1405   65.3933   21.3898  H     
73   H        77.3488   64.6342   21.6354  H     
74   H        78.5057   63.7105   19.8468  H     
@<TRIPOS>BOND
     1    1    2 1
     2    1   28 1
     3    1   29 2
     4    2    3 am
     5    2    4 2
     6    5    3 1
     7    5    8 1
     8    5    9 1
     9    6    7 1
    10    6    9 1
    11    7    8 1
    12    7   10 1
    13    8   12 1
    14   10   11 1
    15   11   12 1
    16   12   13 am
    17   13   14 1
    18   13   15 2
    19   14   16 1
    20   14   17 1
    21   16   21 am
    22   17   18 1
    23   17   19 1
    24   17   20 1
    25   21   22 1
    26   21   23 2
    27   22   24 1
    28   22   25 1
    29   24   26 1
    30   27   28 2
    31   27   31 1
    32   27   35 1
    33   29   30 1
    34   30   31 2
    35   31   32 1
    36   32   33 2
    37   33   34 1
    38   34   35 2
    39    3   36 1
    40    5   37 1
    41    6   38 1
    42    6   39 1
    43    7   40 1
    44    8   41 1
    45    9   42 1
    46    9   43 1
    47   10   44 1
    48   10   45 1
    49   11   46 1
    50   11   47 1
    51   14   48 1
    52   16   49 1
    53   18   50 1
    54   18   51 1
    55   18   52 1
    56   19   53 1
    57   19   54 1
    58   19   55 1
    59   20   56 1
    60   20   57 1
    61   20   58 1
    62   22   59 1
    63   24   60 1
    64   24   61 1
    65   25   62 1
    66   25   63 1
    67   25   64 1
    68   26   65 1
    69   26   66 1
    70   26   67 1
    71   28   68 1
    72   29   69 1
    73   30   70 1
    74   32   71 1
    75   33   72 1
    76   34   73 1
    77   35   74 1
@<TRIPOS>PROPERTY_DATA
  Total_Score	| 10.3312
  Crash		| -2.9207
  Polar		| 5.9086
  FragIndex	| 1
  FragRMSD	| 0.471

