@<TRIPOS>MOLECULE
BindingDB_50341987
 109 110 0 0 0
SMALL
NO_CHARGES


@<TRIPOS>ATOM
1    C        13.7469   34.5972   13.6317  C     
2    C        12.3781   34.6076   13.3231  C     
3    C        11.9076   35.1562   12.1066  C     
4    C        12.8635   35.6974   11.2106  C     
5    C        14.2341   35.6806   11.5170  C     
6    C        14.7012   35.1493   12.7423  C     
7    C        16.1525   35.2262   13.1212  C     
8    C        16.7409   33.9072   13.3355  C     
9    O        16.1737   33.0989   14.0632  O     
10   N        17.8944   33.5885   12.7565  N     
11   C        18.5831   32.3271   12.7981  C     
12   C        19.8101   32.4954   13.5588  C     
13   N        20.1381   31.6354   14.5261  N     
14   O        20.5824   33.4056   13.2660  O     
15   C        21.3572   31.6226   15.2814  C     
16   C        22.3724   30.8368   14.5821  C     
17   N        22.1490   29.5893   14.2207  N     
18   O        23.4700   31.3180   14.3159  O     
19   C        10.4350   35.2327   11.8337  C     
20   P         9.7860   36.7092   12.2786  P     
21   F        10.1307   35.0297   10.5036  F     
22   F         9.7632   34.2304   12.5014  F     
23   O        10.5712   37.3769   13.4290  O     
24   O         8.4154   36.5844   12.7011  O     
25   O         9.7992   37.6823   11.0801  O     
26   C        18.8879   31.8323   11.3519  C     
27   C        17.6749   31.5064   10.5920  C     
28   O        17.3965   32.1375    9.4290  O     
29   O        16.8503   30.5254   11.0145  O     
30   C        21.0885   31.0834   16.7282  C     
31   C        22.2979   31.1360   17.6074  C     
32   C        22.9397   32.3689   17.8696  C     
33   C        24.1067   32.4184   18.6499  C     
34   C        24.7017   31.2357   19.1610  C     
35   C        24.0245   30.0134   18.9345  C     
36   C        22.8422   29.9624   18.1750  C     
37   C        25.9935   31.2977   19.9155  C     
38   P        25.7690   31.5258   21.5491  P     
39   F        26.7442   30.1560   19.7575  F     
40   F        26.7876   32.3088   19.4259  F     
41   O        25.0344   32.8296   21.8914  O     
42   O        24.9281   30.3879   22.1520  O     
43   O        27.0137   31.5506   22.2734  O     
44   N        16.3038   36.0449   14.2992  N     
45   C        16.4778   37.3637   14.3228  C     
46   C        16.3476   38.0780   15.5820  C     
47   O        16.6376   38.0044   13.2909  O     
48   C        17.5705   37.9870   16.5443  C     
49   C        18.4916   39.2506   16.6031  C     
50   C        19.8782   39.1066   15.9177  C     
51   C        19.8784   39.3342   14.3781  C     
52   C        21.0519   38.6114   13.6495  C     
53   C        20.9954   37.0495   13.7257  C     
54   C        22.2746   36.3685   14.2916  C     
55   C        23.5574   36.5394   13.4156  C     
56   C        24.6005   35.3845   13.5296  C     
57   C        25.5600   35.4130   14.7535  C     
58   C        24.9274   35.0092   16.1130  C     
59   C        25.9399   35.0805   17.2887  C     
60   C        25.4044   35.8522   18.5138  C     
61   H        14.0376   34.2197   14.5366  H     
62   H        11.7225   34.2223   14.0089  H     
63   H        12.5644   36.1254   10.3321  H     
64   H        14.8908   36.0878   10.8519  H     
65   H        16.7136   35.7214   12.3217  H     
66   H        18.3229   34.2846   12.2343  H     
67   H        17.9649   31.5654   13.2907  H     
68   H        19.4953   30.9417   14.7423  H     
69   H        21.6985   32.6600   15.3819  H     
70   H        22.8408   29.0890   13.7552  H     
71   H        21.2895   29.1652   14.4121  H     
72   H        19.4497   32.6028   10.8214  H     
73   H        19.5070   30.9337   11.3939  H     
74   H        20.3093   31.6934   17.1968  H     
75   H        20.6959   30.0584   16.6608  H     
76   H        22.5749   33.2456   17.4807  H     
77   H        24.5344   33.3206   18.8329  H     
78   H        24.3896   29.1358   19.3104  H     
79   H        22.3913   29.0606   18.0055  H     
80   H        16.1620   35.6130   15.1606  H     
81   H        16.0975   39.1269   15.4026  H     
82   H        15.4775   37.6535   16.0849  H     
83   H        17.1583   37.8391   17.5470  H     
84   H        18.1576   37.0851   16.3424  H     
85   H        17.9855   40.1293   16.1989  H     
86   H        18.6860   39.4704   17.6583  H     
87   H        20.5505   39.8482   16.3600  H     
88   H        20.2896   38.1221   16.1494  H     
89   H        18.9351   38.9973   13.9460  H     
90   H        19.9532   40.4145   14.1948  H     
91   H        21.0157   38.9064   12.5927  H     
92   H        21.9994   38.9939   14.0428  H     
93   H        20.1508   36.7314   14.3455  H     
94   H        20.7909   36.6543   12.7289  H     
95   H        22.4481   36.7536   15.3010  H     
96   H        22.0400   35.3081   14.3908  H     
97   H        23.2508   36.5885   12.3666  H     
98   H        24.0317   37.4963   13.6486  H     
99   H        24.0951   34.4144   13.4778  H     
100  H        25.2308   35.4468   12.6360  H     
101  H        26.3785   34.7207   14.5299  H     
102  H        25.9834   36.4210   14.8406  H     
103  H        24.1016   35.6862   16.3223  H     
104  H        24.5244   33.9928   16.0450  H     
105  H        26.1998   34.0597   17.5749  H     
106  H        26.8605   35.5631   16.9574  H     
107  H        25.4473   36.9242   18.3149  H     
108  H        26.0172   35.6243   19.3873  H     
109  H        24.3722   35.5815   18.7201  H     
@<TRIPOS>BOND
     1    1    2 2
     2    1    6 1
     3    2    3 1
     4    3    4 2
     5    3   19 1
     6    4    5 1
     7    5    6 2
     8    6    7 1
     9    7    8 1
    10    7   44 1
    11    8    9 2
    12    8   10 am
    13   10   11 1
    14   11   12 1
    15   11   26 1
    16   12   13 am
    17   12   14 2
    18   13   15 1
    19   15   16 1
    20   15   30 1
    21   16   17 am
    22   16   18 2
    23   19   20 1
    24   19   21 1
    25   19   22 1
    26   20   23 1
    27   20   24 2
    28   20   25 1
    29   26   27 1
    30   27   28 2
    31   27   29 1
    32   30   31 1
    33   31   32 2
    34   31   36 1
    35   32   33 1
    36   33   34 2
    37   34   35 1
    38   34   37 1
    39   35   36 2
    40   37   38 1
    41   37   39 1
    42   37   40 1
    43   38   41 1
    44   38   42 1
    45   38   43 2
    46   44   45 am
    47   45   46 1
    48   45   47 2
    49   46   48 1
    50   48   49 1
    51   49   50 1
    52   50   51 1
    53   51   52 1
    54   52   53 1
    55   53   54 1
    56   54   55 1
    57   55   56 1
    58   56   57 1
    59   57   58 1
    60   58   59 1
    61   59   60 1
    62    1   61 1
    63    2   62 1
    64    4   63 1
    65    5   64 1
    66    7   65 1
    67   10   66 1
    68   11   67 1
    69   13   68 1
    70   15   69 1
    71   17   70 1
    72   17   71 1
    73   26   72 1
    74   26   73 1
    75   30   74 1
    76   30   75 1
    77   32   76 1
    78   33   77 1
    79   35   78 1
    80   36   79 1
    81   44   80 1
    82   46   81 1
    83   46   82 1
    84   48   83 1
    85   48   84 1
    86   49   85 1
    87   49   86 1
    88   50   87 1
    89   50   88 1
    90   51   89 1
    91   51   90 1
    92   52   91 1
    93   52   92 1
    94   53   93 1
    95   53   94 1
    96   54   95 1
    97   54   96 1
    98   55   97 1
    99   55   98 1
   100   56   99 1
   101   56  100 1
   102   57  101 1
   103   57  102 1
   104   58  103 1
   105   58  104 1
   106   59  105 1
   107   59  106 1
   108   60  107 1
   109   60  108 1
   110   60  109 1
@<TRIPOS>PROPERTY_DATA
  Total_Score	| 19.3994
  Crash		| -2.0561
  Polar		| 13.8939
  FragIndex	| 1
  FragRMSD	| 0.629

