@<TRIPOS>MOLECULE
BindingDB_50131104
 105 109 0 0 0
SMALL
NO_CHARGES


@<TRIPOS>ATOM
1    P         9.9704   36.5045   13.0039  P     
2    C        10.5948   35.2366   12.1114  C     
3    C        23.5971   33.1025   18.1338  C     
4    C        23.7702   30.7139   18.1874  C     
5    C        24.9516   31.2127   18.7134  C     
6    C        24.8748   32.6128   18.7194  C     
7    C        22.9576   31.7994   17.8373  C     
8    C        16.8516   32.5222   12.8353  C     
9    C        19.5791   33.4117   13.2758  C     
10   N        18.5343   34.2313   13.2981  N     
11   N        17.4408   32.0192   11.7628  N     
12   C        22.6672   32.8467   15.0434  C     
13   C        17.1289   33.9008   13.2536  C     
14   C        17.3708   30.7309   11.0889  C     
15   C        16.5008   29.6677   11.5608  C     
16   N        21.7756   32.8274   14.0381  N     
17   C        23.8395   34.0266   16.8951  C     
18   C        12.0934   35.1371   12.1611  C     
19   C        20.9104   33.9034   13.6446  C     
20   O        10.0541   36.2636   14.4226  O     
21   C        22.3190   37.1054   11.9254  C     
22   O        22.8671   33.9283   15.8445  O     
23   O        16.1312   31.8633   13.5731  O     
24   O        19.4071   32.2121   13.1140  O     
25   C        16.4410   34.9878   12.3694  C     
26   O        23.4245   31.7346   15.2081  O     
27   O        16.1772   29.5474   12.7398  O     
28   F        10.1104   35.3826   10.8294  F     
29   F        10.0455   34.0598   12.5633  F     
30   C        18.8063   30.1820   10.7925  C     
31   O        10.7217   37.8164   12.6987  O     
32   O         8.4743   36.7369   12.6876  O     
33   O        22.1234   37.8216   10.7916  O     
34   O        23.4888   37.1748   12.6107  O     
35   C        21.6398   34.7408   12.5349  C     
36   C        12.8985   35.4472   11.0410  C     
37   C        12.7591   34.7302   13.3481  C     
38   N        16.0679   28.7174   10.7630  N     
39   C        21.2522   36.2537   12.4822  C     
40   C        14.9561   34.9745   12.2897  C     
41   C        24.6730   37.9378   12.3543  C     
42   C        14.1629   34.6648   13.4188  C     
43   C        14.3022   35.3718   11.1020  C     
44   C        26.1107   30.5475   19.1654  C     
45   C        23.3360   29.3819   17.9993  C     
46   C        21.6585   31.5657   17.3320  C     
47   C        25.9444   33.3725   19.2286  C     
48   C        25.8626   37.1084   12.6826  C     
49   C        19.5239   29.3651   11.9249  C     
50   C        27.0006   37.0822   11.8425  C     
51   C        25.8590   36.2997   13.8428  C     
52   C        19.1513   27.8488   11.9389  C     
53   C        21.0747   29.4863   11.8221  C     
54   C        27.1055   32.7169   19.6908  C     
55   C        27.1872   31.3088   19.6641  C     
56   C        22.0514   29.1556   17.4659  C     
57   C        21.2270   30.2434   17.1200  C     
58   C        26.9527   35.4659   14.1430  C     
59   C        28.1023   36.2601   12.1508  C     
60   C        28.0726   35.4453   13.2986  C     
61   H        23.0260   33.6355   18.9051  H     
62   H        18.7374   35.1600   13.5064  H     
63   H        18.0104   32.6507   11.2998  H     
64   H        16.7632   34.0531   14.2783  H     
65   H        16.9773   31.0077   10.1092  H     
66   H        21.7459   32.0185   13.5064  H     
67   H        23.8233   35.0634   17.2421  H     
68   H        24.8265   33.8600   16.4467  H     
69   H        20.7566   34.5484   14.5082  H     
70   H        16.7182   35.9741   12.7577  H     
71   H        16.8772   34.9282   11.3652  H     
72   H        18.7628   29.5609    9.8869  H     
73   H        19.4221   31.0500   10.5226  H     
74   H        22.7167   34.6648   12.7240  H     
75   H        21.4738   34.2816   11.5526  H     
76   H        12.4772   35.7658   10.1661  H     
77   H        12.2202   34.4932   14.1855  H     
78   H        15.5134   28.0002   11.1106  H     
79   H        16.2954   28.7220    9.8172  H     
80   H        21.0545   36.6334   13.4864  H     
81   H        20.3304   36.3795   11.9076  H     
82   H        24.6851   38.2609   11.3102  H     
83   H        24.6657   38.8277   12.9880  H     
84   H        14.6088   34.4025   14.3040  H     
85   H        14.8435   35.6291   10.2724  H     
86   H        26.1756   29.5283   19.1398  H     
87   H        23.9389   28.5942   18.2506  H     
88   H        21.0358   32.3569   17.1359  H     
89   H        25.8905   34.3944   19.2482  H     
90   H        19.2343   29.7839   12.8928  H     
91   H        27.0371   37.6579   10.9992  H     
92   H        25.0489   36.2909   14.4636  H     
93   H        18.0828   27.7086   12.1081  H     
94   H        19.6852   27.3313   12.7365  H     
95   H        19.4171   27.3792   10.9887  H     
96   H        21.4428   29.0091   10.9090  H     
97   H        21.5453   29.0155   12.6867  H     
98   H        21.3750   30.5378   11.8124  H     
99   H        27.8937   33.2641   20.0407  H     
100  H        28.0424   30.8405   19.9790  H     
101  H        21.7255   28.1963   17.3059  H     
102  H        20.2897   30.0747   16.7277  H     
103  H        26.9255   34.8728   14.9751  H     
104  H        28.9214   36.2501   11.5408  H     
105  H        28.8737   34.8472   13.5218  H     
@<TRIPOS>BOND
     1    1    2 1
     2    1   20 2
     3    1   31 1
     4    1   32 1
     5    2   18 1
     6    2   28 1
     7    2   29 1
     8    3    6 1
     9    3    7 1
    10    3   17 1
    11    4    5 1
    12    4    7 2
    13    4   45 1
    14    5    6 2
    15    5   44 1
    16    6   47 1
    17    7   46 1
    18    8   11 am
    19    8   13 1
    20    8   23 2
    21    9   10 am
    22    9   19 1
    23    9   24 2
    24   10   13 1
    25   11   14 1
    26   12   16 am
    27   12   22 1
    28   12   26 2
    29   13   25 1
    30   14   15 1
    31   14   30 1
    32   15   27 2
    33   15   38 am
    34   16   19 1
    35   17   22 1
    36   18   36 2
    37   18   37 1
    38   19   35 1
    39   21   33 2
    40   21   34 1
    41   21   39 1
    42   25   40 1
    43   30   49 1
    44   34   41 1
    45   35   39 1
    46   36   43 1
    47   37   42 2
    48   40   42 1
    49   40   43 2
    50   41   48 1
    51   44   55 2
    52   45   56 2
    53   46   57 2
    54   47   54 2
    55   48   50 2
    56   48   51 1
    57   49   52 1
    58   49   53 1
    59   50   59 1
    60   51   58 2
    61   54   55 1
    62   56   57 1
    63   58   60 1
    64   59   60 2
    65    3   61 1
    66   10   62 1
    67   11   63 1
    68   13   64 1
    69   14   65 1
    70   16   66 1
    71   17   67 1
    72   17   68 1
    73   19   69 1
    74   25   70 1
    75   25   71 1
    76   30   72 1
    77   30   73 1
    78   35   74 1
    79   35   75 1
    80   36   76 1
    81   37   77 1
    82   38   78 1
    83   38   79 1
    84   39   80 1
    85   39   81 1
    86   41   82 1
    87   41   83 1
    88   42   84 1
    89   43   85 1
    90   44   86 1
    91   45   87 1
    92   46   88 1
    93   47   89 1
    94   49   90 1
    95   50   91 1
    96   51   92 1
    97   52   93 1
    98   52   94 1
    99   52   95 1
   100   53   96 1
   101   53   97 1
   102   53   98 1
   103   54   99 1
   104   55  100 1
   105   56  101 1
   106   57  102 1
   107   58  103 1
   108   59  104 1
   109   60  105 1
@<TRIPOS>PROPERTY_DATA
  Total_Score	| 8.1206
  Crash		| -4.0013
  Polar		| 2.5347
  FragIndex	| 1
  FragRMSD	| 1.034

