@<TRIPOS>MOLECULE
BindingDB_13472
 55 56 0 0 0
SMALL
NO_CHARGES


@<TRIPOS>ATOM
1    C        22.3391   31.1932   17.5694  C     
2    C        22.8635   30.0174   18.1452  C     
3    C        24.0494   30.0515   18.8982  C     
4    C        24.7478   31.2645   19.1096  C     
5    C        24.1964   32.4466   18.5610  C     
6    C        23.0186   32.4122   17.7956  C     
7    O        25.0523   32.7537   21.8424  O     
8    P        25.7226   31.5177   21.5308  P     
9    O        24.8645   30.3785   22.1033  O     
10   O        27.0374   31.5087   22.3301  O     
11   C        26.0189   31.3054   19.9026  C     
12   F        26.7593   30.1507   19.7587  F     
13   F        26.8542   32.3134   19.4690  F     
14   C        21.0896   31.1475   16.7515  C     
15   N        19.9444   31.6757   14.6409  N     
16   C        19.6475   32.2124   13.4632  C     
17   O        20.4804   32.8567   12.8445  O     
18   C        18.3133   32.0344   12.8856  C     
19   N        17.7376   33.3220   12.6250  N     
20   C        16.6345   33.8375   13.1473  C     
21   O        15.9799   33.2512   13.9980  O     
22   C        16.1865   35.1305   12.6854  C     
23   C        21.2242   31.7216   15.3034  C     
24   C        22.2165   30.9938   14.5202  C     
25   O        23.2389   31.5465   14.1282  O     
26   N        22.0577   29.7150   14.2102  N     
27   C        18.3537   31.2237   11.5550  C     
28   C        18.8350   29.8285   11.7247  C     
29   C        20.2182   29.5383   11.8154  C     
30   C        20.6694   28.2134   11.9921  C     
31   C        19.7396   27.1610   12.0942  C     
32   C        18.3606   27.4345   12.0031  C     
33   C        17.9114   28.7572   11.8343  C     
34   H        22.3911   29.1207   18.0164  H     
35   H        24.3943   29.1795   19.3029  H     
36   H        24.6452   33.3492   18.7195  H     
37   H        22.6530   33.2802   17.4027  H     
38   H        20.7067   30.1227   16.6881  H     
39   H        20.3308   31.7158   17.2797  H     
40   H        19.2459   31.1938   15.1042  H     
41   H        17.6809   31.4733   13.5895  H     
42   H        18.2032   33.8799   11.9814  H     
43   H        16.9657   35.8740   12.8629  H     
44   H        15.2789   35.4542   13.1944  H     
45   H        15.9804   35.0870   11.6153  H     
46   H        21.5224   32.7790   15.3985  H     
47   H        22.7240   29.2546   13.6722  H     
48   H        21.2382   29.2504   14.4715  H     
49   H        17.3445   31.2071   11.1309  H     
50   H        18.9813   31.7418   10.8190  H     
51   H        20.9053   30.2930   11.7494  H     
52   H        21.6698   28.0212   12.0566  H     
53   H        20.0676   26.2044   12.2273  H     
54   H        17.6903   26.6690   12.0900  H     
55   H        16.9057   28.9337   11.7922  H     
@<TRIPOS>BOND
     1    1    2 1
     2    1    6 2
     3    1   14 1
     4    2    3 2
     5    3    4 1
     6    4    5 2
     7    4   11 1
     8    5    6 1
     9    7    8 2
    10    8    9 1
    11    8   10 1
    12    8   11 1
    13   11   12 1
    14   11   13 1
    15   23   14 1
    16   15   16 am
    17   15   23 1
    18   16   17 2
    19   16   18 1
    20   18   19 1
    21   18   27 1
    22   19   20 am
    23   20   21 2
    24   20   22 1
    25   23   24 1
    26   24   25 2
    27   24   26 am
    28   27   28 1
    29   28   29 2
    30   28   33 1
    31   29   30 1
    32   30   31 2
    33   31   32 1
    34   32   33 2
    35    2   34 1
    36    3   35 1
    37    5   36 1
    38    6   37 1
    39   14   38 1
    40   14   39 1
    41   15   40 1
    42   18   41 1
    43   19   42 1
    44   22   43 1
    45   22   44 1
    46   22   45 1
    47   23   46 1
    48   26   47 1
    49   26   48 1
    50   27   49 1
    51   27   50 1
    52   29   51 1
    53   30   52 1
    54   31   53 1
    55   32   54 1
    56   33   55 1
@<TRIPOS>PROPERTY_DATA
  Total_Score	| 13.6372
  Crash		| -0.8889
  Polar		| 10.3002
  FragIndex	| 1
  FragRMSD	| 0.604

