@<TRIPOS>MOLECULE
BindingDB_13469
 71 73 0 0 0
SMALL
NO_CHARGES


@<TRIPOS>ATOM
1    C        22.3535   31.1802   17.5607  C     
2    C        22.8553   30.0101   18.1746  C     
3    C        24.0432   30.0407   18.9239  C     
4    C        24.7733   31.2419   19.0927  C     
5    C        24.2365   32.4221   18.5218  C     
6    C        23.0501   32.3895   17.7668  C     
7    O        25.0403   32.7272   21.8189  O     
8    P        25.7116   31.4902   21.5248  P     
9    O        24.8468   30.3585   22.1023  O     
10   O        27.0090   31.4937   22.3450  O     
11   C        26.0320   31.2818   19.9049  C     
12   F        26.7750   30.1307   19.7562  F     
13   F        26.8717   32.2928   19.4893  F     
14   C        21.1109   31.1464   16.7372  C     
15   C        21.2933   31.6688   15.2780  C     
16   C        22.2966   30.9056   14.5430  C     
17   O        23.3619   31.4167   14.2260  O     
18   N        22.1016   29.6482   14.2101  N     
19   N        20.0273   31.6229   14.6037  N     
20   C        19.7361   32.1115   13.4016  C     
21   O        20.5777   32.7364   12.7578  O     
22   C        18.4110   31.9004   12.8120  C     
23   C        18.4518   31.0911   11.4797  C     
24   C        18.9220   29.6901   11.6788  C     
25   C        19.7995   27.0395   12.1483  C     
26   C        20.7372   28.0779   12.0175  C     
27   C        20.3015   29.3954   11.7853  C     
28   C        17.9902   28.6327   11.8044  C     
29   C        18.4277   27.3163   12.0335  C     
30   N        17.7938   33.1826   12.5904  N     
31   C        16.7238   33.6583   13.2234  C     
32   O        16.1833   33.0102   14.1126  O     
33   C        16.2341   35.0007   12.9577  C     
34   C        14.7776   35.0558   12.6407  C     
35   C        12.4496   34.6057   13.2709  C     
36   C        13.8230   34.5074   13.5316  C     
37   C        14.2941   35.6962   11.4736  C     
38   C        12.9179   35.8041   11.2176  C     
39   C        11.9590   35.2780   12.1249  C     
40   P         9.8031   36.5966   12.9208  P     
41   O        10.5272   37.9476   12.7491  O     
42   O         8.3114   36.8366   12.6000  O     
43   O         9.8589   36.2607   14.3201  O     
44   C        10.4795   35.4342   11.9267  C     
45   F        10.1408   35.7701   10.6340  F     
46   F         9.8532   34.2277   12.1566  F     
47   H        22.3530   29.1226   18.0820  H     
48   H        24.3680   29.1719   19.3607  H     
49   H        24.7051   33.3231   18.6574  H     
50   H        22.6937   33.2655   17.3744  H     
51   H        20.7005   30.1334   16.7017  H     
52   H        20.3719   31.7599   17.2472  H     
53   H        21.5954   32.7204   15.3394  H     
54   H        22.7825   29.1637   13.7185  H     
55   H        21.2700   29.2036   14.4423  H     
56   H        19.3021   31.1833   15.0727  H     
57   H        17.8079   31.3090   13.5130  H     
58   H        17.4399   31.0695   11.0543  H     
59   H        19.0761   31.6002   10.7424  H     
60   H        20.1145   26.0838   12.3252  H     
61   H        21.7361   27.8756   12.0916  H     
62   H        20.9978   30.1419   11.7043  H     
63   H        16.9851   28.8180   11.7384  H     
64   H        17.7431   26.5608   12.1204  H     
65   H        18.2192   33.7627   11.9347  H     
66   H        16.4201   35.6191   13.8404  H     
67   H        16.8129   35.4558   12.1477  H     
68   H        11.7940   34.1977   13.9417  H     
69   H        14.1204   34.0488   14.3954  H     
70   H        14.9572   36.1049   10.8079  H     
71   H        12.6192   36.2903   10.3716  H     
@<TRIPOS>BOND
     1    1    2 1
     2    1    6 2
     3    1   14 1
     4    2    3 2
     5    3    4 1
     6    4    5 2
     7    4   11 1
     8    5    6 1
     9    7    8 2
    10    8    9 1
    11    8   10 1
    12    8   11 1
    13   11   12 1
    14   11   13 1
    15   15   14 1
    16   15   16 1
    17   15   19 1
    18   16   17 2
    19   16   18 am
    20   19   20 am
    21   20   21 2
    22   20   22 1
    23   22   23 1
    24   22   30 1
    25   23   24 1
    26   24   27 1
    27   24   28 2
    28   25   26 1
    29   25   29 2
    30   26   27 2
    31   28   29 1
    32   30   31 am
    33   31   32 2
    34   31   33 1
    35   33   34 1
    36   34   36 1
    37   34   37 2
    38   35   36 2
    39   35   39 1
    40   37   38 1
    41   38   39 2
    42   39   44 1
    43   40   41 1
    44   40   42 1
    45   40   43 2
    46   40   44 1
    47   44   45 1
    48   44   46 1
    49    2   47 1
    50    3   48 1
    51    5   49 1
    52    6   50 1
    53   14   51 1
    54   14   52 1
    55   15   53 1
    56   18   54 1
    57   18   55 1
    58   19   56 1
    59   22   57 1
    60   23   58 1
    61   23   59 1
    62   25   60 1
    63   26   61 1
    64   27   62 1
    65   28   63 1
    66   29   64 1
    67   30   65 1
    68   33   66 1
    69   33   67 1
    70   35   68 1
    71   36   69 1
    72   37   70 1
    73   38   71 1
@<TRIPOS>PROPERTY_DATA
  Total_Score	| 15.9180
  Crash		| -1.1909
  Polar		| 11.9098
  FragIndex	| 1
  FragRMSD	| 0.500

