@<TRIPOS>MOLECULE
BindingDB_13471
 58 59 0 0 0
SMALL
NO_CHARGES


@<TRIPOS>ATOM
1    C        22.3865   31.1399   17.5405  C     
2    C        22.8738   29.9739   18.1707  C     
3    C        24.0468   30.0112   18.9463  C     
4    C        24.7757   31.2139   19.1180  C     
5    C        24.2587   32.3874   18.5180  C     
6    C        23.0836   32.3523   17.7425  C     
7    O        26.9704   31.4896   22.3068  O     
8    P        25.7453   31.4670   21.5501  P     
9    O        25.0111   32.7854   21.8548  O     
10   O        24.8889   30.3338   22.1450  O     
11   C        26.0404   31.2476   19.9221  C     
12   F        26.7709   30.0907   19.7731  F     
13   F        26.8861   32.2452   19.4952  F     
14   C        21.1519   31.1083   16.7068  C     
15   N        20.0588   31.6189   14.5713  N     
16   C        19.7932   32.0994   13.3629  C     
17   O        20.6508   32.6750   12.7002  O     
18   C        18.4820   31.9127   12.7732  C     
19   N        17.8310   33.1746   12.5935  N     
20   C        16.7534   33.6205   13.2363  C     
21   O        16.2223   32.9725   14.1298  O     
22   C        16.2426   34.9591   12.9928  C     
23   C        14.7807   35.0023   12.7030  C     
24   C        12.4572   34.5972   13.3916  C     
25   C        13.8455   34.5090   13.6389  C     
26   C        14.2825   35.5857   11.5120  C     
27   C        12.8956   35.6908   11.2773  C     
28   C        11.9486   35.2145   12.2231  C     
29   P         9.7849   36.5998   12.8802  P     
30   O         8.2911   36.7677   12.5404  O     
31   O         9.8595   36.3835   14.4070  O     
32   O        10.4283   37.8599   12.5963  O     
33   C        10.4721   35.3548   12.0044  C     
34   F        10.1461   35.5716   10.6843  F     
35   F         9.8286   34.1818   12.3403  F     
36   C        21.3312   31.6397   15.2512  C     
37   C        22.3152   30.8612   14.5056  C     
38   O        23.4009   31.3474   14.2095  O     
39   N        22.0808   29.6161   14.1468  N     
40   H        22.3791   29.0850   18.0669  H     
41   H        24.3639   29.1459   19.3882  H     
42   H        24.7341   33.2841   18.6394  H     
43   H        22.7387   33.2216   17.3266  H     
44   H        20.7415   30.0916   16.6601  H     
45   H        20.3992   31.7164   17.2119  H     
46   H        19.3226   31.2119   15.0519  H     
47   H        18.5950   31.4387   11.7962  H     
48   H        17.8767   31.2345   13.3835  H     
49   H        18.2506   33.7833   11.9574  H     
50   H        16.4365   35.5752   13.8770  H     
51   H        16.7988   35.4330   12.1780  H     
52   H        11.8133   34.2144   14.0898  H     
53   H        14.1705   34.0861   14.5093  H     
54   H        14.9305   35.9435   10.8046  H     
55   H        12.5864   36.1336   10.4092  H     
56   H        21.6490   32.6861   15.3134  H     
57   H        22.7566   29.1101   13.6683  H     
58   H        21.2274   29.2030   14.3564  H     
@<TRIPOS>BOND
     1    1    2 1
     2    1    6 2
     3    1   14 1
     4    2    3 2
     5    3    4 1
     6    4    5 2
     7    4   11 1
     8    5    6 1
     9    7    8 2
    10    8    9 1
    11    8   10 1
    12    8   11 1
    13   11   12 1
    14   11   13 1
    15   36   14 1
    16   15   16 am
    17   15   36 1
    18   16   17 2
    19   16   18 1
    20   18   19 1
    21   19   20 am
    22   20   21 2
    23   20   22 1
    24   22   23 1
    25   23   25 1
    26   23   26 2
    27   24   25 2
    28   24   28 1
    29   26   27 1
    30   27   28 2
    31   28   33 1
    32   29   30 1
    33   29   31 1
    34   29   32 2
    35   29   33 1
    36   33   34 1
    37   33   35 1
    38   36   37 1
    39   37   38 2
    40   37   39 am
    41    2   40 1
    42    3   41 1
    43    5   42 1
    44    6   43 1
    45   14   44 1
    46   14   45 1
    47   15   46 1
    48   18   47 1
    49   18   48 1
    50   19   49 1
    51   22   50 1
    52   22   51 1
    53   24   52 1
    54   25   53 1
    55   26   54 1
    56   27   55 1
    57   36   56 1
    58   39   57 1
    59   39   58 1
@<TRIPOS>PROPERTY_DATA
  Total_Score	| 14.8118
  Crash		| -1.0084
  Polar		| 11.9589
  FragIndex	| 1
  FragRMSD	| 0.605

