@<TRIPOS>MOLECULE
BindingDB_13468
 54 55 0 0 0
SMALL
NO_CHARGES


@<TRIPOS>ATOM
1    C        14.8605   34.8273   12.9693  C     
2    C        13.8156   34.3023   13.7708  C     
3    C        12.4699   34.5217   13.4302  C     
4    C        12.1408   35.2722   12.2884  C     
5    C        13.1659   35.8001   11.4837  C     
6    C        14.5194   35.5784   11.8213  C     
7    C        16.2932   34.6030   13.3334  C     
8    C        17.0812   33.7964   12.2570  C     
9    C        17.2553   34.5313   11.0087  C     
10   O        16.8453   34.0809    9.9484  O     
11   N        17.9080   35.6759   10.9563  N     
12   N        18.3938   33.4580   12.7519  N     
13   C        18.8997   32.2402   12.9312  C     
14   O        18.2105   31.2360   12.7790  O     
15   C        20.2982   32.0707   13.3073  C     
16   N        20.3982   31.4451   14.5954  N     
17   C        21.1418   31.8610   15.6175  C     
18   O        21.8048   32.9021   15.5753  O     
19   C        21.0816   31.1296   16.8728  C     
20   C        22.3606   31.1205   17.6296  C     
21   C        24.1083   29.9374   18.8883  C     
22   C        22.9172   29.9195   18.1389  C     
23   C        23.0208   32.3354   17.9175  C     
24   C        24.2145   32.3536   18.6669  C     
25   C        24.7904   31.1562   19.1622  C     
26   P        25.7600   31.4739   21.5863  P     
27   O        25.0405   32.7998   21.8835  O     
28   O        24.8818   30.3581   22.1756  O     
29   O        26.9802   31.4880   22.3520  O     
30   C        26.0537   31.2030   19.9664  C     
31   F        26.7886   30.0410   19.8682  F     
32   F        26.8901   32.1862   19.4840  F     
33   C        21.0271   31.2414   12.3064  C     
34   O        22.2784   31.5814   11.9013  O     
35   O        20.5319   30.0482   11.8905  O     
36   H        14.0331   33.7564   14.6098  H     
37   H        11.7254   34.1453   14.0211  H     
38   H        11.1609   35.4387   12.0455  H     
39   H        12.9290   36.3528   10.6559  H     
40   H        15.2583   35.9767   11.2271  H     
41   H        16.7675   35.5694   13.5250  H     
42   H        16.3492   34.0491   14.2717  H     
43   H        16.5084   32.8808   12.0565  H     
44   H        18.0268   36.1349   10.1054  H     
45   H        18.2605   36.0732   11.7696  H     
46   H        18.9881   34.2086   12.9251  H     
47   H        20.7826   33.0550   13.3146  H     
48   H        19.8765   30.6343   14.7247  H     
49   H        20.3198   31.5892   17.5060  H     
50   H        20.7441   30.1051   16.6962  H     
51   H        24.4662   29.0480   19.2519  H     
52   H        22.4490   29.0244   17.9682  H     
53   H        22.6334   33.2162   17.5804  H     
54   H        24.6597   33.2611   18.8578  H     
@<TRIPOS>BOND
     1    1    2 1
     2    1    6 2
     3    1    7 1
     4    2    3 2
     5    3    4 1
     6    4    5 2
     7    5    6 1
     8    8    7 1
     9    8    9 1
    10    8   12 1
    11    9   10 2
    12    9   11 am
    13   12   13 am
    14   13   14 2
    15   13   15 1
    16   15   16 1
    17   15   33 1
    18   16   17 am
    19   17   18 2
    20   17   19 1
    21   19   20 1
    22   20   22 1
    23   20   23 2
    24   21   22 2
    25   21   25 1
    26   23   24 1
    27   24   25 2
    28   25   30 1
    29   26   27 1
    30   26   28 1
    31   26   29 2
    32   26   30 1
    33   30   31 1
    34   30   32 1
    35   33   34 2
    36   33   35 1
    37    2   36 1
    38    3   37 1
    39    4   38 1
    40    5   39 1
    41    6   40 1
    42    7   41 1
    43    7   42 1
    44    8   43 1
    45   11   44 1
    46   11   45 1
    47   12   46 1
    48   15   47 1
    49   16   48 1
    50   19   49 1
    51   19   50 1
    52   21   51 1
    53   22   52 1
    54   23   53 1
    55   24   54 1
@<TRIPOS>PROPERTY_DATA
  Total_Score	| 11.1875
  Crash		| -1.7648
  Polar		| 9.4328
  FragIndex	| 1
  FragRMSD	| 0.388

