@<TRIPOS>MOLECULE
BindingDB_50379185
 29 29 0 0 0
SMALL
NO_CHARGES


@<TRIPOS>ATOM
1    N        18.1821   33.2695   13.2356  N     
2    C        17.0109   33.7869   12.5079  C     
3    C        17.4835   34.3307   11.2179  C     
4    O        18.4469   35.2840   11.1748  O     
5    O        17.0530   33.8190   10.0441  O     
6    C        16.2265   34.8422   13.3452  C     
7    C        14.7966   34.9755   12.9313  C     
8    C        13.7803   34.3700   13.7014  C     
9    C        14.4177   35.6902   11.7736  C     
10   C        12.4277   34.5027   13.3413  C     
11   C        13.0622   35.8202   11.4125  C     
12   C        12.0311   35.2488   12.2063  C     
13   C        10.5769   35.4306   11.8848  C     
14   F        10.3589   35.8473   10.5916  F     
15   F         9.9115   34.2304   11.9873  F     
16   P         9.8407   36.5389   12.8902  P     
17   O         9.9086   36.1400   14.2740  O     
18   O        10.5048   37.9241   12.7721  O     
19   O         8.3431   36.7122   12.5616  O     
20   H        18.6718   32.5809   12.6587  H     
21   H        17.8763   32.8122   14.0949  H     
22   H        18.8237   34.0304   13.4707  H     
23   H        16.3643   32.9241   12.3306  H     
24   H        16.2736   34.5456   14.3965  H     
25   H        16.7175   35.8209   13.2959  H     
26   H        14.0179   33.8180   14.5289  H     
27   H        15.1314   36.1261   11.1800  H     
28   H        11.7241   34.0466   13.9265  H     
29   H        12.8341   36.3526   10.5724  H     
@<TRIPOS>BOND
     1    2    1 1
     2    2    3 1
     3    2    6 1
     4    3    4 2
     5    3    5 1
     6    6    7 1
     7    7    8 2
     8    7    9 1
     9    8   10 1
    10    9   11 2
    11   10   12 2
    12   11   12 1
    13   12   13 1
    14   13   14 1
    15   13   15 1
    16   13   16 1
    17   16   17 2
    18   16   18 1
    19   16   19 1
    20    1   20 1
    21    1   21 1
    22    1   22 1
    23    2   23 1
    24    6   24 1
    25    6   25 1
    26    8   26 1
    27    9   27 1
    28   10   28 1
    29   11   29 1
@<TRIPOS>PROPERTY_DATA
  Total_Score	| 2.4968
  Crash		| -0.4032
  Polar		| 3.2537
  FragIndex	| 1
  FragRMSD	| 0.349

