@<TRIPOS>MOLECULE
BindingDB_50088877
 102 102 0 0 0
SMALL
NO_CHARGES


@<TRIPOS>ATOM
1    C        25.9088   31.2055   20.2666  C     
2    C        16.7251   33.6453   13.2435  C     
3    C        11.0016   34.9917   12.9569  C     
4    C        22.4323   30.7742   14.6205  C     
5    C        19.7533   32.3834   13.6728  C     
6    C        13.7368   34.5614   13.8346  C     
7    N        14.8972   35.1924   13.6687  N     
8    N        20.1918   31.5336   14.5914  N     
9    N        22.2371   29.4665   14.5099  N     
10   C        15.9822   34.8387   12.7992  C     
11   N        17.7944   33.2255   12.5766  N     
12   N        11.3900   34.9513   14.2292  N     
13   C         9.5757   34.9046   12.6318  C     
14   C        16.8944   36.0939   12.6687  C     
15   C         8.9368   33.5327   13.0087  C     
16   C        25.3678   31.6181   21.5814  C     
17   C        21.4431   31.6011   15.3047  C     
18   C        23.0985   28.4720   13.9125  C     
19   C        22.4481   28.0019   12.7001  C     
20   N         9.3147   35.2169   11.2451  N     
21   C        18.5876   32.0558   12.8506  C     
22   C         9.6621   32.3579   12.4854  C     
23   C        17.6397   36.1971   11.3960  C     
24   C        12.7276   35.1176   14.7329  C     
25   C        24.7804   31.1527   19.2782  C     
26   C         8.3339   35.9795   10.7776  C     
27   C        18.0831   32.4221    9.4717  C     
28   O        16.2921   32.9990   14.1937  O     
29   O        11.8374   35.1359   12.0727  O     
30   O        23.4390   31.3033   14.1625  O     
31   O        13.5023   33.5180   13.2351  O     
32   O        20.4228   33.3650   13.3747  O     
33   C        21.2173   31.1499   16.7791  C     
34   O        25.2125   32.9355   21.8466  O     
35   O        23.0428   28.0114   11.6318  O     
36   C        23.3523   27.3441   14.9636  C     
37   O         9.7368   32.1359   11.1512  O     
38   O        16.9746   36.3978   10.2352  O     
39   O         7.5551   36.5487   11.5311  O     
40   O        19.2712   32.9463    9.0801  O     
41   F        26.5588   30.0002   20.4280  F     
42   F        26.8890   32.0819   19.8504  F     
43   C        19.0571   31.3259   11.5422  C     
44   C        24.0731   29.9551   19.0161  C     
45   C        24.3139   32.3446   18.6711  C     
46   N        21.2092   27.5558   12.7040  N     
47   C        18.0296   31.2625   10.3828  C     
48   C        22.4596   31.1391   17.6121  C     
49   O        24.5992   30.7536   22.2795  O     
50   O        10.0961   31.3894   13.3252  O     
51   O        18.9939   36.1512   11.3739  O     
52   O        16.9523   33.0117    9.0130  O     
53   C        22.9331   29.9479   18.2025  C     
54   C        23.1648   32.3408   17.8582  C     
55   C        24.2066   26.0974   14.5567  C     
56   C         8.1787   36.1361    9.3439  C     
57   C        12.8376   34.5026   16.1502  C     
58   C        23.5572   25.1971   13.4701  C     
59   C        25.6721   26.4493   14.1725  C     
60   H        14.9945   36.0186   14.1678  H     
61   H        19.6848   30.7155   14.7112  H     
62   H        21.3926   29.1242   14.8672  H     
63   H        15.5597   34.6325   11.8086  H     
64   H        18.0714   33.7630   11.8213  H     
65   H        10.6853   34.8382   14.8953  H     
66   H         9.0886   35.6818   13.2396  H     
67   H        16.2932   37.0067   12.7422  H     
68   H        17.6062   36.1148   13.5045  H     
69   H         8.8599   33.4512   14.0957  H     
70   H         7.9199   33.4822   12.6264  H     
71   H        21.7730   32.6437   15.3304  H     
72   H        24.0647   28.9157   13.6636  H     
73   H         9.9064   34.8233   10.5815  H     
74   H        17.9615   31.3283   13.3836  H     
75   H        12.8858   36.2005   14.8476  H     
76   H        20.5038   31.8306   17.2542  H     
77   H        20.7419   30.1600   16.7864  H     
78   H        23.8586   27.8031   15.8181  H     
79   H        22.3901   26.9833   15.3399  H     
80   H        19.9863   31.7695   11.1664  H     
81   H        19.3061   30.2943   11.8221  H     
82   H        24.3561   29.0790   19.4627  H     
83   H        24.7812   33.2334   18.8483  H     
84   H        20.8057   27.2379   11.8849  H     
85   H        20.6892   27.5946   13.5211  H     
86   H        17.0226   31.1465   10.7820  H     
87   H        18.2308   30.3636    9.7786  H     
88   H        22.4354   29.0668   18.0522  H     
89   H        22.8323   33.2221   17.4653  H     
90   H        24.2758   25.4724   15.4543  H     
91   H         9.0835   36.5700    8.9228  H     
92   H         7.3400   36.7931    9.1085  H     
93   H         7.9972   35.1671    8.8797  H     
94   H        12.6918   33.4216   16.1248  H     
95   H        12.0790   34.9367   16.8058  H     
96   H        13.8153   34.7139   16.5868  H     
97   H        22.5118   24.9920   13.7183  H     
98   H        24.0854   24.2391   13.4084  H     
99   H        23.6031   25.6629   12.4859  H     
100  H        25.7106   27.0097   13.2358  H     
101  H        26.2643   25.5367   14.0473  H     
102  H        26.1405   27.0478   14.9598  H     
@<TRIPOS>BOND
     1    1   16 1
     2    1   25 1
     3    1   41 1
     4    1   42 1
     5    2   10 1
     6    2   11 am
     7    2   28 2
     8    3   12 am
     9    3   13 1
    10    3   29 2
    11    4    9 am
    12    4   17 1
    13    4   30 2
    14    5    8 am
    15    5   21 1
    16    5   32 2
    17    6    7 am
    18    6   24 1
    19    6   31 2
    20    7   10 1
    21    8   17 1
    22    9   18 1
    23   10   14 1
    24   11   21 1
    25   12   24 1
    26   13   15 1
    27   13   20 1
    28   14   23 1
    29   15   22 1
    30   16   34 2
    31   16   49 1
    32   17   33 1
    33   18   19 1
    34   18   36 1
    35   19   35 2
    36   19   46 am
    37   20   26 am
    38   21   43 1
    39   22   37 2
    40   22   50 1
    41   23   38 2
    42   23   51 1
    43   24   57 1
    44   25   44 2
    45   25   45 1
    46   26   39 2
    47   26   56 1
    48   27   40 2
    49   27   47 1
    50   27   52 1
    51   33   48 1
    52   36   55 1
    53   43   47 1
    54   44   53 1
    55   45   54 2
    56   48   53 2
    57   48   54 1
    58   55   58 1
    59   55   59 1
    60    7   60 1
    61    8   61 1
    62    9   62 1
    63   10   63 1
    64   11   64 1
    65   12   65 1
    66   13   66 1
    67   14   67 1
    68   14   68 1
    69   15   69 1
    70   15   70 1
    71   17   71 1
    72   18   72 1
    73   20   73 1
    74   21   74 1
    75   24   75 1
    76   33   76 1
    77   33   77 1
    78   36   78 1
    79   36   79 1
    80   43   80 1
    81   43   81 1
    82   44   82 1
    83   45   83 1
    84   46   84 1
    85   46   85 1
    86   47   86 1
    87   47   87 1
    88   53   88 1
    89   54   89 1
    90   55   90 1
    91   56   91 1
    92   56   92 1
    93   56   93 1
    94   57   94 1
    95   57   95 1
    96   57   96 1
    97   58   97 1
    98   58   98 1
    99   58   99 1
   100   59  100 1
   101   59  101 1
   102   59  102 1
@<TRIPOS>PROPERTY_DATA
  Total_Score	| 15.4390
  Crash		| -2.2944
  Polar		| 16.2309
  FragIndex	| 1
  FragRMSD	| 0.828

