@<TRIPOS>MOLECULE
BindingDB_50131550
 63 64 0 0 0
SMALL
NO_CHARGES


@<TRIPOS>ATOM
1    C        14.3544   35.5778   11.6112  C     
2    C        14.8331   35.0612   12.8273  C     
3    C        13.9015   34.5939   13.7789  C     
4    C        12.5220   34.6517   13.5209  C     
5    C        12.0230   35.1947   12.3120  C     
6    C        12.9726   35.6418   11.3546  C     
7    C        16.2933   35.0175   13.1328  C     
8    C        10.5475   35.3107   12.0813  C     
9    P         9.8512   36.5580   12.9442  P     
10   O         9.8633   36.3219   14.3638  O     
11   O        10.5900   37.8815   12.6616  O     
12   O         8.3727   36.7689   12.5504  O     
13   F        10.2285   35.5177   10.7521  F     
14   F         9.9215   34.1318   12.4148  F     
15   C        16.8027   33.6615   13.2808  C     
16   O        16.2479   32.8950   14.0672  O     
17   N        17.9171   33.3046   12.6553  N     
18   C        18.6237   32.0553   12.7662  C     
19   C        18.8776   31.4450   11.3551  C     
20   C        17.6367   31.2623   10.5815  C     
21   O        17.4363   31.9376    9.4260  O     
22   O        16.7393   30.3204   10.9525  O     
23   C        19.8831   32.3113   13.4603  C     
24   O        20.5816   33.2564   13.0943  O     
25   N        20.2840   31.4968   14.4311  N     
26   C        21.5198   31.5745   15.1660  C     
27   C        22.4814   30.6650   14.5403  C     
28   C        21.2496   31.2507   16.6636  C     
29   C        22.4777   31.2495   17.5083  C     
30   C        22.8589   30.0979   18.2346  C     
31   C        24.0293   30.1013   19.0135  C     
32   C        24.8611   31.2431   19.0877  C     
33   C        24.4688   32.3884   18.3584  C     
34   C        23.2949   32.3939   17.5826  C     
35   C        26.1012   31.2374   19.9212  C     
36   F        26.7734   30.0440   19.7749  F     
37   F        27.0150   32.1975   19.5379  F     
38   P        25.7585   31.4748   21.5338  P     
39   O        25.0385   32.8023   21.8276  O     
40   O        26.9650   31.4955   22.3170  O     
41   O        24.8785   30.3650   22.1300  O     
42   N        22.1797   29.4234   14.2359  N     
43   O        23.6076   31.0507   14.2611  O     
44   H        15.0094   35.9253   10.9053  H     
45   H        14.2147   34.2216   14.6811  H     
46   H        11.8682   34.3127   14.2318  H     
47   H        12.6748   36.0473   10.4692  H     
48   H        16.8517   35.5456   12.3560  H     
49   H        16.4856   35.5543   14.0629  H     
50   H        18.3206   33.9750   12.0789  H     
51   H        18.0469   31.3211   13.3456  H     
52   H        19.5654   32.0852   10.7973  H     
53   H        19.3413   30.4631   11.4717  H     
54   H        19.7170   30.7389   14.6441  H     
55   H        21.9280   32.5888   15.1235  H     
56   H        20.5680   32.0000   17.0694  H     
57   H        20.7248   30.2888   16.7214  H     
58   H        22.2896   29.2490   18.2039  H     
59   H        24.2751   29.2555   19.5334  H     
60   H        25.0213   33.2470   18.3892  H     
61   H        23.0380   33.2459   17.0763  H     
62   H        22.8466   28.8484   13.8372  H     
63   H        21.2930   29.0797   14.4017  H     
@<TRIPOS>BOND
     1    1    2 2
     2    1    6 1
     3    2    3 1
     4    2    7 1
     5    3    4 2
     6    4    5 1
     7    5    6 2
     8    5    8 1
     9    7   15 1
    10    8    9 1
    11    8   13 1
    12    8   14 1
    13    9   10 2
    14    9   11 1
    15    9   12 1
    16   15   16 2
    17   15   17 am
    18   17   18 1
    19   18   19 1
    20   18   23 1
    21   19   20 1
    22   20   21 1
    23   20   22 2
    24   23   24 2
    25   23   25 am
    26   25   26 1
    27   26   27 1
    28   26   28 1
    29   27   42 am
    30   27   43 2
    31   28   29 1
    32   29   30 2
    33   29   34 1
    34   30   31 1
    35   31   32 2
    36   32   33 1
    37   32   35 1
    38   33   34 2
    39   35   36 1
    40   35   37 1
    41   35   38 1
    42   38   39 1
    43   38   40 2
    44   38   41 1
    45    1   44 1
    46    3   45 1
    47    4   46 1
    48    6   47 1
    49    7   48 1
    50    7   49 1
    51   17   50 1
    52   18   51 1
    53   19   52 1
    54   19   53 1
    55   25   54 1
    56   26   55 1
    57   28   56 1
    58   28   57 1
    59   30   58 1
    60   31   59 1
    61   33   60 1
    62   34   61 1
    63   42   62 1
    64   42   63 1
@<TRIPOS>PROPERTY_DATA
  Total_Score	| 15.4535
  Crash		| -1.0855
  Polar		| 13.0955
  FragIndex	| 1
  FragRMSD	| 0.446

