@<TRIPOS>MOLECULE
BindingDB_13470
 67 69 0 0 0
SMALL
NO_CHARGES


@<TRIPOS>ATOM
1    C        22.4294   31.0930   17.5576  C     
2    C        22.9358   29.9235   18.1607  C     
3    C        24.0961   29.9651   18.9542  C     
4    C        24.7985   31.1758   19.1638  C     
5    C        24.2561   32.3550   18.5974  C     
6    C        23.0928   32.3145   17.8063  C     
7    O        26.9932   31.5026   22.3384  O     
8    P        25.7706   31.4922   21.5793  P     
9    O        25.0453   32.8139   21.8853  O     
10   O        24.8952   30.3754   22.1721  O     
11   C        26.0635   31.2263   19.9631  C     
12   F        26.7950   30.0645   19.8583  F     
13   F        26.8941   32.2142   19.4864  F     
14   C        21.1977   31.0407   16.7314  C     
15   C        21.2828   31.8799   15.4312  C     
16   N        20.1196   31.6310   14.6399  N     
17   C        19.5802   32.4293   13.7341  C     
18   O        19.9852   33.5893   13.5885  O     
19   C        18.3972   31.9417   13.0122  C     
20   C        18.8141   30.8963   11.9428  C     
21   C        17.6996   30.1475   11.2856  C     
22   C        15.8739   28.2847   10.1579  C     
23   C        15.7185   28.7058   11.4884  C     
24   C        16.6233   29.6351   12.0468  C     
25   C        17.8093   29.7534    9.9278  C     
26   C        16.9111   28.8247    9.3690  C     
27   N        17.6803   33.0301   12.4049  N     
28   C        16.6314   33.6691   12.9150  C     
29   O        16.1740   33.3659   14.0133  O     
30   C        16.1687   34.8840   12.2461  C     
31   C        14.6889   35.0509   12.2193  C     
32   C        12.5241   34.8776   13.3551  C     
33   C        13.9316   34.7981   13.3820  C     
34   C        14.0050   35.4277   11.0410  C     
35   C        12.6011   35.5235   11.0225  C     
36   C        11.8257   35.2463   12.1794  C     
37   P         9.7248   36.6466   12.9909  P     
38   O         8.2565   36.8924   12.6059  O     
39   O         9.7573   36.4616   14.5201  O     
40   O        10.4518   37.8537   12.6804  O     
41   C        10.3291   35.3252   12.1728  C     
42   F         9.7987   35.3722   10.9036  F     
43   F         9.8122   34.1845   12.7419  F     
44   H        22.4568   29.0273   18.0416  H     
45   H        24.4127   29.0954   19.3885  H     
46   H        24.7081   33.2586   18.7578  H     
47   H        22.7372   33.1905   17.4176  H     
48   H        20.9676   30.0050   16.4545  H     
49   H        20.3662   31.4038   17.3354  H     
50   H        21.3557   32.9435   15.6832  H     
51   H        22.1687   31.5934   14.8508  H     
52   H        19.6882   30.7697   14.7764  H     
53   H        17.7565   31.3992   13.7335  H     
54   H        19.4456   31.3849   11.1864  H     
55   H        19.4369   30.1292   12.4215  H     
56   H        15.2329   27.5907    9.7597  H     
57   H        14.9740   28.3041   12.0639  H     
58   H        16.5009   29.9312   13.0196  H     
59   H        18.5805   30.1018    9.3453  H     
60   H        17.0234   28.5204    8.3994  H     
61   H        18.0479   33.3830   11.5632  H     
62   H        16.6154   35.7363   12.7592  H     
63   H        16.5612   34.9040   11.2231  H     
64   H        12.0124   34.6547   14.2099  H     
65   H        14.4031   34.5142   14.2433  H     
66   H        14.5227   35.6112   10.1771  H     
67   H        12.1516   35.7830   10.1439  H     
@<TRIPOS>BOND
     1    1    2 1
     2    1    6 2
     3    1   14 1
     4    2    3 2
     5    3    4 1
     6    4    5 2
     7    4   11 1
     8    5    6 1
     9    7    8 2
    10    8    9 1
    11    8   10 1
    12    8   11 1
    13   11   12 1
    14   11   13 1
    15   14   15 1
    16   15   16 1
    17   16   17 am
    18   17   18 2
    19   17   19 1
    20   19   20 1
    21   19   27 1
    22   20   21 1
    23   21   24 1
    24   21   25 2
    25   22   23 1
    26   22   26 2
    27   23   24 2
    28   25   26 1
    29   27   28 am
    30   28   29 2
    31   28   30 1
    32   30   31 1
    33   31   33 1
    34   31   34 2
    35   32   33 2
    36   32   36 1
    37   34   35 1
    38   35   36 2
    39   36   41 1
    40   37   38 1
    41   37   39 1
    42   37   40 2
    43   37   41 1
    44   41   42 1
    45   41   43 1
    46    2   44 1
    47    3   45 1
    48    5   46 1
    49    6   47 1
    50   14   48 1
    51   14   49 1
    52   15   50 1
    53   15   51 1
    54   16   52 1
    55   19   53 1
    56   20   54 1
    57   20   55 1
    58   22   56 1
    59   23   57 1
    60   24   58 1
    61   25   59 1
    62   26   60 1
    63   27   61 1
    64   30   62 1
    65   30   63 1
    66   32   64 1
    67   33   65 1
    68   34   66 1
    69   35   67 1
@<TRIPOS>PROPERTY_DATA
  Total_Score	| 16.0305
  Crash		| -1.7559
  Polar		| 10.5887
  FragIndex	| 1
  FragRMSD	| 0.663

