@<TRIPOS>MOLECULE
BindingDB_50076290
 92 97 0 0 0
SMALL
NO_CHARGES


@<TRIPOS>ATOM
1    N        17.4440   10.8696   25.1021  N     
2    C        17.2448   11.7426   26.0833  C     
3    C        17.3881   11.5093   23.9398  C     
4    C        17.1480   12.8318   24.1709  C     
5    C        17.0592   12.9788   25.5537  C     
6    C        17.6314    9.4483   25.2887  C     
7    C        16.2302    7.3767   26.0136  C     
8    C        16.2586    8.7217   25.4322  C     
9    N        15.1063    6.6526   26.2415  N     
10   C        16.6588    3.2578   26.9095  C     
11   N        16.0216    2.7008   28.0725  N     
12   C        15.6392    4.1780   26.1664  C     
13   C        13.1256   11.4056   25.7638  C     
14   C        15.1826    5.4122   27.0140  C     
15   C        15.2962    4.0580   31.9944  C     
16   C        16.3933    2.8473   29.3377  C     
17   O        17.5173   11.0159   22.8256  O     
18   O        17.2067   11.4974   27.2831  O     
19   C        13.6898   11.9442   26.9095  C     
20   O        12.9273   12.3386   24.8150  O     
21   O        13.9023   13.2657   26.7777  O     
22   O        15.8246    2.8106   31.7043  O     
23   C        13.2126   13.5472   25.5435  C     
24   C        17.1823    2.1106   25.9933  C     
25   C        16.1447    5.0273   32.5838  C     
26   C        12.8275   10.0363   25.6816  C     
27   O        17.3140    6.9386   26.3883  O     
28   C        13.9097    4.3270   31.8811  C     
29   C        13.7947    6.9979   25.6970  C     
30   O        17.4401    3.4201   29.6231  O     
31   C        13.9605   11.1362   28.0268  C     
32   C        15.5896    6.2478   33.0474  C     
33   C        15.6029    2.2412   30.3919  C     
34   C        13.0961    9.1926   26.7905  C     
35   C        13.3490    5.5317   32.3812  C     
36   O        14.5041    3.3953   25.7755  O     
37   C        12.8374    7.7317   26.6853  C     
38   C        13.6478    9.7616   27.9687  C     
39   C        18.1042    1.1599   26.6795  C     
40   C        14.2106    6.4886   32.9585  C     
41   C        16.8225   14.2388   26.1356  C     
42   C        16.9928   13.9386   23.3183  C     
43   C        17.5963    4.7802   32.7382  C     
44   C        11.8839    5.7452   32.3246  C     
45   C        17.7902   -0.2206   26.7657  C     
46   C        19.3147    1.6136   27.2575  C     
47   C        16.7651   15.2106   23.8883  C     
48   C        16.6802   15.3585   25.2911  C     
49   C        20.1812    0.7160   27.9070  C     
50   C        18.6601   -1.1174   27.4138  C     
51   C        19.8582   -0.6521   27.9800  C     
52   H        18.1721    9.0115   24.4448  H     
53   H        18.2541    9.2875   26.1740  H     
54   H        15.6340    9.3475   26.0632  H     
55   H        15.8160    8.6979   24.4350  H     
56   H        17.5173    3.8860   27.1757  H     
57   H        15.2157    2.1880   27.9129  H     
58   H        16.1114    4.5323   25.2458  H     
59   H        15.8509    5.5648   27.8675  H     
60   H        14.2166    5.1734   27.4691  H     
61   H        13.8212   14.2087   24.9240  H     
62   H        12.2717   14.0604   25.7693  H     
63   H        16.3214    1.5723   25.5878  H     
64   H        17.7142    2.5457   25.1420  H     
65   H        12.4292    9.6617   24.8164  H     
66   H        13.3047    3.6223   31.4479  H     
67   H        13.8732    7.5659   24.7689  H     
68   H        13.2924    6.0774   25.3911  H     
69   H        14.3830   11.5366   28.8657  H     
70   H        16.1857    6.9603   33.4676  H     
71   H        14.5286    2.2812   30.1572  H     
72   H        15.8720    1.1795   30.4314  H     
73   H        13.8295    4.0129   25.4289  H     
74   H        11.8058    7.5985   26.3445  H     
75   H        12.8954    7.2547   27.6668  H     
76   H        13.8597    9.1710   28.7768  H     
77   H        13.8402    7.3726   33.3159  H     
78   H        16.7588   14.3432   27.1519  H     
79   H        17.0482   13.8294   22.3025  H     
80   H        17.7651    3.8286   33.2491  H     
81   H        18.0929    5.5646   33.3127  H     
82   H        18.0526    4.7464   31.7497  H     
83   H        11.5609    5.8327   31.2861  H     
84   H        11.5847    6.6485   32.8588  H     
85   H        11.3680    4.8991   32.7826  H     
86   H        16.9236   -0.5806   26.3588  H     
87   H        19.5728    2.6038   27.2129  H     
88   H        16.6621   16.0284   23.2839  H     
89   H        16.5185   16.2855   25.6962  H     
90   H        21.0495    1.0558   28.3225  H     
91   H        18.4199   -2.1091   27.4711  H     
92   H        20.4946   -1.3057   28.4415  H     
@<TRIPOS>BOND
     1    1    2 1
     2    1    3 1
     3    1    6 1
     4    2    5 1
     5    2   18 2
     6    3    4 1
     7    3   17 2
     8    4    5 2
     9    4   42 1
    10    5   41 1
    11    6    8 1
    12    7    8 1
    13    7    9 am
    14    7   27 2
    15    9   14 1
    16    9   29 1
    17   10   11 1
    18   10   12 1
    19   10   24 1
    20   11   16 am
    21   12   14 1
    22   12   36 1
    23   13   19 2
    24   13   20 1
    25   13   26 1
    26   15   22 1
    27   15   25 2
    28   15   28 1
    29   16   30 2
    30   16   33 1
    31   19   21 1
    32   19   31 1
    33   20   23 1
    34   21   23 1
    35   22   33 1
    36   24   39 1
    37   25   32 1
    38   25   43 1
    39   26   34 2
    40   28   35 2
    41   29   37 1
    42   31   38 2
    43   32   40 2
    44   34   37 1
    45   34   38 1
    46   35   40 1
    47   35   44 1
    48   39   45 2
    49   39   46 1
    50   41   48 2
    51   42   47 2
    52   45   50 1
    53   46   49 2
    54   47   48 1
    55   49   51 1
    56   50   51 2
    57    6   52 1
    58    6   53 1
    59    8   54 1
    60    8   55 1
    61   10   56 1
    62   11   57 1
    63   12   58 1
    64   14   59 1
    65   14   60 1
    66   23   61 1
    67   23   62 1
    68   24   63 1
    69   24   64 1
    70   26   65 1
    71   28   66 1
    72   29   67 1
    73   29   68 1
    74   31   69 1
    75   32   70 1
    76   33   71 1
    77   33   72 1
    78   36   73 1
    79   37   74 1
    80   37   75 1
    81   38   76 1
    82   40   77 1
    83   41   78 1
    84   42   79 1
    85   43   80 1
    86   43   81 1
    87   43   82 1
    88   44   83 1
    89   44   84 1
    90   44   85 1
    91   45   86 1
    92   46   87 1
    93   47   88 1
    94   48   89 1
    95   49   90 1
    96   50   91 1
    97   51   92 1
@<TRIPOS>PROPERTY_DATA
  Total_Score	| 8.7139
  Crash		| -1.6283
  Polar		| 4.4403
  FragIndex	| 1
  FragRMSD	| 0.265

