@<TRIPOS>MOLECULE
BindingDB_8108
 97 101 0 0 0
SMALL
NO_CHARGES


@<TRIPOS>ATOM
1    C        16.7081    0.0836   30.8018  C     
2    O        15.8477   -0.5084   30.1571  O     
3    C        15.8318    2.3316   30.1703  C     
4    N        16.7454    1.4144   30.8102  N     
5    C        16.4892    2.9387   29.0131  C     
6    C        15.2579    3.3467   31.2321  C     
7    C        15.9740    4.7325   31.2750  C     
8    C        13.7239    3.5218   31.0797  C     
9    O        17.5323    3.5547   29.1947  O     
10   N        16.0315    2.7565   27.7799  N     
11   C        16.6685    3.1282   26.5411  C     
12   C        15.6946    3.9490   25.6316  C     
13   C        17.1577    1.8346   25.8219  C     
14   C        15.4215    5.4203   26.0452  C     
15   C        14.1819    6.9833   27.6148  C     
16   O        14.4567    3.2502   25.4958  O     
17   N        14.3343    5.6065   27.0417  N     
18   C        13.9117    6.8736   29.0399  C     
19   O        14.6663    7.3810   29.8596  O     
20   N        12.8420    6.2666   29.5086  N     
21   C        13.0840    7.8351   26.8867  C     
22   C        18.0861    0.9712   26.6098  C     
23   C        17.8140   -0.4085   26.7964  C     
24   C        19.2711    1.5062   27.1698  C     
25   C        20.1505    0.6909   27.9036  C     
26   C        19.8827   -0.6824   28.0527  C     
27   C        18.7115   -1.2322   27.5006  C     
28   C        13.3021    9.3143   26.9423  C     
29   C        13.5154   10.0713   25.7635  C     
30   C        13.2585   10.0120   28.1735  C     
31   C        13.4635   11.4021   28.2308  C     
32   C        13.6530   12.1625   27.0487  C     
33   C        13.6869   11.4663   25.8160  C     
34   C        13.7770   13.5827   27.1006  C     
35   C        13.2531   14.4011   26.0628  C     
36   C        14.4095   14.2217   28.2057  C     
37   C        14.5169   15.6251   28.2739  C     
38   C        13.3738   15.7981   26.1412  C     
39   C        13.9946   16.4013   27.2251  C     
40   C        13.5206   17.9200   25.7709  C     
41   O        12.9334   16.7102   25.2557  O     
42   O        13.9962   17.7421   27.1186  O     
43   C        17.6995   -0.6840   31.5669  C     
44   C        17.5415   -0.4597   33.1057  C     
45   C        18.5966   -1.2400   33.9378  C     
46   C        18.5955   -2.7567   33.6079  C     
47   C        18.7391   -3.0152   32.0868  C     
48   C        17.6855   -2.2244   31.2688  C     
49   H        14.9797    1.7536   29.7925  H     
50   H        17.4520    1.8188   31.3426  H     
51   H        15.4046    2.9029   32.2229  H     
52   H        17.0506    4.6018   31.3935  H     
53   H        15.6052    5.3266   32.1198  H     
54   H        15.7849    5.2944   30.3586  H     
55   H        13.4684    3.7921   30.0518  H     
56   H        13.3502    4.2913   31.7573  H     
57   H        13.2155    2.5859   31.3303  H     
58   H        15.2184    2.2361   27.6915  H     
59   H        17.5550    3.7505   26.7206  H     
60   H        16.1401    3.9987   24.6341  H     
61   H        16.2749    1.2568   25.5208  H     
62   H        17.6751    2.1126   24.8968  H     
63   H        16.3543    5.8570   26.4306  H     
64   H        15.1490    5.9724   25.1412  H     
65   H        15.1376    7.5002   27.4897  H     
66   H        13.7896    3.9099   25.2244  H     
67   H        13.4502    5.3369   26.5900  H     
68   H        14.5128    4.9557   27.8125  H     
69   H        12.6805    6.2414   30.4692  H     
70   H        12.2164    5.8293   28.9036  H     
71   H        13.0344    7.5194   25.8395  H     
72   H        12.0910    7.6213   27.3012  H     
73   H        16.9603   -0.8236   26.4231  H     
74   H        19.5031    2.4956   27.0507  H     
75   H        20.9927    1.0922   28.3219  H     
76   H        20.5353   -1.2806   28.5664  H     
77   H        18.5101   -2.2267   27.6185  H     
78   H        13.5507    9.6079   24.8515  H     
79   H        13.0636    9.5153   29.0432  H     
80   H        13.4100   11.8656   29.1410  H     
81   H        13.8339   11.9794   24.9436  H     
82   H        12.7666   13.9914   25.2620  H     
83   H        14.8047   13.6673   28.9668  H     
84   H        14.9729   16.0766   29.0682  H     
85   H        14.3596   18.2124   25.1329  H     
86   H        12.7786   18.7186   25.7502  H     
87   H        18.6861   -0.3137   31.2705  H     
88   H        17.6414    0.6037   33.3412  H     
89   H        16.5424   -0.7771   33.4211  H     
90   H        19.5917   -0.8281   33.7433  H     
91   H        18.3880   -1.1074   35.0040  H     
92   H        19.4192   -3.2427   34.1362  H     
93   H        17.6607   -3.1990   33.9630  H     
94   H        19.7449   -2.7351   31.7589  H     
95   H        18.6105   -4.0853   31.8931  H     
96   H        16.6955   -2.6338   31.5011  H     
97   H        17.8759   -2.3940   30.2041  H     
@<TRIPOS>BOND
     1    1    2 2
     2    1    4 am
     3    1   43 1
     4    3    4 1
     5    3    5 1
     6    3    6 1
     7    5    9 2
     8    5   10 am
     9    6    7 1
    10    6    8 1
    11   10   11 1
    12   11   12 1
    13   11   13 1
    14   12   14 1
    15   12   16 1
    16   13   22 1
    17   14   17 1
    18   15   17 1
    19   15   18 1
    20   15   21 1
    21   18   19 2
    22   18   20 am
    23   21   28 1
    24   22   23 2
    25   22   24 1
    26   23   27 1
    27   24   25 2
    28   25   26 1
    29   26   27 2
    30   28   29 2
    31   28   30 1
    32   29   33 1
    33   30   31 2
    34   31   32 1
    35   32   33 2
    36   32   34 1
    37   34   35 2
    38   34   36 1
    39   35   38 1
    40   36   37 2
    41   37   39 1
    42   38   39 2
    43   38   41 1
    44   39   42 1
    45   40   41 1
    46   40   42 1
    47   43   44 1
    48   43   48 1
    49   44   45 1
    50   45   46 1
    51   46   47 1
    52   47   48 1
    53    3   49 1
    54    4   50 1
    55    6   51 1
    56    7   52 1
    57    7   53 1
    58    7   54 1
    59    8   55 1
    60    8   56 1
    61    8   57 1
    62   10   58 1
    63   11   59 1
    64   12   60 1
    65   13   61 1
    66   13   62 1
    67   14   63 1
    68   14   64 1
    69   15   65 1
    70   16   66 1
    71   17   67 1
    72   17   68 1
    73   20   69 1
    74   20   70 1
    75   21   71 1
    76   21   72 1
    77   23   73 1
    78   24   74 1
    79   25   75 1
    80   26   76 1
    81   27   77 1
    82   29   78 1
    83   30   79 1
    84   31   80 1
    85   33   81 1
    86   35   82 1
    87   36   83 1
    88   37   84 1
    89   40   85 1
    90   40   86 1
    91   43   87 1
    92   44   88 1
    93   44   89 1
    94   45   90 1
    95   45   91 1
    96   46   92 1
    97   46   93 1
    98   47   94 1
    99   47   95 1
   100   48   96 1
   101   48   97 1
@<TRIPOS>PROPERTY_DATA
  Total_Score	| 10.4819
  Crash		| -2.1707
  Polar		| 6.2570
  FragIndex	| 1
  FragRMSD	| 0.594

