@<TRIPOS>MOLECULE
BindingDB_50076285
 87 91 0 0 0
SMALL
NO_CHARGES


@<TRIPOS>ATOM
1    C        16.7232   11.6742   26.4082  C     
2    N        17.2195   10.7919   25.4925  N     
3    N        13.2034   11.9690   25.7992  N     
4    C        12.2585   12.0725   24.8383  C     
5    C        16.8028    6.8936   24.9511  C     
6    N        15.8445    6.7510   26.0217  N     
7    C        17.1820    9.3445   25.6919  C     
8    C        16.8910    8.3877   24.4890  C     
9    C        15.2020   15.1788   23.7599  C     
10   C        16.0139    6.0760   27.1532  C     
11   C        15.7864   15.9011   24.7872  C     
12   O        14.0905   15.7835   23.3028  O     
13   C        15.6556   11.6209   27.4554  C     
14   O        15.0842   17.0102   25.0819  O     
15   C        13.8935   16.8067   24.2965  C     
16   C        13.8467   13.1542   26.3565  C     
17   C        13.7143   10.6491   26.1326  C     
18   O        17.4220   12.6675   26.5755  O     
19   C        16.4239    5.9011   23.8090  C     
20   C        18.1650   11.2482   24.4566  C     
21   C        15.7774   13.9802   23.3021  C     
22   O        11.8296   11.0671   24.2783  O     
23   N        15.1804    5.7182   29.3951  N     
24   O        17.1013    5.5854   27.4382  O     
25   C        14.9086    5.9829   31.7280  C     
26   C        14.5247   10.5498   27.4378  C     
27   C        14.8353   12.9606   27.5447  C     
28   C        17.0091   15.4971   25.3416  C     
29   C        14.8589    5.8624   28.0052  C     
30   C        14.8957    6.5507   30.4325  C     
31   C        16.9873   13.5142   23.8767  C     
32   C        14.6197    6.7602   32.8675  C     
33   O        15.7197    8.7909   23.7843  O     
34   C        17.6291   12.2572   23.3947  C     
35   C        17.6207   14.3247   24.8561  C     
36   C        16.0986    4.5444   24.3352  C     
37   Cl       14.6233    6.0538   34.4049  Cl    
38   C        11.6624   13.3199   24.3843  C     
39   C        14.3112    8.7114   31.4459  C     
40   C        14.5954    7.9303   30.3110  C     
41   C        14.3164    8.1273   32.7226  C     
42   C        17.0234    3.4768   24.2599  C     
43   C        14.9015    4.3480   25.0612  C     
44   C        14.6488    3.1306   25.7116  C     
45   C        16.7521    2.2414   24.8760  C     
46   C        15.5657    2.0694   25.6078  C     
47   H        17.8092    6.6106   25.2818  H     
48   H        14.9586    7.1129   25.8560  H     
49   H        18.1604    9.0580   26.0929  H     
50   H        16.4979    9.0723   26.4681  H     
51   H        17.7202    8.4658   23.7812  H     
52   H        16.1753   11.5060   28.4109  H     
53   H        13.6158   17.7415   23.8069  H     
54   H        13.0727   16.5122   24.9578  H     
55   H        14.4009   13.6357   25.5520  H     
56   H        13.0863   13.8628   26.6960  H     
57   H        12.9016    9.9205   26.2185  H     
58   H        14.3637   10.3437   25.3190  H     
59   H        15.5629    6.2871   23.2608  H     
60   H        17.2459    5.8322   23.0930  H     
61   H        19.0573   11.6636   24.9315  H     
62   H        18.5523   10.4058   23.8756  H     
63   H        15.3191   13.4699   22.5466  H     
64   H        15.6922    4.9239   29.6178  H     
65   H        15.1238    4.9888   31.8468  H     
66   H        14.8900    9.5453   27.5977  H     
67   H        13.8335   10.7115   28.2724  H     
68   H        14.2555   12.9693   28.4752  H     
69   H        15.4916   13.8323   27.6147  H     
70   H        17.4581   16.0587   26.0673  H     
71   H        14.1355    6.6615   27.8440  H     
72   H        14.3713    4.9361   27.6953  H     
73   H        15.6756    8.2241   22.9847  H     
74   H        18.4784   12.5669   22.7789  H     
75   H        16.9564   11.7082   22.7340  H     
76   H        18.5255   14.0531   25.2452  H     
77   H        11.1545   13.8132   25.2155  H     
78   H        10.9314   13.1614   23.5844  H     
79   H        12.4379   13.9745   23.9955  H     
80   H        14.1005    9.7073   31.3431  H     
81   H        14.5860    8.3898   29.4021  H     
82   H        14.1029    8.7012   33.5420  H     
83   H        17.9113    3.5951   23.7759  H     
84   H        14.2292    5.1109   25.1681  H     
85   H        13.8006    3.0307   26.2684  H     
86   H        17.4282    1.4768   24.8109  H     
87   H        15.3768    1.1786   26.0721  H     
@<TRIPOS>BOND
     1    1    2 am
     2    1   13 1
     3    1   18 2
     4    2    7 1
     5    2   20 1
     6    3    4 am
     7    3   16 1
     8    3   17 1
     9    4   22 2
    10    4   38 1
    11    5    6 1
    12    5    8 1
    13    5   19 1
    14    6   10 am
    15    7    8 1
    16    8   33 1
    17    9   11 2
    18    9   12 1
    19    9   21 1
    20   10   24 2
    21   10   29 1
    22   11   14 1
    23   11   28 1
    24   12   15 1
    25   13   26 1
    26   13   27 1
    27   14   15 1
    28   16   27 1
    29   17   26 1
    30   19   36 1
    31   20   34 1
    32   21   31 2
    33   23   29 1
    34   23   30 1
    35   25   30 1
    36   25   32 2
    37   28   35 2
    38   30   40 2
    39   31   34 1
    40   31   35 1
    41   32   37 1
    42   32   41 1
    43   36   42 1
    44   36   43 2
    45   39   40 1
    46   39   41 2
    47   42   45 2
    48   43   44 1
    49   44   46 2
    50   45   46 1
    51    5   47 1
    52    6   48 1
    53    7   49 1
    54    7   50 1
    55    8   51 1
    56   13   52 1
    57   15   53 1
    58   15   54 1
    59   16   55 1
    60   16   56 1
    61   17   57 1
    62   17   58 1
    63   19   59 1
    64   19   60 1
    65   20   61 1
    66   20   62 1
    67   21   63 1
    68   23   64 1
    69   25   65 1
    70   26   66 1
    71   26   67 1
    72   27   68 1
    73   27   69 1
    74   28   70 1
    75   29   71 1
    76   29   72 1
    77   33   73 1
    78   34   74 1
    79   34   75 1
    80   35   76 1
    81   38   77 1
    82   38   78 1
    83   38   79 1
    84   39   80 1
    85   40   81 1
    86   41   82 1
    87   42   83 1
    88   43   84 1
    89   44   85 1
    90   45   86 1
    91   46   87 1
@<TRIPOS>PROPERTY_DATA
  Total_Score	| 3.1510
  Crash		| -5.2949
  Polar		| 2.4374
  FragIndex	| 1
  FragRMSD	| 1.372

