@<TRIPOS>MOLECULE
BindingDB_50076293
 104 109 0 0 0
SMALL
NO_CHARGES


@<TRIPOS>ATOM
1    C        16.3887    2.6933   29.3463  C     
2    C        14.6202    0.3130   32.3534  C     
3    C        16.4795    7.1360   25.5862  C     
4    N        15.3117    6.5749   25.9846  N     
5    N        18.4634   10.0863   23.1869  N     
6    C        15.7836    1.9045   30.3001  C     
7    N        15.9675    2.6352   28.0848  N     
8    C        15.9055   -0.0043   31.8382  C     
9    C        13.8986    1.3827   31.7765  C     
10   C        19.6608   10.5880   22.7804  C     
11   C        16.6518    3.1387   26.9212  C     
12   O        13.9865   -0.4070   33.3416  O     
13   C        15.3522    5.4264   26.8802  C     
14   C        15.7134    4.1012   26.1242  C     
15   C        16.4938    0.8195   30.8586  C     
16   C        14.4650    2.1542   30.7393  C     
17   C        13.1463   11.4369   25.7480  C     
18   C        13.8484   11.9274   26.8322  C     
19   O        12.6817   12.4247   24.9575  O     
20   C        16.6758    8.2744   24.6778  C     
21   O        13.9006   13.2726   26.8317  O     
22   C        13.2886   13.5825   25.5654  C     
23   C        17.8121   10.5717   24.3950  C     
24   C        17.7288    9.0649   22.4552  C     
25   O        17.5284    6.6864   26.0170  O     
26   O        17.4383    3.2435   29.6444  O     
27   C        17.1481    1.9505   26.0350  C     
28   C        13.9972    6.9314   25.4614  C     
29   C        12.9253   10.0540   25.5901  C     
30   O        20.2270   11.4435   23.4462  O     
31   C        17.3914    7.8400   23.3568  C     
32   C        17.4881    9.4166   25.3747  C     
33   C        14.3860   11.0560   27.8020  C     
34   C        14.7101   -0.7164   34.5496  C     
35   C        13.4195    9.1565   26.5727  C     
36   O        16.6245   -1.0767   32.2898  O     
37   O        12.6044    1.6255   32.1582  O     
38   O        14.5225    3.3825   25.7650  O     
39   C        13.1001    7.7052   26.4762  C     
40   C        14.1619    9.6732   27.6638  C     
41   C        17.9623    0.9473   26.7754  C     
42   C        13.7792   -1.1157   35.6305  C     
43   C        20.3466   10.2142   21.5602  C     
44   C        16.2552   -2.3116   31.6502  C     
45   C        12.4698    2.5758   33.2298  C     
46   C        17.4325   -0.3356   27.0740  C     
47   C        19.2552    1.2709   27.2560  C     
48   C        13.8437   -0.5048   36.9026  C     
49   C        12.8501   -2.1679   35.4276  C     
50   C        13.0154   -0.9435   37.9551  C     
51   C        18.1732   -1.2574   27.8444  C     
52   C        19.9916    0.3496   28.0214  C     
53   C        12.0157   -2.5966   36.4760  C     
54   C        12.1043   -1.9883   37.7422  C     
55   C        19.4449   -0.9159   28.3179  C     
56   H        15.1716    2.1061   27.9261  H     
57   H        17.5401    3.7117   27.2009  H     
58   H        16.0586    5.6205   27.6908  H     
59   H        14.3909    5.2861   27.3960  H     
60   H        16.2206    4.3444   25.1843  H     
61   H        17.4396    0.6058   30.5293  H     
62   H        13.9226    2.9177   30.3304  H     
63   H        15.7068    8.7107   24.4051  H     
64   H        14.0488   13.9763   24.8904  H     
65   H        12.5291   14.3522   25.7151  H     
66   H        18.4006   11.3083   24.9564  H     
67   H        16.8783   11.0783   24.1161  H     
68   H        16.7903    9.4984   22.0841  H     
69   H        18.2526    8.6789   21.5732  H     
70   H        16.2868    1.4542   25.5771  H     
71   H        17.7497    2.3431   25.2065  H     
72   H        14.0547    7.4757   24.5106  H     
73   H        13.4626    6.0194   25.2135  H     
74   H        12.3885    9.7206   24.7885  H     
75   H        18.3172    7.3063   23.5672  H     
76   H        16.7374    7.1669   22.7974  H     
77   H        16.8962    9.8279   26.1967  H     
78   H        18.4253    9.0497   25.7853  H     
79   H        14.9042   11.4259   28.5961  H     
80   H        15.3777   -1.5670   34.3710  H     
81   H        15.3279    0.1326   34.8561  H     
82   H        13.8831    4.0307   25.4043  H     
83   H        12.0557    7.6083   26.1709  H     
84   H        13.1705    7.2283   27.4541  H     
85   H        14.5433    9.0394   28.3743  H     
86   H        20.5973    9.1520   21.5821  H     
87   H        21.2816   10.7719   21.4253  H     
88   H        19.7116   10.4223   20.6966  H     
89   H        15.2103   -2.5561   31.8495  H     
90   H        16.8772   -3.1019   32.0664  H     
91   H        16.4219   -2.2786   30.5691  H     
92   H        13.0036    2.2522   34.1264  H     
93   H        11.4114    2.6548   33.4716  H     
94   H        12.8269    3.5646   32.9274  H     
95   H        16.4985   -0.5955   26.7601  H     
96   H        19.6616    2.1899   27.0611  H     
97   H        14.5183    0.2431   37.0867  H     
98   H        12.7864   -2.6342   34.5188  H     
99   H        13.0923   -0.5089   38.8787  H     
100  H        17.7681   -2.1722   28.0677  H     
101  H        20.9170    0.5997   28.3713  H     
102  H        11.3515   -3.3620   36.3245  H     
103  H        11.5160   -2.3178   38.5095  H     
104  H        19.9768   -1.5801   28.8880  H     
@<TRIPOS>BOND
     1    1    6 1
     2    1    7 am
     3    1   26 2
     4    2    8 1
     5    2    9 2
     6    2   12 1
     7    3    4 am
     8    3   20 1
     9    3   25 2
    10    4   13 1
    11    4   28 1
    12    5   10 am
    13    5   23 1
    14    5   24 1
    15    6   15 1
    16    6   16 2
    17    7   11 1
    18    8   15 2
    19    8   36 1
    20    9   16 1
    21    9   37 1
    22   10   30 2
    23   10   43 1
    24   11   14 1
    25   11   27 1
    26   12   34 1
    27   13   14 1
    28   14   38 1
    29   17   18 2
    30   17   19 1
    31   17   29 1
    32   18   21 1
    33   18   33 1
    34   19   22 1
    35   20   31 1
    36   20   32 1
    37   21   22 1
    38   23   32 1
    39   24   31 1
    40   27   41 1
    41   28   39 1
    42   29   35 2
    43   33   40 2
    44   34   42 1
    45   35   39 1
    46   35   40 1
    47   36   44 1
    48   37   45 1
    49   41   46 2
    50   41   47 1
    51   42   48 1
    52   42   49 2
    53   46   51 1
    54   47   52 2
    55   48   50 2
    56   49   53 1
    57   50   54 1
    58   51   55 2
    59   52   55 1
    60   53   54 2
    61    7   56 1
    62   11   57 1
    63   13   58 1
    64   13   59 1
    65   14   60 1
    66   15   61 1
    67   16   62 1
    68   20   63 1
    69   22   64 1
    70   22   65 1
    71   23   66 1
    72   23   67 1
    73   24   68 1
    74   24   69 1
    75   27   70 1
    76   27   71 1
    77   28   72 1
    78   28   73 1
    79   29   74 1
    80   31   75 1
    81   31   76 1
    82   32   77 1
    83   32   78 1
    84   33   79 1
    85   34   80 1
    86   34   81 1
    87   38   82 1
    88   39   83 1
    89   39   84 1
    90   40   85 1
    91   43   86 1
    92   43   87 1
    93   43   88 1
    94   44   89 1
    95   44   90 1
    96   44   91 1
    97   45   92 1
    98   45   93 1
    99   45   94 1
   100   46   95 1
   101   47   96 1
   102   48   97 1
   103   49   98 1
   104   50   99 1
   105   51  100 1
   106   52  101 1
   107   53  102 1
   108   54  103 1
   109   55  104 1
@<TRIPOS>PROPERTY_DATA
  Total_Score	| 12.3700
  Crash		| -1.4146
  Polar		| 6.2211
  FragIndex	| 1
  FragRMSD	| 0.435

