@<TRIPOS>MOLECULE
BindingDB_8101
 90 94 0 0 0
SMALL
NO_CHARGES


@<TRIPOS>ATOM
1    C        16.7995    2.0764   29.8029  C     
2    O        18.0197    2.0684   29.9088  O     
3    C        16.9193    3.0782   27.5463  C     
4    N        16.2383    2.5130   28.6815  N     
5    C        16.0256    3.9487   26.7867  C     
6    C        17.6259    1.9631   26.6875  C     
7    C        16.6863    1.2064   25.7046  C     
8    C        18.8862    2.4917   25.9418  C     
9    O        14.8131    3.7738   26.8591  O     
10   N        16.5213    4.9214   26.0232  N     
11   C        15.7527    5.9099   25.3101  C     
12   C        16.5215    6.3078   23.9928  C     
13   C        15.3059    7.0366   26.3122  C     
14   C        16.8496    7.7969   23.6865  C     
15   C        18.2846    9.1533   21.9959  C     
16   O        15.8333    5.7646   22.8644  O     
17   N        17.5577    7.9064   22.3964  N     
18   C        18.3926   10.2115   23.0071  C     
19   O        17.4739   10.9837   23.2142  O     
20   N        19.4783   10.3728   23.7479  N     
21   C        17.7318    9.7084   20.6430  C     
22   C        13.8568    7.3709   26.2256  C     
23   C        12.8894    6.5128   26.8002  C     
24   C        13.4097    8.5192   25.5228  C     
25   C        12.0388    8.8157   25.4261  C     
26   C        11.0895    7.9520   26.0061  C     
27   C        11.5163    6.7961   26.6839  C     
28   C        18.6916   10.6236   19.9622  C     
29   C        18.5250   12.0262   19.9958  C     
30   C        19.8056   10.0903   19.2670  C     
31   C        20.7130   10.9343   18.6074  C     
32   C        20.5381   12.3337   18.6428  C     
33   C        19.4451   12.8735   19.3544  C     
34   C        21.4361   13.1802   17.9566  C     
35   C        21.2339   13.4866   16.5834  C     
36   C        22.5646   13.7219   18.6242  C     
37   C        16.0259    1.6610   30.8737  C     
38   C        13.9027    1.7353   31.9860  C     
39   C        14.3887    0.9403   33.0355  C     
40   C        15.7202    0.4933   32.9910  C     
41   C        16.5443    0.8555   31.9135  C     
42   N        14.7241    2.0625   30.9559  N     
43   C        23.4858   14.5391   17.9400  C     
44   C        22.1606   14.3023   15.9120  C     
45   C        23.2721   14.8098   16.5729  C     
46   C        23.4071   15.3396   14.4837  C     
47   O        22.1131   14.7189   14.6307  O     
48   O        24.0378   15.5669   15.7622  O     
49   H        17.6858    3.7436   27.9615  H     
50   H        15.2632    2.4793   28.6414  H     
51   H        18.0055    1.1961   27.3769  H     
52   H        15.7923    0.8444   26.2290  H     
53   H        17.1948    0.3478   25.2570  H     
54   H        16.3641    1.8692   24.8929  H     
55   H        18.6110    3.2367   25.1954  H     
56   H        19.4116    1.6765   25.4362  H     
57   H        19.5821    2.9462   26.6536  H     
58   H        17.4881    4.9843   25.9759  H     
59   H        14.8508    5.3825   24.9710  H     
60   H        17.4907    5.7940   23.9834  H     
61   H        15.5179    6.7231   27.3414  H     
62   H        15.8936    7.9433   26.1984  H     
63   H        15.9360    8.3894   23.6153  H     
64   H        17.4833    8.1832   24.4918  H     
65   H        19.2962    8.7912   21.7957  H     
66   H        16.0494    4.8051   22.8671  H     
67   H        18.2394    7.1424   22.3778  H     
68   H        16.8535    7.7035   21.6712  H     
69   H        19.5158   11.0924   24.4013  H     
70   H        20.2340    9.7779   23.6432  H     
71   H        17.5168    8.8819   19.9606  H     
72   H        16.7691   10.2051   20.8052  H     
73   H        13.1753    5.6598   27.2840  H     
74   H        14.0773    9.1535   25.0838  H     
75   H        11.7294    9.6558   24.9242  H     
76   H        10.0901    8.1627   25.9365  H     
77   H        10.8256    6.1577   27.0837  H     
78   H        17.7283   12.4372   20.4860  H     
79   H        19.9534    9.0811   19.2276  H     
80   H        21.4979   10.5188   18.0992  H     
81   H        19.3018   13.8854   19.3883  H     
82   H        20.4181   13.1347   16.0785  H     
83   H        22.7211   13.5201   19.6169  H     
84   H        12.9401    2.0814   32.0011  H     
85   H        13.7937    0.7036   33.8337  H     
86   H        16.0927   -0.0836   33.7471  H     
87   H        17.5123    0.5296   31.8961  H     
88   H        24.2950   14.9352   18.4220  H     
89   H        24.0495   14.6905   13.8767  H     
90   H        23.2958   16.2946   13.9620  H     
@<TRIPOS>BOND
     1    1    2 2
     2    1    4 am
     3    1   37 1
     4    3    4 1
     5    3    5 1
     6    3    6 1
     7    5    9 2
     8    5   10 am
     9    6    7 1
    10    6    8 1
    11   10   11 1
    12   11   12 1
    13   11   13 1
    14   12   14 1
    15   12   16 1
    16   13   22 1
    17   14   17 1
    18   15   17 1
    19   15   18 1
    20   15   21 1
    21   18   19 2
    22   18   20 am
    23   21   28 1
    24   22   23 2
    25   22   24 1
    26   23   27 1
    27   24   25 2
    28   25   26 1
    29   26   27 2
    30   28   29 2
    31   28   30 1
    32   29   33 1
    33   30   31 2
    34   31   32 1
    35   32   33 2
    36   32   34 1
    37   34   35 2
    38   34   36 1
    39   35   44 1
    40   36   43 2
    41   37   41 2
    42   37   42 1
    43   38   39 1
    44   38   42 2
    45   39   40 2
    46   40   41 1
    47   43   45 1
    48   44   45 2
    49   44   47 1
    50   45   48 1
    51   46   47 1
    52   46   48 1
    53    3   49 1
    54    4   50 1
    55    6   51 1
    56    7   52 1
    57    7   53 1
    58    7   54 1
    59    8   55 1
    60    8   56 1
    61    8   57 1
    62   10   58 1
    63   11   59 1
    64   12   60 1
    65   13   61 1
    66   13   62 1
    67   14   63 1
    68   14   64 1
    69   15   65 1
    70   16   66 1
    71   17   67 1
    72   17   68 1
    73   20   69 1
    74   20   70 1
    75   21   71 1
    76   21   72 1
    77   23   73 1
    78   24   74 1
    79   25   75 1
    80   26   76 1
    81   27   77 1
    82   29   78 1
    83   30   79 1
    84   31   80 1
    85   33   81 1
    86   35   82 1
    87   36   83 1
    88   38   84 1
    89   39   85 1
    90   40   86 1
    91   41   87 1
    92   43   88 1
    93   46   89 1
    94   46   90 1
@<TRIPOS>PROPERTY_DATA
  Total_Score	| 4.8575
  Crash		| -3.7112
  Polar		| 4.2073
  FragIndex	| 1
  FragRMSD	| 0.906

