@<TRIPOS>MOLECULE
BindingDB_50297442
 76 80 0 0 0
SMALL
NO_CHARGES


@<TRIPOS>ATOM
1    C        16.6815    0.6157   31.1044  C     
2    C        17.2773    1.2998   30.0108  C     
3    C        18.3508    0.6665   29.3319  C     
4    C        18.7798   -0.6232   29.7000  C     
5    C        16.8291    2.5610   29.6429  C     
6    O        17.5835    3.5230   29.7582  O     
7    N        15.6032    2.7673   29.1935  N     
8    C        15.0122    4.0174   28.7873  C     
9    C        15.4509    4.4783   27.3413  C     
10   C        15.2493    5.0883   29.9048  C     
11   C        14.4337    5.4113   26.5815  C     
12   O        15.6918    3.3117   26.5483  O     
13   O        14.4316    5.1162   25.1817  O     
14   C        14.6260    6.9629   26.7480  C     
15   N        15.4163    7.5001   25.6704  N     
16   C        13.2594    7.7181   26.8016  C     
17   C        16.7367    7.5896   25.5972  C     
18   C        17.3243    8.2112   24.4954  C     
19   O        17.4539    7.1197   26.4630  O     
20   C        17.1191    7.6614   23.2050  C     
21   C        17.7078    8.2337   22.0687  C     
22   C        18.1404    9.3704   24.6130  C     
23   C        18.7316    9.9386   23.4658  C     
24   C        18.5220    9.3741   22.1946  C     
25   C        17.1251   -0.6576   31.4965  C     
26   C        18.1815   -1.2848   30.7886  C     
27   O        18.5926   -2.5649   31.1043  O     
28   C        18.2302   -3.0370   32.4221  C     
29   C        16.7670   -2.6556   32.7632  C     
30   O        16.5636   -1.2372   32.6100  O     
31   C        14.0902    5.2733   30.8145  C     
32   C        14.2144    5.0862   32.2080  C     
33   C        13.1212    5.3284   33.0594  C     
34   C        11.8899    5.7500   32.5287  C     
35   C        11.7464    5.9215   31.1405  C     
36   C        12.8439    5.6966   30.2929  C     
37   C        13.3984    9.1978   26.9207  C     
38   C        13.4636   10.0080   25.7615  C     
39   C        13.6126   11.4024   25.8699  C     
40   C        13.7004   12.0029   27.1378  C     
41   C        13.6268   11.2130   28.2957  C     
42   C        13.4825    9.8180   28.1904  C     
43   Cl       18.4339   10.1605   26.0898  Cl    
44   F        19.0775    9.9020   21.1392  F     
45   H        15.9301    1.0577   31.6377  H     
46   H        18.8056    1.1260   28.5375  H     
47   H        19.5226   -1.0801   29.1697  H     
48   H        15.0507    1.9674   29.0645  H     
49   H        13.9493    3.7954   28.7210  H     
50   H        16.4090    4.9943   27.4068  H     
51   H        16.1622    4.8322   30.4679  H     
52   H        15.4551    6.0658   29.4721  H     
53   H        13.4376    5.1487   26.9460  H     
54   H        15.0162    2.6581   26.8304  H     
55   H        13.6161    4.5930   25.0333  H     
56   H        15.1344    7.1767   27.6900  H     
57   H        14.9165    7.8670   24.9255  H     
58   H        12.6829    7.4706   25.9049  H     
59   H        12.6758    7.3509   27.6523  H     
60   H        16.5463    6.8190   23.0802  H     
61   H        17.5518    7.8195   21.1486  H     
62   H        19.3178   10.7722   23.5468  H     
63   H        18.3444   -4.1247   32.4512  H     
64   H        18.9046   -2.6014   33.1591  H     
65   H        16.0769   -3.1920   32.1046  H     
66   H        16.5393   -2.9303   33.7945  H     
67   H        15.1092    4.7870   32.6105  H     
68   H        13.2296    5.2069   34.0680  H     
69   H        11.1015    5.9177   33.1462  H     
70   H        10.8472    6.2135   30.7445  H     
71   H        12.7255    5.8503   29.2891  H     
72   H        13.4103    9.5863   24.8331  H     
73   H        13.6554   11.9774   25.0270  H     
74   H        13.8023   13.0178   27.2149  H     
75   H        13.6771   11.6511   29.2174  H     
76   H        13.4366    9.2545   29.0446  H     
@<TRIPOS>BOND
     1    1    2 2
     2    1   25 1
     3    2    3 1
     4    2    5 1
     5    3    4 2
     6    4   26 1
     7    5    6 2
     8    5    7 am
     9    7    8 1
    10    8    9 1
    11    8   10 1
    12    9   11 1
    13    9   12 1
    14   10   31 1
    15   11   13 1
    16   11   14 1
    17   14   15 1
    18   14   16 1
    19   15   17 am
    20   16   37 1
    21   17   18 1
    22   17   19 2
    23   18   20 2
    24   18   22 1
    25   20   21 1
    26   21   24 2
    27   22   23 2
    28   22   43 1
    29   23   24 1
    30   24   44 1
    31   25   26 2
    32   25   30 1
    33   26   27 1
    34   27   28 1
    35   28   29 1
    36   29   30 1
    37   31   32 2
    38   31   36 1
    39   32   33 1
    40   33   34 2
    41   34   35 1
    42   35   36 2
    43   37   38 2
    44   37   42 1
    45   38   39 1
    46   39   40 2
    47   40   41 1
    48   41   42 2
    49    1   45 1
    50    3   46 1
    51    4   47 1
    52    7   48 1
    53    8   49 1
    54    9   50 1
    55   10   51 1
    56   10   52 1
    57   11   53 1
    58   12   54 1
    59   13   55 1
    60   14   56 1
    61   15   57 1
    62   16   58 1
    63   16   59 1
    64   20   60 1
    65   21   61 1
    66   23   62 1
    67   28   63 1
    68   28   64 1
    69   29   65 1
    70   29   66 1
    71   32   67 1
    72   33   68 1
    73   34   69 1
    74   35   70 1
    75   36   71 1
    76   38   72 1
    77   39   73 1
    78   40   74 1
    79   41   75 1
    80   42   76 1
@<TRIPOS>PROPERTY_DATA
  Total_Score	| 7.2928
  Crash		| -2.3777
  Polar		| 4.3320
  FragIndex	| 1
  FragRMSD	| 0.840

