@<TRIPOS>MOLECULE
BindingDB_50076291
 85 89 0 0 0
SMALL
NO_CHARGES


@<TRIPOS>ATOM
1    C        16.5095    7.1710   25.7780  C     
2    N        15.2836    6.6261   26.0095  N     
3    C        16.7357    3.2679   26.7378  C     
4    N        16.0882    2.4396   27.7199  N     
5    C        15.1790    5.3999   26.8132  C     
6    C        15.6659    4.1389   26.0028  C     
7    C        14.2884   11.3924   26.9811  C     
8    N        18.9989    9.4897   23.1249  N     
9    C        16.4464    2.2604   28.9834  C     
10   C        13.4651   12.1225   26.1373  C     
11   O        15.0929   12.1994   27.6995  O     
12   C        16.8762    8.1849   24.7708  C     
13   O        13.6771   13.4468   26.2514  O     
14   C        14.4995   13.4881   27.4323  C     
15   O        17.4753    6.6915   26.3680  O     
16   C        17.5710    2.3848   25.7510  C     
17   C        14.0509    7.0522   25.3560  C     
18   C        14.2055    9.9890   27.0362  C     
19   O        17.4244    2.8264   29.4544  O     
20   C        14.9702   -1.3358   27.6183  C     
21   C        12.5241   11.4798   25.3194  C     
22   C        17.7877    9.3286   25.3284  C     
23   C        17.5750    7.4699   23.5694  C     
24   C        18.0962    8.4689   22.5073  C     
25   C        18.3040   10.2634   24.2015  C     
26   O        15.9109   -0.0317   29.3941  O     
27   C        15.6967    1.3359   29.8136  C     
28   C        13.2569    9.3130   26.2278  C     
29   C        14.8447   -0.7277   28.8819  C     
30   C        13.9319   -2.1270   27.0874  C     
31   O        14.5531    3.3089   25.6359  O     
32   C        13.0938    7.8341   26.3031  C     
33   C        12.4263   10.0761   25.3648  C     
34   C        18.4466    1.3751   26.4182  C     
35   Cl       14.1097   -2.8612   25.5783  Cl    
36   C        19.6277   10.3723   22.1033  C     
37   C        12.6260   -1.7355   29.1029  C     
38   C        13.6746   -0.9584   29.6395  C     
39   C        12.7526   -2.3177   27.8293  C     
40   C        18.1644   -0.0081   26.3258  C     
41   C        19.5727    1.7814   27.1724  C     
42   C        20.3304    0.8427   27.8971  C     
43   C        18.9298   -0.9488   27.0385  C     
44   C        20.0016   -0.5210   27.8381  C     
45   H        17.4363    3.9670   27.2057  H     
46   H        15.3173    1.9396   27.4193  H     
47   H        15.7442    5.5136   27.7423  H     
48   H        14.1474    5.2281   27.1419  H     
49   H        16.1096    4.4860   25.0587  H     
50   H        19.7739    8.9819   23.5654  H     
51   H        15.9849    8.6869   24.3913  H     
52   H        13.8831   13.7889   28.2872  H     
53   H        15.2848   14.2360   27.3053  H     
54   H        16.8793    1.8961   25.0575  H     
55   H        18.2091    3.0402   25.1501  H     
56   H        14.2198    7.6111   24.4346  H     
57   H        13.5115    6.1642   25.0079  H     
58   H        14.8157    9.4687   27.6724  H     
59   H        15.8356   -1.2239   27.0936  H     
60   H        11.9155   12.0227   24.7050  H     
61   H        17.2240    9.9246   26.0526  H     
62   H        18.6597    8.9080   25.8409  H     
63   H        18.4313    6.8899   23.9307  H     
64   H        16.8717    6.7790   23.0898  H     
65   H        17.2440    8.9506   22.0141  H     
66   H        18.6436    7.8958   21.7522  H     
67   H        18.9957   10.9801   24.6525  H     
68   H        17.4577   10.8246   23.7882  H     
69   H        16.0529    1.3970   30.8476  H     
70   H        14.6420    1.6320   29.8197  H     
71   H        13.8250    3.9136   25.3766  H     
72   H        12.0632    7.5749   26.0409  H     
73   H        13.2290    7.4972   27.3343  H     
74   H        11.7352    9.6116   24.7665  H     
75   H        20.1836    9.7732   21.3806  H     
76   H        20.3371   11.0510   22.5770  H     
77   H        18.8802   10.9618   21.5688  H     
78   H        11.7802   -1.9021   29.6515  H     
79   H        13.5878   -0.5667   30.5787  H     
80   H        11.9946   -2.8955   27.4626  H     
81   H        17.3906   -0.3401   25.7509  H     
82   H        19.8384    2.7666   27.2201  H     
83   H        21.1230    1.1484   28.4633  H     
84   H        18.7065   -1.9424   26.9776  H     
85   H        20.5524   -1.2031   28.3684  H     
@<TRIPOS>BOND
     1    1    2 am
     2    1   12 1
     3    1   15 2
     4    2    5 1
     5    2   17 1
     6    3    4 1
     7    3    6 1
     8    3   16 1
     9    4    9 am
    10    5    6 1
    11    6   31 1
    12    7   10 2
    13    7   11 1
    14    7   18 1
    15    8   24 1
    16    8   25 1
    17    8   36 1
    18    9   19 2
    19    9   27 1
    20   10   13 1
    21   10   21 1
    22   11   14 1
    23   12   22 1
    24   12   23 1
    25   13   14 1
    26   16   34 1
    27   17   32 1
    28   18   28 2
    29   20   29 1
    30   20   30 2
    31   21   33 2
    32   22   25 1
    33   23   24 1
    34   26   27 1
    35   26   29 1
    36   28   32 1
    37   28   33 1
    38   29   38 2
    39   30   35 1
    40   30   39 1
    41   34   40 1
    42   34   41 2
    43   37   38 1
    44   37   39 2
    45   40   43 2
    46   41   42 1
    47   42   44 2
    48   43   44 1
    49    3   45 1
    50    4   46 1
    51    5   47 1
    52    5   48 1
    53    6   49 1
    54    8   50 1
    55   12   51 1
    56   14   52 1
    57   14   53 1
    58   16   54 1
    59   16   55 1
    60   17   56 1
    61   17   57 1
    62   18   58 1
    63   20   59 1
    64   21   60 1
    65   22   61 1
    66   22   62 1
    67   23   63 1
    68   23   64 1
    69   24   65 1
    70   24   66 1
    71   25   67 1
    72   25   68 1
    73   27   69 1
    74   27   70 1
    75   31   71 1
    76   32   72 1
    77   32   73 1
    78   33   74 1
    79   36   75 1
    80   36   76 1
    81   36   77 1
    82   37   78 1
    83   38   79 1
    84   39   80 1
    85   40   81 1
    86   41   82 1
    87   42   83 1
    88   43   84 1
    89   44   85 1
@<TRIPOS>PROPERTY_DATA
  Total_Score	| 11.9619
  Crash		| -2.6150
  Polar		| 5.9187
  FragIndex	| 1
  FragRMSD	| 0.845

