@<TRIPOS>MOLECULE
BindingDB_8098
 96 99 0 0 0
SMALL
NO_CHARGES


@<TRIPOS>ATOM
1    C        17.1481   11.7712   23.9938  C     
2    O        17.8461   11.5332   23.0105  O     
3    C        16.6889    9.3486   24.3442  C     
4    N        16.5937   10.7511   24.6296  N     
5    C        15.6098    8.7168   25.1047  C     
6    C        18.1310    8.7609   24.5676  C     
7    C        18.9353    8.5464   23.2525  C     
8    C        18.9824    9.5990   25.5649  C     
9    O        14.4769    8.7261   24.6346  O     
10   N        15.8327    8.1427   26.2812  N     
11   C        14.9346    7.4016   27.1206  C     
12   C        14.1130    6.3272   26.3463  C     
13   C        14.1063    8.3497   28.0560  C     
14   C        14.8616    5.7769   25.0751  C     
15   C        15.2817    3.3652   25.9136  C     
16   O        12.8244    6.8241   25.9797  O     
17   N        14.7163    4.3093   24.9030  N     
18   C        15.8117    3.9835   27.1355  C     
19   O        16.6945    4.8414   27.0569  O     
20   N        15.5246    3.5305   28.3469  N     
21   C        16.3028    2.3774   25.2425  C     
22   C        14.1560    8.0082   29.5038  C     
23   C        14.1538    6.6495   29.8908  C     
24   C        14.2611    8.9798   30.5285  C     
25   C        14.3287    8.6057   31.8888  C     
26   C        14.2909    7.2465   32.2522  C     
27   C        14.1959    6.2665   31.2443  C     
28   C        16.7563    1.3210   26.1957  C     
29   C        17.7966    1.5828   27.1149  C     
30   C        16.0359    0.1110   26.2891  C     
31   C        16.3126   -0.7960   27.3207  C     
32   C        17.3014   -0.5146   28.2903  C     
33   C        18.0564    0.6765   28.1568  C     
34   C        17.4597   -1.3567   29.4310  C     
35   C        18.7424   -1.7622   29.8684  C     
36   C        16.3353   -1.7802   30.1841  C     
37   C        16.4857   -2.5518   31.3512  C     
38   C        17.7723   -2.9328   31.7761  C     
39   C        18.9011   -2.5329   31.0378  C     
40   C        16.9307   13.0878   24.4097  C     
41   C        16.9026   14.1873   23.5031  C     
42   C        16.7373   15.5095   23.9723  C     
43   C        16.5856   15.7500   25.3551  C     
44   C        16.5772   14.6843   26.2560  C     
45   C        16.7452   13.3721   25.7971  C     
46   O        17.1264   14.0328   22.1515  O     
47   C        15.9367   13.9823   21.3466  C     
48   O        16.8156   16.5572   23.0950  O     
49   C        15.6183   17.3489   22.9681  C     
50   H        16.4243    9.1690   23.2975  H     
51   H        15.9861   10.9725   25.3525  H     
52   H        18.0324    7.7535   24.9910  H     
53   H        18.3177    8.0594   22.4935  H     
54   H        19.7929    7.8995   23.4300  H     
55   H        19.3119    9.4869   22.8406  H     
56   H        19.1116   10.6258   25.2082  H     
57   H        19.9803    9.1751   25.6789  H     
58   H        18.5212    9.6408   26.5491  H     
59   H        16.7380    8.1877   26.6117  H     
60   H        15.5986    6.8274   27.7654  H     
61   H        13.9296    5.4979   27.0319  H     
62   H        14.4922    9.3669   27.9806  H     
63   H        13.0719    8.3896   27.7155  H     
64   H        14.4418    6.2550   24.1789  H     
65   H        15.9268    6.0181   25.0878  H     
66   H        14.4133    2.7569   26.2128  H     
67   H        12.2359    6.0380   25.9970  H     
68   H        13.7156    4.1234   24.8321  H     
69   H        15.1079    4.0710   23.9894  H     
70   H        15.9548    3.9089   29.1286  H     
71   H        14.8893    2.7972   28.4521  H     
72   H        15.8213    1.9003   24.3820  H     
73   H        17.1470    2.9614   24.8554  H     
74   H        14.1181    5.9292   29.1810  H     
75   H        14.3175    9.9647   30.2809  H     
76   H        14.4305    9.3266   32.6105  H     
77   H        14.3453    6.9866   33.2391  H     
78   H        14.1869    5.2730   31.5137  H     
79   H        18.3153    2.4625   27.0721  H     
80   H        15.2767   -0.0910   25.6336  H     
81   H        15.7596   -1.6510   27.3707  H     
82   H        18.7697    0.9255   28.8405  H     
83   H        19.5795   -1.4917   29.3493  H     
84   H        15.3912   -1.4934   29.9210  H     
85   H        15.6635   -2.8374   31.8950  H     
86   H        17.8886   -3.4925   32.6255  H     
87   H        19.8377   -2.7951   31.3596  H     
88   H        16.5057   16.7077   25.7042  H     
89   H        16.4781   14.8602   27.2555  H     
90   H        16.7769   12.6298   26.4912  H     
91   H        15.3040   13.1359   21.6159  H     
92   H        16.2335   13.8598   20.3042  H     
93   H        15.3557   14.9019   21.4228  H     
94   H        14.7469   16.7288   22.7489  H     
95   H        15.7588   18.0504   22.1407  H     
96   H        15.4353   17.9241   23.8779  H     
@<TRIPOS>BOND
     1    1    2 2
     2    1    4 am
     3    1   40 1
     4    3    4 1
     5    3    5 1
     6    3    6 1
     7    5    9 2
     8    5   10 am
     9    6    7 1
    10    6    8 1
    11   10   11 1
    12   11   12 1
    13   11   13 1
    14   12   14 1
    15   12   16 1
    16   13   22 1
    17   14   17 1
    18   15   17 1
    19   15   18 1
    20   15   21 1
    21   18   19 2
    22   18   20 am
    23   21   28 1
    24   22   23 2
    25   22   24 1
    26   23   27 1
    27   24   25 2
    28   25   26 1
    29   26   27 2
    30   28   29 2
    31   28   30 1
    32   29   33 1
    33   30   31 2
    34   31   32 1
    35   32   33 2
    36   32   34 1
    37   34   35 2
    38   34   36 1
    39   35   39 1
    40   36   37 2
    41   37   38 1
    42   38   39 2
    43   40   41 2
    44   40   45 1
    45   41   42 1
    46   41   46 1
    47   42   43 2
    48   42   48 1
    49   43   44 1
    50   44   45 2
    51   46   47 1
    52   48   49 1
    53    3   50 1
    54    4   51 1
    55    6   52 1
    56    7   53 1
    57    7   54 1
    58    7   55 1
    59    8   56 1
    60    8   57 1
    61    8   58 1
    62   10   59 1
    63   11   60 1
    64   12   61 1
    65   13   62 1
    66   13   63 1
    67   14   64 1
    68   14   65 1
    69   15   66 1
    70   16   67 1
    71   17   68 1
    72   17   69 1
    73   20   70 1
    74   20   71 1
    75   21   72 1
    76   21   73 1
    77   23   74 1
    78   24   75 1
    79   25   76 1
    80   26   77 1
    81   27   78 1
    82   29   79 1
    83   30   80 1
    84   31   81 1
    85   33   82 1
    86   35   83 1
    87   36   84 1
    88   37   85 1
    89   38   86 1
    90   39   87 1
    91   43   88 1
    92   44   89 1
    93   45   90 1
    94   47   91 1
    95   47   92 1
    96   47   93 1
    97   49   94 1
    98   49   95 1
    99   49   96 1
@<TRIPOS>PROPERTY_DATA
  Total_Score	| 4.3790
  Crash		| -5.4614
  Polar		| 5.1028
  FragIndex	| 1
  FragRMSD	| 1.391

