@<TRIPOS>MOLECULE
BindingDB_50076294
 86 90 0 0 0
SMALL
NO_CHARGES


@<TRIPOS>ATOM
1    C        15.9283   11.3354   26.7497  C     
2    N        16.8710   11.0711   25.7929  N     
3    N        12.5572    9.3438   25.6744  N     
4    C        11.3942    8.7043   25.8837  C     
5    C        17.3160    7.2965   24.6146  C     
6    N        16.2920    6.3885   25.0818  N     
7    C        16.8249    9.8657   25.0107  C     
8    C        17.4146    8.5595   25.5763  C     
9    C        15.6175   15.6872   25.7440  C     
10   C        16.2739    5.6942   26.2138  C     
11   C        14.5231   15.7616   24.8950  C     
12   O        15.5255   16.5588   26.7681  O     
13   C        14.7536   10.5484   27.2683  C     
14   O        13.6342   16.6800   25.3071  O     
15   C        14.2278   17.1388   26.5378  C     
16   C        12.6809   10.8012   25.6756  C     
17   C        13.8238    8.6436   25.6335  C     
18   O        16.0704   12.3976   27.3575  O     
19   C        17.0160    7.4915   23.0759  C     
20   C        17.9371   11.9988   25.4142  C     
21   C        16.6539   14.7684   25.5012  C     
22   O        10.3882    9.3542   26.1499  O     
23   O        17.1690    5.7933   27.0438  O     
24   C        16.4305    1.7731   27.3684  C     
25   C        14.4893    9.0034   27.0384  C     
26   C        13.3909   11.2778   26.9720  C     
27   C        14.4384   14.9376   23.7601  C     
28   O        15.4015    3.4180   25.9282  O     
29   C        15.1879    4.7550   26.4505  C     
30   C        16.5750   13.8870   24.3915  C     
31   C        16.5171    2.7636   26.3654  C     
32   C        17.5973    1.1204   27.8143  C     
33   O        18.7621    8.7845   25.9942  O     
34   C        17.6455   12.8837   24.1630  C     
35   C        15.4728   14.0181   23.4971  C     
36   C        17.9111    8.2272   22.1332  C     
37   Cl       17.5071   -0.0658   29.0203  Cl    
38   C        11.2272    7.2546   25.9453  C     
39   C        18.9297    2.3999   26.2080  C     
40   C        17.7624    3.0539   25.7676  C     
41   C        18.8457    1.4402   27.2329  C     
42   C        19.2733    8.5085   22.3867  C     
43   C        17.3548    8.6975   20.9104  C     
44   C        18.1401    9.3558   19.9551  C     
45   C        20.0553    9.2093   21.4484  C     
46   C        19.4960    9.6182   20.2230  C     
47   H        18.2628    6.7506   24.6649  H     
48   H        15.5559    6.2195   24.4693  H     
49   H        15.8180    9.6252   24.9447  H     
50   H        17.1342   10.0417   23.9813  H     
51   H        16.8154    8.3792   26.4785  H     
52   H        14.8902   10.6131   28.3589  H     
53   H        13.5719   16.8771   27.3700  H     
54   H        14.3115   18.2284   26.5022  H     
55   H        13.2709   11.1236   24.8132  H     
56   H        11.7171   11.3184   25.5994  H     
57   H        13.7434    7.5560   25.5958  H     
58   H        14.3613    8.9091   24.6707  H     
59   H        16.9441    6.4814   22.6550  H     
60   H        16.0256    7.9480   22.9768  H     
61   H        18.2141   12.6557   26.2441  H     
62   H        18.8488   11.4424   25.2014  H     
63   H        17.4417   14.7183   26.1571  H     
64   H        15.5147    1.5263   27.7571  H     
65   H        15.4164    8.4347   27.2373  H     
66   H        13.8044    8.6630   27.8302  H     
67   H        12.7103   11.0918   27.8068  H     
68   H        13.5117   12.3630   26.9135  H     
69   H        13.6380   15.0091   23.1315  H     
70   H        14.9556    4.7219   27.5215  H     
71   H        14.2807    5.1200   25.9561  H     
72   H        18.7042    9.5084   26.6590  H     
73   H        18.5646   13.4131   23.8812  H     
74   H        17.4182   12.2556   23.2937  H     
75   H        15.4024   13.4346   22.6566  H     
76   H        11.5167    6.8143   24.9873  H     
77   H        10.1965    6.9536   26.1422  H     
78   H        11.8545    6.8378   26.7396  H     
79   H        19.8341    2.6141   25.7763  H     
80   H        17.8208    3.7508   25.0215  H     
81   H        19.6942    0.9658   27.5506  H     
82   H        19.7100    8.2024   23.2510  H     
83   H        16.3666    8.5459   20.7065  H     
84   H        17.7253    9.6735   19.0777  H     
85   H        21.0421    9.4044   21.6431  H     
86   H        20.0681   10.1112   19.5343  H     
@<TRIPOS>BOND
     1    1    2 am
     2    1   13 1
     3    1   18 2
     4    2    7 1
     5    2   20 1
     6    3    4 am
     7    3   16 1
     8    3   17 1
     9    4   22 2
    10    4   38 1
    11    5    6 1
    12    5    8 1
    13    5   19 1
    14    6   10 am
    15    7    8 1
    16    8   33 1
    17    9   11 2
    18    9   12 1
    19    9   21 1
    20   10   23 2
    21   10   29 1
    22   11   14 1
    23   11   27 1
    24   12   15 1
    25   13   25 1
    26   13   26 1
    27   14   15 1
    28   16   26 1
    29   17   25 1
    30   19   36 1
    31   20   34 1
    32   21   30 2
    33   24   31 1
    34   24   32 2
    35   27   35 2
    36   28   29 1
    37   28   31 1
    38   30   34 1
    39   30   35 1
    40   31   40 2
    41   32   37 1
    42   32   41 1
    43   36   42 1
    44   36   43 2
    45   39   40 1
    46   39   41 2
    47   42   45 2
    48   43   44 1
    49   44   46 2
    50   45   46 1
    51    5   47 1
    52    6   48 1
    53    7   49 1
    54    7   50 1
    55    8   51 1
    56   13   52 1
    57   15   53 1
    58   15   54 1
    59   16   55 1
    60   16   56 1
    61   17   57 1
    62   17   58 1
    63   19   59 1
    64   19   60 1
    65   20   61 1
    66   20   62 1
    67   21   63 1
    68   24   64 1
    69   25   65 1
    70   25   66 1
    71   26   67 1
    72   26   68 1
    73   27   69 1
    74   29   70 1
    75   29   71 1
    76   33   72 1
    77   34   73 1
    78   34   74 1
    79   35   75 1
    80   38   76 1
    81   38   77 1
    82   38   78 1
    83   39   79 1
    84   40   80 1
    85   41   81 1
    86   42   82 1
    87   43   83 1
    88   44   84 1
    89   45   85 1
    90   46   86 1
@<TRIPOS>PROPERTY_DATA
  Total_Score	| 1.9592
  Crash		| -6.3388
  Polar		| 1.7182
  FragIndex	| 1
  FragRMSD	| 1.456

