@<TRIPOS>MOLECULE
BindingDB_8089
 86 88 0 0 0
SMALL
NO_CHARGES


@<TRIPOS>ATOM
1    C        15.2092    0.5980   31.6294  C     
2    O        13.9938    0.5892   31.4082  O     
3    C        15.4526    2.8281   30.5170  C     
4    N        15.9048    1.6755   31.2613  N     
5    C        16.3141    3.0292   29.3403  C     
6    C        15.3403    4.0704   31.4734  C     
7    C        14.3807    3.7800   32.6693  C     
8    C        16.6973    4.6273   31.9996  C     
9    O        17.4297    3.5154   29.4830  O     
10   N        15.8927    2.6622   28.1337  N     
11   C        16.5198    2.9007   26.8577  C     
12   C        15.5740    3.7909   26.0024  C     
13   C        16.8585    1.5520   26.1555  C     
14   C        15.7557    5.3155   26.2714  C     
15   C        14.2310    7.1491   27.1067  C     
16   O        14.2254    3.3766   26.2429  O     
17   N        14.5049    6.0969   26.0936  N     
18   C        14.1554    6.6036   28.4537  C     
19   O        13.9394    5.4111   28.6519  O     
20   N        14.5641    7.2792   29.5095  N     
21   C        12.9552    7.9686   26.7168  C     
22   C        17.9323    0.7663   26.8220  C     
23   C        17.8263   -0.6439   26.9554  C     
24   C        19.1056    1.4025   27.2858  C     
25   C        20.1229    0.6602   27.9186  C     
26   C        20.0057   -0.7389   28.0271  C     
27   C        18.8694   -1.3924   27.5327  C     
28   C        13.1705    9.4400   26.8617  C     
29   C        13.3870   10.2635   25.7298  C     
30   C        13.2742   10.0240   28.1475  C     
31   C        13.6231   11.3767   28.2971  C     
32   C        13.8539   12.1761   27.1654  C     
33   C        13.7224   11.6212   25.8789  C     
34   Br       14.3248   13.9652   27.3669  Br    
35   C        15.7771   -0.4874   32.3293  C     
36   C        17.1913   -0.6742   32.4703  C     
37   C        17.7056   -1.7745   33.1920  C     
38   C        16.8321   -2.6693   33.8388  C     
39   C        15.4452   -2.5122   33.7197  C     
40   C        14.9365   -1.4505   32.9521  C     
41   O        19.0735   -1.9223   33.3155  O     
42   C        19.5996   -3.0296   32.5663  C     
43   O        18.1150    0.2156   31.9974  O     
44   C        18.5230    0.0060   30.6354  C     
45   H        14.4346    2.6444   30.1470  H     
46   H        16.8346    1.7172   31.5407  H     
47   H        14.8799    4.8699   30.8951  H     
48   H        13.4125    3.3994   32.3140  H     
49   H        14.2008    4.7070   33.2341  H     
50   H        14.8309    3.0451   33.3469  H     
51   H        17.2869    3.8278   32.4752  H     
52   H        16.5220    5.4254   32.7350  H     
53   H        17.2740    5.0651   31.1782  H     
54   H        15.0221    2.2430   28.1038  H     
55   H        17.4507    3.4593   26.9935  H     
56   H        15.7618    3.6166   24.9322  H     
57   H        15.9370    0.9557   26.0830  H     
58   H        17.1859    1.7498   25.1251  H     
59   H        16.1771    5.4599   27.2806  H     
60   H        16.5210    5.7151   25.5816  H     
61   H        15.0935    7.8229   27.0409  H     
62   H        13.6572    3.7709   25.5402  H     
63   H        14.5604    6.5267   25.1653  H     
64   H        13.7082    5.4550   26.0876  H     
65   H        14.5630    6.8749   30.3886  H     
66   H        14.8672    8.1921   29.4128  H     
67   H        12.6716    7.7434   25.6771  H     
68   H        12.0789    7.6734   27.3199  H     
69   H        17.0044   -1.1371   26.6042  H     
70   H        19.2435    2.4059   27.1639  H     
71   H        20.9443    1.1363   28.2848  H     
72   H        20.7568   -1.2767   28.4666  H     
73   H        18.7967   -2.4059   27.5916  H     
74   H        13.3270    9.8719   24.7857  H     
75   H        13.1057    9.4636   28.9827  H     
76   H        13.7052   11.7784   29.2335  H     
77   H        13.8858   12.2010   25.0579  H     
78   H        17.2045   -3.4441   34.3980  H     
79   H        14.8212   -3.1521   34.1987  H     
80   H        13.9186   -1.3744   32.8890  H     
81   H        19.3220   -3.9712   33.0324  H     
82   H        20.6841   -2.9510   32.5769  H     
83   H        19.2613   -3.0228   31.5283  H     
84   H        19.0195   -0.9649   30.5299  H     
85   H        19.2297    0.7991   30.3761  H     
86   H        17.6814    0.0566   29.9461  H     
@<TRIPOS>BOND
     1    1    2 2
     2    1    4 am
     3    1   35 1
     4    3    4 1
     5    3    5 1
     6    3    6 1
     7    5    9 2
     8    5   10 am
     9    6    7 1
    10    6    8 1
    11   10   11 1
    12   11   12 1
    13   11   13 1
    14   12   14 1
    15   12   16 1
    16   13   22 1
    17   14   17 1
    18   15   17 1
    19   15   18 1
    20   15   21 1
    21   18   19 2
    22   18   20 am
    23   21   28 1
    24   22   23 2
    25   22   24 1
    26   23   27 1
    27   24   25 2
    28   25   26 1
    29   26   27 2
    30   28   29 2
    31   28   30 1
    32   29   33 1
    33   30   31 2
    34   31   32 1
    35   32   33 2
    36   32   34 1
    37   35   36 2
    38   35   40 1
    39   36   37 1
    40   36   43 1
    41   37   38 2
    42   37   41 1
    43   38   39 1
    44   39   40 2
    45   41   42 1
    46   43   44 1
    47    3   45 1
    48    4   46 1
    49    6   47 1
    50    7   48 1
    51    7   49 1
    52    7   50 1
    53    8   51 1
    54    8   52 1
    55    8   53 1
    56   10   54 1
    57   11   55 1
    58   12   56 1
    59   13   57 1
    60   13   58 1
    61   14   59 1
    62   14   60 1
    63   15   61 1
    64   16   62 1
    65   17   63 1
    66   17   64 1
    67   20   65 1
    68   20   66 1
    69   21   67 1
    70   21   68 1
    71   23   69 1
    72   24   70 1
    73   25   71 1
    74   26   72 1
    75   27   73 1
    76   29   74 1
    77   30   75 1
    78   31   76 1
    79   33   77 1
    80   38   78 1
    81   39   79 1
    82   40   80 1
    83   42   81 1
    84   42   82 1
    85   42   83 1
    86   44   84 1
    87   44   85 1
    88   44   86 1
@<TRIPOS>PROPERTY_DATA
  Total_Score	| 8.8892
  Crash		| -2.1565
  Polar		| 5.6003
  FragIndex	| 1
  FragRMSD	| 0.649

