@<TRIPOS>MOLECULE
BindingDB_50332032
 35 36 0 0 0
SMALL
NO_CHARGES


@<TRIPOS>ATOM
1    C        22.9794   28.5408   19.1452  C     
2    C        22.0848   28.5358   18.0558  C     
3    C        21.4636   29.7342   17.6174  C     
4    C        23.2111   29.7204   19.8619  C     
5    C        22.5217   30.9047   19.5184  C     
6    C        21.6484   30.8991   18.3986  C     
7    O        21.0327   32.1053   18.0749  O     
8    C        21.2088   33.2569   18.7878  C     
9    C        22.0851   33.2486   19.8606  C     
10   C        22.7004   32.0971   20.2175  C     
11   O        20.5557   34.3777   18.3763  O     
12   O        21.8462   27.3677   17.3815  O     
13   C        20.7953   29.8141   16.4014  C     
14   O        19.7896   30.5032   16.3070  O     
15   C        21.3871   29.3196   15.1650  C     
16   C        21.5723   26.2184   18.2130  C     
17   C        20.3476   26.3688   19.1514  C     
18   C        19.9712   25.0713   19.9043  C     
19   C        21.1716   30.2489   13.9368  C     
20   H        23.4900   27.6879   19.3759  H     
21   H        23.8841   29.7113   20.6254  H     
22   H        22.2402   34.0832   20.3857  H     
23   H        23.3191   32.1310   20.9969  H     
24   H        22.4786   29.1987   15.2704  H     
25   H        20.9780   28.3262   14.9348  H     
26   H        21.3638   25.3912   17.5309  H     
27   H        22.4579   25.9553   18.7797  H     
28   H        20.5317   27.1603   19.8797  H     
29   H        19.4923   26.6593   18.5424  H     
30   H        19.7970   24.2512   19.1980  H     
31   H        19.0490   25.2367   20.4735  H     
32   H        20.7722   24.7926   20.5998  H     
33   H        20.0992   30.2845   13.6845  H     
34   H        21.7255   29.8639   13.0846  H     
35   H        21.5273   31.2656   14.1568  H     
@<TRIPOS>BOND
     1    1    2 2
     2    1    4 1
     3    2    3 1
     4    2   12 1
     5    3    6 2
     6    3   13 1
     7    4    5 2
     8    5    6 1
     9    5   10 1
    10    6    7 1
    11    7    8 1
    12    8    9 1
    13    8   11 2
    14    9   10 2
    15   12   16 1
    16   13   14 2
    17   13   15 1
    18   15   19 1
    19   16   17 1
    20   17   18 1
    21    1   20 1
    22    4   21 1
    23    9   22 1
    24   10   23 1
    25   15   24 1
    26   15   25 1
    27   16   26 1
    28   16   27 1
    29   17   28 1
    30   17   29 1
    31   18   30 1
    32   18   31 1
    33   18   32 1
    34   19   33 1
    35   19   34 1
    36   19   35 1
@<TRIPOS>PROPERTY_DATA
  Total_Score	| 3.7465
  Crash		| -1.3629
  Polar		| 1.6033
  FragIndex	| 1
  FragRMSD	| 0.677

