@<TRIPOS>MOLECULE
BindingDB_50022178
 21 22 0 0 0
SMALL
NO_CHARGES


@<TRIPOS>ATOM
1    C        22.9709   28.4280   19.3505  C     
2    C        21.6936   28.3174   18.7706  C     
3    C        20.9530   29.4742   18.4903  C     
4    C        23.5054   29.7028   19.6442  C     
5    C        22.7805   30.8919   19.3486  C     
6    C        21.4909   30.7390   18.7623  C     
7    O        20.7639   31.8458   18.4404  O     
8    C        21.2322   33.1052   18.6638  C     
9    C        22.4813   33.2792   19.2427  C     
10   C        23.2517   32.2173   19.5850  C     
11   O        20.4495   34.1500   18.3045  O     
12   C        24.5554   32.4490   20.2008  C     
13   O        21.1518   27.1144   18.4616  O     
14   H        23.5174   27.5917   19.5576  H     
15   H        20.0266   29.3942   18.0758  H     
16   H        24.4383   29.7456   20.0609  H     
17   H        22.7935   34.2050   19.3974  H     
18   H        24.5854   31.9835   21.1887  H     
19   H        24.7898   33.5084   20.3336  H     
20   H        25.3450   32.0166   19.5795  H     
21   H        21.8992   26.5761   18.0964  H     
@<TRIPOS>BOND
     1    1    2 2
     2    1    4 1
     3    2    3 1
     4    2   13 1
     5    3    6 2
     6    4    5 2
     7    5    6 1
     8    5   10 1
     9    6    7 1
    10    7    8 1
    11    8    9 1
    12    8   11 2
    13    9   10 2
    14   10   12 1
    15    1   14 1
    16    3   15 1
    17    4   16 1
    18    9   17 1
    19   12   18 1
    20   12   19 1
    21   12   20 1
    22   13   21 1
@<TRIPOS>PROPERTY_DATA
  Total_Score	| 0.6155
  Crash		| -0.1986
  Polar		| 1.0674
  FragIndex	| 1
  FragRMSD	| 0.144

