@<TRIPOS>MOLECULE
BindingDB_26448
 42 43 0 0 0
SMALL
NO_CHARGES


@<TRIPOS>ATOM
1    C        24.2334   -4.0564   20.8488  C     
2    C        24.7034   -5.0155   19.8213  C     
3    O        25.4896   -6.0557   20.1800  O     
4    O        24.3632   -4.8879   18.5165  O     
5    C        25.3104   -2.9719   21.1644  C     
6    C        25.5520   -1.9112   20.0523  C     
7    C        26.7527   -1.0758   20.2429  C     
8    O        27.2120   -0.3193   19.2246  O     
9    O        27.4074   -1.0212   21.4194  O     
10   N        22.9811   -3.4576   20.5072  N     
11   S        21.5171   -4.2907   20.3598  S     
12   O        21.5196   -5.5661   21.3077  O     
13   O        21.3259   -4.7674   18.8571  O     
14   C        20.1676   -3.2804   20.7903  C     
15   C        19.1952   -1.0448   21.0268  C     
16   C        19.3107    0.3447   20.9747  C     
17   C        18.2645    1.1307   21.2963  C     
18   C        17.0569    0.5926   21.6494  C     
19   C        16.9048   -0.7512   21.7669  C     
20   C        17.9644   -1.6194   21.4561  C     
21   C        17.8511   -3.0271   21.5358  C     
22   C        18.9430   -3.8490   21.2046  C     
23   C        20.2751   -1.8825   20.6780  C     
24   C        15.0976    1.6753   20.8550  C     
25   O        16.0506    1.4358   21.9101  O     
26   C        15.6854    1.7580   19.5026  C     
27   O        15.0980    1.1423   18.4499  O     
28   O        16.8887    2.3406   19.3096  O     
29   H        24.0708   -4.6305   21.7683  H     
30   H        25.0048   -2.4548   22.0738  H     
31   H        26.2556   -3.4851   21.3810  H     
32   H        25.6489   -2.4233   19.0888  H     
33   H        24.6920   -1.2501   19.9894  H     
34   H        22.9980   -2.5384   20.1983  H     
35   H        20.1644    0.7660   20.7056  H     
36   H        18.3743    2.1180   21.2919  H     
37   H        16.0261   -1.1280   22.0556  H     
38   H        16.9767   -3.4576   21.8400  H     
39   H        18.8346   -4.8624   21.2645  H     
40   H        21.1519   -1.4642   20.3564  H     
41   H        14.3382    0.8878   20.8686  H     
42   H        14.6099    2.6273   21.0679  H     
@<TRIPOS>BOND
     1    1    2 1
     2    1    5 1
     3    1   10 1
     4    2    3 2
     5    2    4 1
     6    5    6 1
     7    6    7 1
     8    7    8 2
     9    7    9 1
    10   10   11 1
    11   11   12 2
    12   11   13 2
    13   11   14 1
    14   14   22 2
    15   14   23 1
    16   15   16 1
    17   15   20 1
    18   15   23 2
    19   16   17 2
    20   17   18 1
    21   18   19 2
    22   18   25 1
    23   19   20 1
    24   20   21 2
    25   21   22 1
    26   24   25 1
    27   24   26 1
    28   26   27 2
    29   26   28 1
    30    1   29 1
    31    5   30 1
    32    5   31 1
    33    6   32 1
    34    6   33 1
    35   10   34 1
    36   16   35 1
    37   17   36 1
    38   19   37 1
    39   21   38 1
    40   22   39 1
    41   23   40 1
    42   24   41 1
    43   24   42 1
@<TRIPOS>PROPERTY_DATA
  Total_Score	| 7.7928
  Crash		| -1.0806
  Polar		| 7.0681
  FragIndex	| 1
  FragRMSD	| 0.997

