@<TRIPOS>MOLECULE
BindingDB_26446
 55 56 0 0 0
SMALL
NO_CHARGES


@<TRIPOS>ATOM
1    C        24.3113   -3.5981   20.7835  C     
2    C        24.5575   -4.8675   20.0648  C     
3    O        24.9544   -5.9484   20.7665  O     
4    O        24.0789   -5.0847   18.8186  O     
5    C        24.7464   -2.3266   19.9896  C     
6    C        26.2254   -2.3451   19.5085  C     
7    C        27.0037   -1.1713   19.9673  C     
8    O        27.6127   -1.1464   21.1800  O     
9    O        27.2461   -0.1417   19.1241  O     
10   N        22.9662   -3.4904   21.2618  N     
11   S        21.5950   -4.1659   20.5476  S     
12   O        21.4548   -5.6944   20.9730  O     
13   O        21.6591   -4.0335   18.9695  O     
14   C        20.2121   -3.2308   21.0307  C     
15   C        19.2239   -1.0275   21.4117  C     
16   C        19.2759    0.3796   21.3668  C     
17   C        18.2132    1.1122   21.7586  C     
18   C        17.0601    0.5131   22.2056  C     
19   C        16.9953   -0.8307   22.3411  C     
20   C        18.0413   -1.6434   21.9077  C     
21   C        17.9466   -3.0521   21.9343  C     
22   C        19.0295   -3.8379   21.4960  C     
23   C        20.3025   -1.8261   20.9787  C     
24   C        14.7843    1.0329   21.8062  C     
25   O        16.0027    1.2654   22.5552  O     
26   C        14.6500    1.9577   20.5687  C     
27   C        13.8539    1.3239   19.3905  C     
28   C        12.4399    0.7529   19.7125  C     
29   C        11.4444    1.7458   20.3721  C     
30   C        10.6283    1.0890   21.5112  C     
31   H        24.9303   -3.6233   21.6766  H     
32   H        24.1034   -2.2232   19.1073  H     
33   H        24.5779   -1.4367   20.6044  H     
34   H        26.7286   -3.2580   19.8527  H     
35   H        26.2553   -2.3600   18.4109  H     
36   H        22.8038   -2.8473   21.9779  H     
37   H        20.1076    0.8380   21.0547  H     
38   H        18.2765    2.1031   21.7243  H     
39   H        16.1759   -1.2483   22.7085  H     
40   H        17.1026   -3.5120   22.2690  H     
41   H        18.9491   -4.8592   21.5332  H     
42   H        21.1488   -1.3742   20.6165  H     
43   H        14.6729   -0.0210   21.5211  H     
44   H        13.9580    1.2443   22.4857  H     
45   H        14.1660    2.8929   20.8666  H     
46   H        15.6566    2.2082   20.1911  H     
47   H        13.7613    2.0878   18.6142  H     
48   H        14.4587    0.5102   18.9782  H     
49   H        12.0126    0.4038   18.7688  H     
50   H        12.5780   -0.1385   20.3490  H     
51   H        11.9734    2.6040   20.8011  H     
52   H        10.7459    2.1031   19.6073  H     
53   H        10.1473    0.1724   21.1681  H     
54   H         9.8623    1.7791   21.8464  H     
55   H        11.2939    0.8446   22.3458  H     
@<TRIPOS>BOND
     1    1    2 1
     2    1    5 1
     3    1   10 1
     4    2    3 2
     5    2    4 1
     6    5    6 1
     7    6    7 1
     8    7    8 2
     9    7    9 1
    10   10   11 1
    11   11   12 2
    12   11   13 2
    13   11   14 1
    14   14   22 2
    15   14   23 1
    16   15   16 1
    17   15   20 1
    18   15   23 2
    19   16   17 2
    20   17   18 1
    21   18   19 2
    22   18   25 1
    23   19   20 1
    24   20   21 2
    25   21   22 1
    26   24   25 1
    27   24   26 1
    28   26   27 1
    29   27   28 1
    30   28   29 1
    31   29   30 1
    32    1   31 1
    33    5   32 1
    34    5   33 1
    35    6   34 1
    36    6   35 1
    37   10   36 1
    38   16   37 1
    39   17   38 1
    40   19   39 1
    41   21   40 1
    42   22   41 1
    43   23   42 1
    44   24   43 1
    45   24   44 1
    46   26   45 1
    47   26   46 1
    48   27   47 1
    49   27   48 1
    50   28   49 1
    51   28   50 1
    52   29   51 1
    53   29   52 1
    54   30   53 1
    55   30   54 1
    56   30   55 1
@<TRIPOS>PROPERTY_DATA
  Total_Score	| 10.0165
  Crash		| -1.8381
  Polar		| 5.8576
  FragIndex	| 1
  FragRMSD	| 0.828

