@<TRIPOS>MOLECULE
BindingDB_50309205
 48 50 0 0 0
SMALL
NO_CHARGES


@<TRIPOS>ATOM
1    C        -9.8670   49.5477    9.2938  C     
2    C       -11.0075   49.8187   10.0802  C     
3    N       -12.2522   49.6883    9.5651  N     
4    C       -12.4943   49.3073    8.2871  C     
5    C       -11.4160   49.0260    7.4166  C     
6    C       -10.1050   49.1638    7.9469  C     
7    N       -13.7869   49.1725    7.9424  N     
8    C       -11.6056   48.5645    6.0924  C     
9    C       -10.9885   47.3718    5.6579  C     
10   C       -11.2440   46.8578    4.3745  C     
11   C       -12.1367   47.5104    3.4848  C     
12   C       -12.7174   48.7254    3.9145  C     
13   C       -12.4468   49.2560    5.1899  C     
14   C       -12.4313   46.9735    2.2331  C     
15   N       -11.6781   46.0871    1.6232  N     
16   O       -13.4250   47.3341    1.6026  O     
17   C        -8.5350   49.6431    9.8266  C     
18   C        -7.4968   48.7818    9.3884  C     
19   C        -6.1771   48.9248    9.8665  C     
20   C        -5.8669   49.9193   10.8244  C     
21   C        -6.8994   50.7267   11.3201  C     
22   C        -8.2238   50.6123   10.8042  C     
23   O        -4.5608   49.9951   11.2620  O     
24   C        -3.9754   51.2569   11.6497  C     
25   C        -4.0667   52.3799   10.5904  C     
26   O        -3.6895   53.6486   11.1744  O     
27   C        -2.6218   54.3536   10.5283  C     
28   H       -10.9293   50.0797   11.0579  H     
29   H        -9.3131   48.9893    7.3238  H     
30   H       -14.0323   48.8720    7.0541  H     
31   H       -14.4899   49.3997    8.5770  H     
32   H       -10.3787   46.8454    6.2827  H     
33   H       -10.7981   45.9747    4.1159  H     
34   H       -13.3502   49.2480    3.3020  H     
35   H       -12.8753   50.1407    5.4569  H     
36   H       -11.9143   45.7804    0.7287  H     
37   H       -10.8714   45.7455    2.0516  H     
38   H        -7.6846   48.0227    8.7263  H     
39   H        -5.4426   48.3044    9.5100  H     
40   H        -6.7320   51.4320   12.0276  H     
41   H        -8.9175   51.2654   11.1611  H     
42   H        -4.3877   51.6056   12.5959  H     
43   H        -2.9083   51.0679   11.8312  H     
44   H        -3.4638   52.0928    9.7246  H     
45   H        -5.0994   52.4820   10.2587  H     
46   H        -1.6913   53.7821   10.5650  H     
47   H        -2.4734   55.2906   11.0657  H     
48   H        -2.8733   54.5815    9.4908  H     
@<TRIPOS>BOND
     1    1    2 2
     2    1    6 1
     3    1   17 1
     4    2    3 1
     5    3    4 2
     6    4    5 1
     7    4    7 1
     8    5    6 2
     9    5    8 1
    10    8    9 2
    11    8   13 1
    12    9   10 1
    13   10   11 2
    14   11   12 1
    15   11   14 1
    16   12   13 2
    17   14   15 am
    18   14   16 2
    19   17   18 2
    20   17   22 1
    21   18   19 1
    22   19   20 2
    23   20   21 1
    24   20   23 1
    25   21   22 2
    26   23   24 1
    27   24   25 1
    28   25   26 1
    29   26   27 1
    30    2   28 1
    31    6   29 1
    32    7   30 1
    33    7   31 1
    34    9   32 1
    35   10   33 1
    36   12   34 1
    37   13   35 1
    38   15   36 1
    39   15   37 1
    40   18   38 1
    41   19   39 1
    42   21   40 1
    43   22   41 1
    44   24   42 1
    45   24   43 1
    46   25   44 1
    47   25   45 1
    48   27   46 1
    49   27   47 1
    50   27   48 1
@<TRIPOS>PROPERTY_DATA
  Total_Score	| 9.9386
  Crash		| -0.8367
  Polar		| 4.1010
  FragIndex	| 1
  FragRMSD	| 0.219

