@<TRIPOS>MOLECULE
BindingDB_50309203
 40 43 0 0 0
SMALL
NO_CHARGES


@<TRIPOS>ATOM
1    C        -9.8864   49.5175    9.2620  C     
2    C       -11.0192   49.7811   10.0700  C     
3    N       -12.2666   49.7229    9.5490  N     
4    C       -12.5258   49.4018    8.2575  C     
5    C       -11.4520   49.0854    7.3830  C     
6    C       -10.1374   49.1721    7.9105  C     
7    N       -13.8261   49.3865    7.9057  N     
8    C       -11.6462   48.6026    6.0561  C     
9    C       -12.4815   49.2789    5.1391  C     
10   C       -12.7221   48.7403    3.8597  C     
11   C       -12.1316   47.5187    3.4441  C     
12   C       -11.2419   46.8828    4.3494  C     
13   C       -11.0211   47.4057    5.6360  C     
14   C       -12.4252   46.9604    2.1971  C     
15   N       -11.7069   46.0159    1.6267  N     
16   O       -13.3839   47.3439    1.5346  O     
17   C        -8.5593   49.5665    9.7990  C     
18   C        -8.2293   50.4654   10.8462  C     
19   C        -6.2403   48.7172    9.8704  C     
20   C        -7.5404   48.6968    9.3211  C     
21   C        -5.9464   49.6317   10.8951  C     
22   C        -6.9267   50.4855   11.3786  C     
23   O        -6.4693   51.2337   12.3979  O     
24   C        -5.0639   50.9336   12.3791  C     
25   O        -4.7835   49.7867   11.5562  O     
26   H       -10.9264   50.0067   11.0596  H     
27   H        -9.3432   48.9915    7.2866  H     
28   H       -14.0923   49.1631    7.0046  H     
29   H       -14.4988   49.6056    8.5651  H     
30   H       -12.9140   50.1725    5.3918  H     
31   H       -13.3300   49.2633    3.2242  H     
32   H       -10.7635   46.0148    4.0898  H     
33   H       -10.4080   46.8904    6.2759  H     
34   H       -11.9290   45.7203    0.7290  H     
35   H       -10.9265   45.6381    2.0706  H     
36   H        -8.9202   51.1191   11.2260  H     
37   H        -5.5198   48.0707    9.5386  H     
38   H        -7.7413   48.0007    8.5949  H     
39   H        -4.5276   51.7992   11.9823  H     
40   H        -4.7149   50.7446   13.3933  H     
@<TRIPOS>BOND
     1    1    2 2
     2    1    6 1
     3    1   17 1
     4    2    3 1
     5    3    4 2
     6    4    5 1
     7    4    7 1
     8    5    6 2
     9    5    8 1
    10    8    9 2
    11    8   13 1
    12    9   10 1
    13   10   11 2
    14   11   12 1
    15   11   14 1
    16   12   13 2
    17   14   15 am
    18   14   16 2
    19   17   18 2
    20   17   20 1
    21   18   22 1
    22   19   20 2
    23   19   21 1
    24   21   22 2
    25   21   25 1
    26   22   23 1
    27   23   24 1
    28   24   25 1
    29    2   26 1
    30    6   27 1
    31    7   28 1
    32    7   29 1
    33    9   30 1
    34   10   31 1
    35   12   32 1
    36   13   33 1
    37   15   34 1
    38   15   35 1
    39   18   36 1
    40   19   37 1
    41   20   38 1
    42   24   39 1
    43   24   40 1
@<TRIPOS>PROPERTY_DATA
  Total_Score	| 8.6866
  Crash		| -0.7968
  Polar		| 3.2934
  FragIndex	| 1
  FragRMSD	| 0.467

