@<TRIPOS>MOLECULE
BindingDB_50309183
 49 51 0 0 0
SMALL
NO_CHARGES


@<TRIPOS>ATOM
1    C        -9.8824   49.3315    9.1999  C     
2    C       -11.0230   49.6570    9.9800  C     
3    N       -12.2726   49.6221    9.4557  N     
4    C       -12.5361   49.2845    8.1717  C     
5    C       -11.4619   48.9358    7.3158  C     
6    C       -10.1490   48.9734    7.8547  C     
7    N       -13.8322   49.2681    7.7916  N     
8    C       -11.6615   48.5349    5.9622  C     
9    C       -11.1310   47.3056    5.4983  C     
10   C       -11.2553   46.9128    4.1522  C     
11   C       -12.0083   47.7227    3.2717  C     
12   C       -12.5808   48.9252    3.7264  C     
13   C       -12.3871   49.3447    5.0558  C     
14   O       -12.2010   47.3633    1.9795  O     
15   C        -8.5492   49.3627    9.7470  C     
16   C        -8.2040   50.2462   10.7992  C     
17   C        -6.9099   50.2682   11.3639  C     
18   C        -5.8787   49.4589   10.8242  C     
19   C        -6.1946   48.5963    9.7463  C     
20   C        -7.5171   48.5260    9.2544  C     
21   O        -5.2433   47.7760    9.1902  O     
22   C        -4.4625   48.4128    8.1617  C     
23   O        -6.6533   51.1441   12.3903  O     
24   C        -6.9204   50.5988   13.6965  C     
25   O       -10.7488   45.7187    3.7056  O     
26   C        -9.3615   45.4654    4.0096  C     
27   C        -4.5000   49.5560   11.3848  C     
28   H       -10.9369   49.9179   10.9653  H     
29   H        -9.3644   48.7654    7.2362  H     
30   H       -14.0853   48.9973    6.8970  H     
31   H       -14.5217   49.5249    8.4203  H     
32   H       -10.6476   46.6857    6.1501  H     
33   H       -13.1262   49.5053    3.0837  H     
34   H       -12.7729   50.2447    5.3494  H     
35   H       -11.2997   47.3220    1.5957  H     
36   H        -8.8980   50.8952   11.1710  H     
37   H        -7.7161   47.8474    8.5196  H     
38   H        -5.0874   48.7560    7.3362  H     
39   H        -3.7572   47.6830    7.7687  H     
40   H        -3.8896   49.2571    8.5498  H     
41   H        -7.9735   50.3342   13.8123  H     
42   H        -6.6791   51.3614   14.4365  H     
43   H        -6.3064   49.7195   13.9058  H     
44   H        -8.7097   46.2454    3.6061  H     
45   H        -9.0733   44.5161    3.5531  H     
46   H        -9.1969   45.3788    5.0876  H     
47   H        -4.1422   50.5821   11.3043  H     
48   H        -3.7820   48.9169   10.8756  H     
49   H        -4.5006   49.2679   12.4334  H     
@<TRIPOS>BOND
     1    1    2 2
     2    1    6 1
     3    1   15 1
     4    2    3 1
     5    3    4 2
     6    4    5 1
     7    4    7 1
     8    5    6 2
     9    5    8 1
    10    8    9 2
    11    8   13 1
    12    9   10 1
    13   10   11 2
    14   10   25 1
    15   11   12 1
    16   11   14 1
    17   12   13 2
    18   15   16 2
    19   15   20 1
    20   16   17 1
    21   17   18 2
    22   17   23 1
    23   18   19 1
    24   18   27 1
    25   19   20 2
    26   19   21 1
    27   21   22 1
    28   23   24 1
    29   25   26 1
    30    2   28 1
    31    6   29 1
    32    7   30 1
    33    7   31 1
    34    9   32 1
    35   12   33 1
    36   13   34 1
    37   14   35 1
    38   16   36 1
    39   20   37 1
    40   22   38 1
    41   22   39 1
    42   22   40 1
    43   24   41 1
    44   24   42 1
    45   24   43 1
    46   26   44 1
    47   26   45 1
    48   26   46 1
    49   27   47 1
    50   27   48 1
    51   27   49 1
@<TRIPOS>PROPERTY_DATA
  Total_Score	| 8.6442
  Crash		| -1.0123
  Polar		| 2.6830
  FragIndex	| 1
  FragRMSD	| 0.135

