@<TRIPOS>MOLECULE
BindingDB_50309188
 50 52 0 0 0
SMALL
NO_CHARGES


@<TRIPOS>ATOM
1    C        -9.8538   49.3864    9.0055  C     
2    C       -10.9741   49.5867    9.8567  C     
3    N       -12.2458   49.5404    9.3836  N     
4    C       -12.5420   49.2885    8.0915  C     
5    C       -11.4967   49.0463    7.1726  C     
6    C       -10.1606   49.1335    7.6527  C     
7    N       -13.8497   49.2142    7.7666  N     
8    C       -11.7350   48.6364    5.8349  C     
9    C       -11.2592   47.3706    5.3931  C     
10   C       -11.5142   46.9067    4.0889  C     
11   C       -12.2771   47.6991    3.2060  C     
12   C       -12.7492   48.9583    3.6301  C     
13   C       -12.4732   49.4260    4.9261  C     
14   O       -12.5988   47.2684    1.9564  O     
15   C        -8.4839   49.4382    9.4870  C     
16   C        -8.1615   50.1388   10.6719  C     
17   C        -6.8518   50.1607   11.1977  C     
18   C        -5.7877   49.5840   10.4660  C     
19   C        -6.0541   48.9661    9.2220  C     
20   C        -7.4017   48.8424    8.7920  C     
21   O        -5.1208   48.6719    8.2408  O     
22   C        -3.9132   47.9721    8.6364  C     
23   O        -4.4851   49.7235   10.8738  O     
24   C        -3.9690   48.6472   11.6864  C     
25   O        -6.5606   50.8500   12.3479  O     
26   C        -6.9062   50.1599   13.5602  C     
27   O       -11.1643   45.6333    3.7048  O     
28   C        -9.7609   45.3334    3.7539  C     
29   H       -10.8693   49.7520   10.8559  H     
30   H        -9.4177   49.0049    6.9704  H     
31   H       -14.1266   48.9797    6.8670  H     
32   H       -14.5295   49.3853    8.4389  H     
33   H       -10.7524   46.7670    6.0503  H     
34   H       -13.3081   49.5290    2.9924  H     
35   H       -12.8265   50.3477    5.2120  H     
36   H       -11.8413   46.7115    1.6686  H     
37   H        -8.8579   50.6745   11.1758  H     
38   H        -7.5735   48.3200    7.9289  H     
39   H        -3.2653   48.6457    9.2044  H     
40   H        -3.3693   47.6606    7.7163  H     
41   H        -4.1647   47.0544    9.2082  H     
42   H        -4.3241   48.7018   12.7127  H     
43   H        -2.8902   48.7676   11.6939  H     
44   H        -4.2009   47.6690   11.2659  H     
45   H        -7.9851   50.0911   13.6778  H     
46   H        -6.5128   50.7352   14.3948  H     
47   H        -6.4778   49.1585   13.5994  H     
48   H        -9.1604   46.0648    3.2066  H     
49   H        -9.6183   44.3598    3.2847  H     
50   H        -9.4052   45.2660    4.7843  H     
@<TRIPOS>BOND
     1    1    2 2
     2    1    6 1
     3    1   15 1
     4    2    3 1
     5    3    4 2
     6    4    5 1
     7    4    7 1
     8    5    6 2
     9    5    8 1
    10    8    9 2
    11    8   13 1
    12    9   10 1
    13   10   11 2
    14   10   27 1
    15   11   12 1
    16   11   14 1
    17   12   13 2
    18   15   16 2
    19   15   20 1
    20   16   17 1
    21   17   18 2
    22   17   25 1
    23   18   19 1
    24   18   23 1
    25   19   20 2
    26   19   21 1
    27   21   22 1
    28   23   24 1
    29   25   26 1
    30   27   28 1
    31    2   29 1
    32    6   30 1
    33    7   31 1
    34    7   32 1
    35    9   33 1
    36   12   34 1
    37   13   35 1
    38   14   36 1
    39   16   37 1
    40   20   38 1
    41   22   39 1
    42   22   40 1
    43   22   41 1
    44   24   42 1
    45   24   43 1
    46   24   44 1
    47   26   45 1
    48   26   46 1
    49   26   47 1
    50   28   48 1
    51   28   49 1
    52   28   50 1
@<TRIPOS>PROPERTY_DATA
  Total_Score	| 8.7660
  Crash		| -1.1269
  Polar		| 2.5301
  FragIndex	| 1
  FragRMSD	| 0.350

