@<TRIPOS>MOLECULE
BindingDB_50309210
 41 43 0 0 0
SMALL
NO_CHARGES


@<TRIPOS>ATOM
1    C        -9.8375   49.4883    9.1720  C     
2    C       -10.9668   49.7201   10.0034  C     
3    N       -12.2174   49.7050    9.4983  N     
4    C       -12.4933   49.4346    8.1950  C     
5    C       -11.4242   49.1499    7.2927  C     
6    C       -10.1102   49.2405    7.7915  C     
7    N       -13.7978   49.3690    7.8763  N     
8    C       -11.6535   48.6651    5.9866  C     
9    C       -11.1092   47.4209    5.6046  C     
10   C       -11.3766   46.8696    4.3401  C     
11   C       -12.1931   47.5360    3.3913  C     
12   C       -12.7339   48.7905    3.7896  C     
13   C       -12.4754   49.3383    5.0632  C     
14   C       -12.4748   46.9800    2.1585  C     
15   N       -11.6772   46.1241    1.5504  N     
16   O       -13.5100   47.2648    1.5611  O     
17   C        -8.5027   49.4601    9.7033  C     
18   C        -8.1355   50.2583   10.8262  C     
19   C        -6.8333   50.2388   11.3722  C     
20   C        -5.8439   49.4346   10.7687  C     
21   C        -6.1719   48.6299    9.6544  C     
22   C        -7.4899   48.6175    9.1442  C     
23   O        -6.5807   51.0280   12.4665  O     
24   C        -6.9419   50.4169   13.7231  C     
25   H       -10.8644   49.8760   11.0169  H     
26   H        -9.3161   49.1205    7.1405  H     
27   H       -14.0982   49.1577    6.9775  H     
28   H       -14.4559   49.5571    8.5792  H     
29   H       -10.5513   46.8747    6.2724  H     
30   H       -11.0113   45.9333    4.1298  H     
31   H       -13.3196   49.3169    3.1251  H     
32   H       -12.9134   50.2331    5.3100  H     
33   H       -11.9415   45.7460    0.7053  H     
34   H       -10.8169   45.9152    1.9433  H     
35   H        -8.8055   50.8977   11.2482  H     
36   H        -4.8834   49.4509   11.1327  H     
37   H        -5.4561   48.0460    9.2042  H     
38   H        -7.7050   47.9698    8.3798  H     
39   H        -7.9813   50.0410   13.7141  H     
40   H        -6.8352   51.1759   14.4922  H     
41   H        -6.2548   49.5874   13.9399  H     
@<TRIPOS>BOND
     1    1    2 2
     2    1    6 1
     3    1   17 1
     4    2    3 1
     5    3    4 2
     6    4    5 1
     7    4    7 1
     8    5    6 2
     9    5    8 1
    10    8    9 2
    11    8   13 1
    12    9   10 1
    13   10   11 2
    14   11   12 1
    15   11   14 1
    16   12   13 2
    17   14   15 am
    18   14   16 2
    19   17   18 2
    20   17   22 1
    21   18   19 1
    22   19   20 2
    23   19   23 1
    24   20   21 1
    25   21   22 2
    26   23   24 1
    27    2   25 1
    28    6   26 1
    29    7   27 1
    30    7   28 1
    31    9   29 1
    32   10   30 1
    33   12   31 1
    34   13   32 1
    35   15   33 1
    36   15   34 1
    37   18   35 1
    38   20   36 1
    39   21   37 1
    40   22   38 1
    41   24   39 1
    42   24   40 1
    43   24   41 1
@<TRIPOS>PROPERTY_DATA
  Total_Score	| 9.6281
  Crash		| -0.7102
  Polar		| 3.4035
  FragIndex	| 1
  FragRMSD	| 0.139

