@<TRIPOS>MOLECULE
BindingDB_50309194
 45 47 0 0 0
SMALL
NO_CHARGES


@<TRIPOS>ATOM
1    C        -9.8088   49.4797    9.1952  C     
2    C       -10.9307   49.8186    9.9891  C     
3    N       -12.1839   49.7683    9.4844  N     
4    C       -12.4603   49.4064    8.2085  C     
5    C       -11.4006   49.0502    7.3387  C     
6    C       -10.0836   49.1133    7.8543  C     
7    N       -13.7623   49.3641    7.8692  N     
8    C       -11.6183   48.5871    6.0115  C     
9    C       -11.0067   47.3948    5.5634  C     
10   C       -11.2633   46.8914    4.2783  C     
11   C       -12.1562   47.5531    3.4002  C     
12   C       -12.7368   48.7661    3.8427  C     
13   C       -12.4612   49.2836    5.1182  C     
14   C       -12.4907   47.0149    2.1595  C     
15   N       -11.7603   46.1127    1.5400  N     
16   O       -13.5131   47.3551    1.5827  O     
17   C        -8.4768   49.4811    9.7301  C     
18   C        -8.1174   50.3135   10.8178  C     
19   C        -6.8365   50.2642   11.3985  C     
20   C        -5.8261   49.4541   10.8349  C     
21   C        -6.1688   48.6189    9.7430  C     
22   C        -7.4753   48.6168    9.2226  C     
23   O        -6.6031   51.0232   12.5182  O     
24   C        -6.9800   50.3402   13.7422  C     
25   O        -4.5820   49.5369   11.4278  O     
26   C        -3.5480   48.5840   11.1356  C     
27   H       -10.8302   50.0738   10.9708  H     
28   H        -9.3074   48.8864    7.2290  H     
29   H       -14.0351   49.0950    6.9771  H     
30   H       -14.4400   49.6132    8.5175  H     
31   H       -10.3911   46.8606    6.1847  H     
32   H       -10.8207   46.0092    4.0125  H     
33   H       -13.3824   49.2877    3.2396  H     
34   H       -12.8917   50.1681    5.3965  H     
35   H       -12.0352   45.7794    0.6716  H     
36   H       -10.9318   45.7973    1.9307  H     
37   H        -8.7959   50.9603   11.2166  H     
38   H        -5.4809   47.9877    9.3316  H     
39   H        -7.6796   47.9616    8.4639  H     
40   H        -8.0387   50.0374   13.7362  H     
41   H        -6.8228   51.0247   14.5783  H     
42   H        -6.3547   49.4479   13.9056  H     
43   H        -3.8441   47.5858   11.4636  H     
44   H        -2.6469   48.8773   11.6809  H     
45   H        -3.3229   48.5666   10.0664  H     
@<TRIPOS>BOND
     1    1    2 2
     2    1    6 1
     3    1   17 1
     4    2    3 1
     5    3    4 2
     6    4    5 1
     7    4    7 1
     8    5    6 2
     9    5    8 1
    10    8    9 2
    11    8   13 1
    12    9   10 1
    13   10   11 2
    14   11   12 1
    15   11   14 1
    16   12   13 2
    17   14   15 am
    18   14   16 2
    19   17   18 2
    20   17   22 1
    21   18   19 1
    22   19   20 2
    23   19   23 1
    24   20   21 1
    25   20   25 1
    26   21   22 2
    27   23   24 1
    28   25   26 1
    29    2   27 1
    30    6   28 1
    31    7   29 1
    32    7   30 1
    33    9   31 1
    34   10   32 1
    35   12   33 1
    36   13   34 1
    37   15   35 1
    38   15   36 1
    39   18   37 1
    40   21   38 1
    41   22   39 1
    42   24   40 1
    43   24   41 1
    44   24   42 1
    45   26   43 1
    46   26   44 1
    47   26   45 1
@<TRIPOS>PROPERTY_DATA
  Total_Score	| 9.9317
  Crash		| -0.7783
  Polar		| 3.3384
  FragIndex	| 1
  FragRMSD	| 0.135

