@<TRIPOS>MOLECULE
BindingDB_50309186
 48 50 0 0 0
SMALL
NO_CHARGES


@<TRIPOS>ATOM
1    C        -9.2721   49.6910    9.6236  C     
2    C       -10.3332   50.0907   10.4636  C     
3    N       -11.6187   49.9482   10.0572  N     
4    C       -11.9713   49.4743    8.8394  C     
5    C       -10.9678   49.0888    7.9122  C     
6    C        -9.6186   49.1941    8.3430  C     
7    N       -13.2925   49.3671    8.5988  N     
8    C       -11.2740   48.5965    6.6053  C     
9    C       -10.6947   47.4001    6.1276  C     
10   C       -11.0002   46.8991    4.8474  C     
11   C       -11.9062   47.5704    3.9870  C     
12   C       -12.4716   48.7804    4.4663  C     
13   C       -12.1604   49.2838    5.7472  C     
14   C       -12.2300   47.0681    2.7170  C     
15   N       -11.7150   45.9687    2.2053  N     
16   O       -13.0361   47.6311    1.9889  O     
17   C        -7.9154   49.7663   10.0605  C     
18   C        -7.0353   48.6750    9.8697  C     
19   C        -5.6922   48.7347   10.2895  C     
20   C        -5.2292   49.8744   10.9804  C     
21   C        -6.0865   50.9704   11.1752  C     
22   C        -7.4167   50.9183   10.7180  C     
23   O        -4.8729   47.6797   10.0005  O     
24   C        -3.8788   47.9160    8.9794  C     
25   C        -4.3475   48.7114    7.7343  C     
26   O        -3.1933   49.0756    6.9457  O     
27   C        -3.1437   48.5861    5.5991  C     
28   H       -10.1614   50.4534   11.4011  H     
29   H        -8.8694   48.9240    7.6990  H     
30   H       -13.6100   48.9961    7.7620  H     
31   H       -13.9412   49.6460    9.2667  H     
32   H       -10.0520   46.8688    6.7169  H     
33   H       -10.5501   46.0294    4.5560  H     
34   H       -13.1197   49.3180    3.8838  H     
35   H       -12.5833   50.1693    6.0392  H     
36   H       -11.9741   45.6884    1.3137  H     
37   H       -11.0764   45.4392    2.7051  H     
38   H        -7.3651   47.8127    9.4256  H     
39   H        -4.2638   49.9171   11.3173  H     
40   H        -5.7434   51.8047   11.6561  H     
41   H        -8.0145   51.7317   10.8707  H     
42   H        -3.0313   48.4372    9.4364  H     
43   H        -3.5171   46.9424    8.6443  H     
44   H        -5.0889   48.1237    7.1790  H     
45   H        -4.8248   49.6385    8.0637  H     
46   H        -3.0021   47.5056    5.5975  H     
47   H        -2.2882   49.0469    5.1002  H     
48   H        -4.0451   48.8456    5.0444  H     
@<TRIPOS>BOND
     1    1    2 2
     2    1    6 1
     3    1   17 1
     4    2    3 1
     5    3    4 2
     6    4    5 1
     7    4    7 1
     8    5    6 2
     9    5    8 1
    10    8    9 2
    11    8   13 1
    12    9   10 1
    13   10   11 2
    14   11   12 1
    15   11   14 1
    16   12   13 2
    17   14   15 am
    18   14   16 2
    19   17   18 2
    20   17   22 1
    21   18   19 1
    22   19   20 2
    23   19   23 1
    24   20   21 1
    25   21   22 2
    26   23   24 1
    27   24   25 1
    28   25   26 1
    29   26   27 1
    30    2   28 1
    31    6   29 1
    32    7   30 1
    33    7   31 1
    34    9   32 1
    35   10   33 1
    36   12   34 1
    37   13   35 1
    38   15   36 1
    39   15   37 1
    40   18   38 1
    41   20   39 1
    42   21   40 1
    43   22   41 1
    44   24   42 1
    45   24   43 1
    46   25   44 1
    47   25   45 1
    48   27   46 1
    49   27   47 1
    50   27   48 1
@<TRIPOS>PROPERTY_DATA
  Total_Score	| 7.7355
  Crash		| -1.6906
  Polar		| 3.3841
  FragIndex	| 1
  FragRMSD	| 1.397

