@<TRIPOS>MOLECULE
BindingDB_50309189
 37 39 0 0 0
SMALL
NO_CHARGES


@<TRIPOS>ATOM
1    C        -9.8234   49.5714    9.2326  C     
2    C       -10.9401   49.8487   10.0465  C     
3    N       -12.2054   49.7126    9.5649  N     
4    C       -12.4799   49.3151    8.2991  C     
5    C       -11.4221   49.0319    7.3971  C     
6    C       -10.0946   49.1945    7.8895  C     
7    N       -13.7861   49.1736    7.9961  N     
8    C       -11.6277   48.5519    6.0717  C     
9    C       -11.0042   47.3565    5.6306  C     
10   C       -11.2270   46.8522    4.3293  C     
11   C       -12.1039   47.5130    3.4314  C     
12   C       -12.6975   48.7254    3.8603  C     
13   C       -12.4592   49.2412    5.1586  C     
14   C       -12.3903   46.9722    2.1810  C     
15   N       -11.6068   46.1118    1.5662  N     
16   O       -13.4267   47.2676    1.5968  O     
17   C        -8.4860   49.6075    9.7485  C     
18   C        -7.4931   48.7192    9.2481  C     
19   C        -6.1781   48.7253    9.7760  C     
20   C        -5.8399   49.6087   10.8132  C     
21   C        -6.8054   50.4987   11.3211  C     
22   C        -8.1202   50.4964   10.7905  C     
23   H       -10.8373   50.1219   11.0244  H     
24   H        -9.3074   49.0451    7.2518  H     
25   H       -14.0582   48.8625    7.1269  H     
26   H       -14.4627   49.4175    8.6738  H     
27   H       -10.4058   46.8107    6.2590  H     
28   H       -10.7793   45.9696    4.0739  H     
29   H       -13.2970   49.2606    3.2343  H     
30   H       -12.8929   50.1269    5.4195  H     
31   H       -11.8621   45.7671    0.6917  H     
32   H       -10.7563   45.8449    1.9534  H     
33   H        -7.7093   48.0369    8.5221  H     
34   H        -5.4829   48.0736    9.4085  H     
35   H        -4.8963   49.6074   11.1956  H     
36   H        -6.5615   51.1430   12.0708  H     
37   H        -8.7871   51.1608   11.1774  H     
@<TRIPOS>BOND
     1    1    2 2
     2    1    6 1
     3    1   17 1
     4    2    3 1
     5    3    4 2
     6    4    5 1
     7    4    7 1
     8    5    6 2
     9    5    8 1
    10    8    9 2
    11    8   13 1
    12    9   10 1
    13   10   11 2
    14   11   12 1
    15   11   14 1
    16   12   13 2
    17   14   15 am
    18   14   16 2
    19   17   18 2
    20   17   22 1
    21   18   19 1
    22   19   20 2
    23   20   21 1
    24   21   22 2
    25    2   23 1
    26    6   24 1
    27    7   25 1
    28    7   26 1
    29    9   27 1
    30   10   28 1
    31   12   29 1
    32   13   30 1
    33   15   31 1
    34   15   32 1
    35   18   33 1
    36   19   34 1
    37   20   35 1
    38   21   36 1
    39   22   37 1
@<TRIPOS>PROPERTY_DATA
  Total_Score	| 8.8360
  Crash		| -0.4936
  Polar		| 3.3975
  FragIndex	| 1
  FragRMSD	| 0.120

