@<TRIPOS>MOLECULE
BindingDB_50309196
 36 38 0 0 0
SMALL
NO_CHARGES


@<TRIPOS>ATOM
1    C        -9.8535   49.5493    9.2722  C     
2    C       -10.9884   49.8354   10.0652  C     
3    N       -12.2406   49.7231    9.5567  N     
4    C       -12.4987   49.3381    8.2803  C     
5    C       -11.4176   49.0357    7.4113  C     
6    C       -10.1001   49.1649    7.9285  C     
7    N       -13.7973   49.2376    7.9347  N     
8    C       -11.6208   48.5733    6.0790  C     
9    C       -12.4558   49.2687    5.1737  C     
10   C       -12.7250   48.7412    3.8976  C     
11   C       -12.1453   47.5214    3.4638  C     
12   C       -11.2658   46.8641    4.3597  C     
13   C       -11.0130   47.3737    5.6430  C     
14   C       -12.4386   47.0018    2.1992  C     
15   N       -11.7128   46.0691    1.6172  N     
16   O       -13.4145   47.3814    1.5616  O     
17   C        -8.5271   49.6430    9.8072  C     
18   C        -7.4880   48.7628    9.3897  C     
19   C        -6.1855   48.8748    9.9165  C     
20   C        -5.9099   49.8775   10.8646  C     
21   N        -6.9118   50.7057   11.2643  N     
22   C        -8.1807   50.6168   10.7791  C     
23   H       -10.8897   50.1209   11.0406  H     
24   H        -9.3035   48.9826    7.3045  H     
25   H       -14.0509   48.9484    7.0413  H     
26   H       -14.4880   49.4659    8.5804  H     
27   H       -12.8976   50.1492    5.4445  H     
28   H       -13.3558   49.2638    3.2810  H     
29   H       -10.8260   45.9737    4.1037  H     
30   H       -10.4109   46.8403    6.2787  H     
31   H       -11.9463   45.7486    0.7311  H     
32   H       -10.9125   45.7288    2.0448  H     
33   H        -7.6801   48.0111    8.7124  H     
34   H        -5.4465   48.2373    9.6122  H     
35   H        -4.9701   49.9841   11.2532  H     
36   H        -8.8761   51.2814   11.1240  H     
@<TRIPOS>BOND
     1    1    2 2
     2    1    6 1
     3    1   17 1
     4    2    3 1
     5    3    4 2
     6    4    5 1
     7    4    7 1
     8    5    6 2
     9    5    8 1
    10    8    9 2
    11    8   13 1
    12    9   10 1
    13   10   11 2
    14   11   12 1
    15   11   14 1
    16   12   13 2
    17   14   15 am
    18   14   16 2
    19   17   18 2
    20   17   22 1
    21   18   19 1
    22   19   20 2
    23   20   21 1
    24   21   22 2
    25    2   23 1
    26    6   24 1
    27    7   25 1
    28    7   26 1
    29    9   27 1
    30   10   28 1
    31   12   29 1
    32   13   30 1
    33   15   31 1
    34   15   32 1
    35   18   33 1
    36   19   34 1
    37   20   35 1
    38   22   36 1
@<TRIPOS>PROPERTY_DATA
  Total_Score	| 8.5232
  Crash		| -0.7156
  Polar		| 3.3440
  FragIndex	| 1
  FragRMSD	| 0.897

