@<TRIPOS>MOLECULE
BindingDB_50309208
 43 46 0 0 0
SMALL
NO_CHARGES


@<TRIPOS>ATOM
1    C        -9.7792   49.5644    9.2560  C     
2    C       -10.9340   49.8490   10.0394  C     
3    N       -12.1797   49.7829    9.5268  N     
4    C       -12.4401   49.4561    8.2449  C     
5    C       -11.3611   49.1453    7.3702  C     
6    C       -10.0537   49.2579    7.8890  C     
7    N       -13.7352   49.3746    7.9003  N     
8    C       -11.5663   48.6625    6.0520  C     
9    C       -12.3770   49.3534    5.1214  C     
10   C       -12.6566   48.7946    3.8650  C     
11   C       -12.0904   47.5504    3.4741  C     
12   C       -11.2262   46.9012    4.3874  C     
13   C       -10.9715   47.4414    5.6542  C     
14   C       -12.3815   46.9912    2.2409  C     
15   N       -11.5980   46.1226    1.6321  N     
16   O       -13.4049   47.2898    1.6389  O     
17   C        -8.4383   49.5559    9.8122  C     
18   C        -8.0510   50.4072   10.8956  C     
19   C        -6.7836   50.3432   11.4938  C     
20   C        -5.7953   49.4651   10.9717  C     
21   C        -6.1383   48.6262    9.8969  C     
22   C        -7.4238   48.6589    9.3459  C     
23   O        -6.4994   51.1853   12.5526  O     
24   C        -5.3961   50.7638   13.3855  C     
25   O        -4.5467   49.3474   11.5540  O     
26   C        -4.1889   50.3998   12.4799  C     
27   H       -10.8799   50.0742   11.0295  H     
28   H        -9.2935   49.0990    7.2262  H     
29   H       -13.9926   49.0958    7.0027  H     
30   H       -14.4175   49.5869    8.5598  H     
31   H       -12.7897   50.2625    5.3622  H     
32   H       -13.2673   49.3062    3.2289  H     
33   H       -10.8044   45.9970    4.1577  H     
34   H       -10.3744   46.9181    6.3050  H     
35   H       -11.8419   45.7849    0.7593  H     
36   H       -10.7553   45.8521    2.0370  H     
37   H        -8.6915   51.1032   11.2828  H     
38   H        -5.4438   47.9715    9.5249  H     
39   H        -7.5973   47.9756    8.6086  H     
40   H        -5.1277   51.5770   14.0647  H     
41   H        -5.6919   49.8855   13.9729  H     
42   H        -3.8721   51.2889   11.9187  H     
43   H        -3.3571   50.0536   13.0971  H     
@<TRIPOS>BOND
     1    1    2 2
     2    1    6 1
     3    1   17 1
     4    2    3 1
     5    3    4 2
     6    4    5 1
     7    4    7 1
     8    5    6 2
     9    5    8 1
    10    8    9 2
    11    8   13 1
    12    9   10 1
    13   10   11 2
    14   11   12 1
    15   11   14 1
    16   12   13 2
    17   14   15 am
    18   14   16 2
    19   17   18 2
    20   17   22 1
    21   18   19 1
    22   19   20 2
    23   19   23 1
    24   20   21 1
    25   20   25 1
    26   21   22 2
    27   23   24 1
    28   24   26 1
    29   25   26 1
    30    2   27 1
    31    6   28 1
    32    7   29 1
    33    7   30 1
    34    9   31 1
    35   10   32 1
    36   12   33 1
    37   13   34 1
    38   15   35 1
    39   15   36 1
    40   18   37 1
    41   21   38 1
    42   22   39 1
    43   24   40 1
    44   24   41 1
    45   26   42 1
    46   26   43 1
@<TRIPOS>PROPERTY_DATA
  Total_Score	| 9.2634
  Crash		| -0.5573
  Polar		| 3.3755
  FragIndex	| 1
  FragRMSD	| 0.344

