@<TRIPOS>MOLECULE
BindingDB_50309197
 43 46 0 0 0
SMALL
NO_CHARGES


@<TRIPOS>ATOM
1    C        -9.8763   49.5187    9.2421  C     
2    C       -11.0356   49.7215   10.0322  C     
3    N       -12.2771   49.6520    9.5004  N     
4    C       -12.5193   49.3686    8.2017  C     
5    C       -11.4317   49.1058    7.3349  C     
6    C       -10.1258   49.2159    7.8727  C     
7    N       -13.8104   49.3229    7.8384  N     
8    C       -11.6197   48.6437    6.0024  C     
9    C       -12.4427   49.3376    5.0923  C     
10   C       -12.7213   48.7990    3.8223  C     
11   C       -12.1623   47.5600    3.4095  C     
12   C       -11.2998   46.8960    4.3142  C     
13   C       -11.0304   47.4282    5.5892  C     
14   C       -12.4786   47.0132    2.1640  C     
15   N       -11.7746   46.0664    1.5809  N     
16   O       -13.4864   47.3541    1.5653  O     
17   C        -8.5349   49.5655    9.7954  C     
18   C        -5.8678   49.5103   10.8472  C     
19   C        -6.1982   48.7368    9.7275  C     
20   C        -7.5096   48.7559    9.2200  C     
21   C        -6.8480   50.3178   11.4532  C     
22   C        -8.1665   50.3712   10.9183  C     
23   O        -9.0967   51.1848   11.5385  O     
24   C        -8.7071   52.0297   12.6399  C     
25   C        -7.5580   51.3830   13.4493  C     
26   O        -6.4762   51.0609   12.5481  O     
27   H       -10.9925   49.8963   11.0301  H     
28   H        -9.3430   49.0702    7.2296  H     
29   H       -14.0566   49.0970    6.9305  H     
30   H       -14.5033   49.5282    8.4875  H     
31   H       -12.8598   50.2350    5.3580  H     
32   H       -13.3386   49.3278    3.2030  H     
33   H       -10.8790   45.9988    4.0720  H     
34   H       -10.4359   46.8964    6.2300  H     
35   H       -12.0588   45.7054    0.7256  H     
36   H       -10.9597   45.7406    1.9869  H     
37   H        -4.9159   49.4835   11.2188  H     
38   H        -5.4870   48.1424    9.2818  H     
39   H        -7.6963   48.1256    8.4357  H     
40   H        -8.3945   53.0073   12.2558  H     
41   H        -9.5777   52.1712   13.2870  H     
42   H        -7.1995   52.0751   14.2141  H     
43   H        -7.9260   50.4749   13.9436  H     
@<TRIPOS>BOND
     1    1    2 2
     2    1    6 1
     3    1   17 1
     4    2    3 1
     5    3    4 2
     6    4    5 1
     7    4    7 1
     8    5    6 2
     9    5    8 1
    10    8    9 2
    11    8   13 1
    12    9   10 1
    13   10   11 2
    14   11   12 1
    15   11   14 1
    16   12   13 2
    17   14   15 am
    18   14   16 2
    19   17   20 1
    20   17   22 2
    21   18   19 1
    22   18   21 2
    23   19   20 2
    24   21   22 1
    25   21   26 1
    26   22   23 1
    27   23   24 1
    28   24   25 1
    29   25   26 1
    30    2   27 1
    31    6   28 1
    32    7   29 1
    33    7   30 1
    34    9   31 1
    35   10   32 1
    36   12   33 1
    37   13   34 1
    38   15   35 1
    39   15   36 1
    40   18   37 1
    41   19   38 1
    42   20   39 1
    43   24   40 1
    44   24   41 1
    45   25   42 1
    46   25   43 1
@<TRIPOS>PROPERTY_DATA
  Total_Score	| 9.9730
  Crash		| -0.8513
  Polar		| 3.4097
  FragIndex	| 1
  FragRMSD	| 0.226

