@<TRIPOS>MOLECULE
BindingDB_50309202
 41 43 0 0 0
SMALL
NO_CHARGES


@<TRIPOS>ATOM
1    C        -9.7337   49.6164    9.2576  C     
2    C       -10.8641   49.8772   10.0807  C     
3    N       -12.1269   49.7789    9.6151  N     
4    C       -12.4285   49.4393    8.3408  C     
5    C       -11.3766   49.1619    7.4289  C     
6    C       -10.0539   49.3063    7.9031  C     
7    N       -13.7337   49.3203    8.0498  N     
8    C       -11.6083   48.6683    6.1142  C     
9    C       -10.9914   47.4655    5.7012  C     
10   C       -11.2281   46.9299    4.4265  C     
11   C       -12.1060   47.5644    3.5114  C     
12   C       -12.6945   48.7885    3.9258  C     
13   C       -12.4529   49.3289    5.2013  C     
14   C       -12.3931   47.0077    2.2649  C     
15   N       -11.6736   46.0548    1.7046  N     
16   O       -13.3580   47.3794    1.6053  O     
17   C        -8.3735   49.6240    9.7647  C     
18   C        -7.3958   48.6864    9.3132  C     
19   C        -6.0773   48.6928    9.7841  C     
20   C        -5.6662   49.6208   10.7643  C     
21   C        -6.6104   50.5464   11.2467  C     
22   C        -7.9228   50.5609   10.7471  C     
23   O        -4.3516   49.7451   11.1576  O     
24   C        -3.8784   48.7472   12.0782  C     
25   H       -10.7705   50.1081   11.0687  H     
26   H        -9.3026   49.1690    7.2253  H     
27   H       -14.0160   49.0435    7.1632  H     
28   H       -14.4050   49.5024    8.7313  H     
29   H       -10.3870   46.9492    6.3467  H     
30   H       -10.7837   46.0399    4.1934  H     
31   H       -13.3138   49.3006    3.2980  H     
32   H       -12.9095   50.2064    5.4636  H     
33   H       -11.9226   45.7035    0.8359  H     
34   H       -10.8811   45.7215    2.1528  H     
35   H        -7.6219   47.9620    8.6329  H     
36   H        -5.4048   48.0223    9.3950  H     
37   H        -6.3292   51.2427   11.9478  H     
38   H        -8.5331   51.2869   11.1181  H     
39   H        -4.4768   48.7399   12.9916  H     
40   H        -2.8513   48.9974   12.3465  H     
41   H        -3.8789   47.7518   11.6286  H     
@<TRIPOS>BOND
     1    1    2 2
     2    1    6 1
     3    1   17 1
     4    2    3 1
     5    3    4 2
     6    4    5 1
     7    4    7 1
     8    5    6 2
     9    5    8 1
    10    8    9 2
    11    8   13 1
    12    9   10 1
    13   10   11 2
    14   11   12 1
    15   11   14 1
    16   12   13 2
    17   14   15 am
    18   14   16 2
    19   17   18 2
    20   17   22 1
    21   18   19 1
    22   19   20 2
    23   20   21 1
    24   20   23 1
    25   21   22 2
    26   23   24 1
    27    2   25 1
    28    6   26 1
    29    7   27 1
    30    7   28 1
    31    9   29 1
    32   10   30 1
    33   12   31 1
    34   13   32 1
    35   15   33 1
    36   15   34 1
    37   18   35 1
    38   19   36 1
    39   21   37 1
    40   22   38 1
    41   24   39 1
    42   24   40 1
    43   24   41 1
@<TRIPOS>PROPERTY_DATA
  Total_Score	| 9.0399
  Crash		| -0.6745
  Polar		| 3.3407
  FragIndex	| 1
  FragRMSD	| 0.223

