@<TRIPOS>MOLECULE
BindingDB_50309193
 46 48 0 0 0
SMALL
NO_CHARGES


@<TRIPOS>ATOM
1    C        -9.9261   49.4989    9.1171  C     
2    C       -11.0624   49.7151    9.9447  C     
3    N       -12.3146   49.6300    9.4411  N     
4    C       -12.5908   49.3222    8.1533  C     
5    C       -11.5185   49.0793    7.2574  C     
6    C       -10.2012   49.1856    7.7584  C     
7    N       -13.8847   49.2272    7.8172  N     
8    C       -11.7193   48.6479    5.9186  C     
9    C       -11.2050   47.3979    5.4988  C     
10   C       -11.4346   46.9294    4.1931  C     
11   C       -12.1706   47.7037    3.2899  C     
12   C       -12.6666   48.9581    3.6859  C     
13   C       -12.4287   49.4302    4.9903  C     
14   O       -12.3998   47.2428    2.0352  O     
15   C        -8.5682   49.5489    9.6291  C     
16   C        -8.2298   50.3442   10.7652  C     
17   C        -6.9258   50.3521   11.2894  C     
18   C        -5.8867   49.6660   10.6321  C     
19   C        -6.1790   48.8956    9.4804  C     
20   C        -7.5216   48.7892    9.0452  C     
21   O        -5.1757   48.2324    8.8097  O     
22   C        -5.1724   48.4648    7.3726  C     
23   O        -4.6427   49.6487   11.2313  O     
24   C        -3.6120   50.4001   10.5203  C     
25   O        -6.6783   51.0335   12.4488  O     
26   C        -6.9471   50.2322   13.6136  C     
27   H       -10.9575   49.9367   10.9465  H     
28   H        -9.4142   49.0474    7.1069  H     
29   H       -14.1372   48.9844    6.9185  H     
30   H       -14.5612   49.3931    8.4895  H     
31   H       -10.6929   46.7936    6.1490  H     
32   H       -11.0752   46.0134    3.9047  H     
33   H       -13.1965   49.5302    3.0311  H     
34   H       -12.7967   50.3513    5.2660  H     
35   H       -13.3644   47.0140    2.0135  H     
36   H        -8.9366   50.9137   11.2453  H     
37   H        -7.7376   48.1623    8.2605  H     
38   H        -5.9786   47.9429    6.8675  H     
39   H        -4.2287   48.0956    6.9912  H     
40   H        -5.2220   49.5402    7.1477  H     
41   H        -3.3481   49.8981    9.5739  H     
42   H        -2.7211   50.4513   11.1941  H     
43   H        -3.9462   51.4548   10.3238  H     
44   H        -7.9931   49.9181   13.6597  H     
45   H        -6.7340   50.8273   14.5023  H     
46   H        -6.3068   49.3489   13.6384  H     
@<TRIPOS>BOND
     1    1    2 2
     2    1    6 1
     3    1   15 1
     4    2    3 1
     5    3    4 2
     6    4    5 1
     7    4    7 1
     8    5    6 2
     9    5    8 1
    10    8    9 2
    11    8   13 1
    12    9   10 1
    13   10   11 2
    14   11   12 1
    15   11   14 1
    16   12   13 2
    17   15   16 2
    18   15   20 1
    19   16   17 1
    20   17   18 2
    21   17   25 1
    22   18   19 1
    23   18   23 1
    24   19   20 2
    25   19   21 1
    26   21   22 1
    27   23   24 1
    28   25   26 1
    29    2   27 1
    30    6   28 1
    31    7   29 1
    32    7   30 1
    33    9   31 1
    34   10   32 1
    35   12   33 1
    36   13   34 1
    37   14   35 1
    38   16   36 1
    39   20   37 1
    40   22   38 1
    41   22   39 1
    42   22   40 1
    43   24   41 1
    44   24   42 1
    45   24   43 1
    46   26   44 1
    47   26   45 1
    48   26   46 1
@<TRIPOS>PROPERTY_DATA
  Total_Score	| 8.3487
  Crash		| -0.8167
  Polar		| 2.2780
  FragIndex	| 1
  FragRMSD	| 0.227

