@<TRIPOS>MOLECULE
BindingDB_50309206
 42 44 0 0 0
SMALL
NO_CHARGES


@<TRIPOS>ATOM
1    C        -9.8280   49.4926    9.2377  C     
2    C       -10.9510   49.7811   10.0517  C     
3    N       -12.2090   49.6991    9.5529  N     
4    C       -12.4886   49.3473    8.2758  C     
5    C       -11.4225   49.0463    7.3889  C     
6    C       -10.0998   49.1456    7.8895  C     
7    N       -13.7860   49.2652    7.9536  N     
8    C       -11.6408   48.5783    6.0648  C     
9    C       -12.4819   49.2673    5.1658  C     
10   C       -12.7510   48.7430    3.8874  C     
11   C       -12.1726   47.5212    3.4539  C     
12   C       -11.2915   46.8611    4.3466  C     
13   C       -11.0355   47.3754    5.6309  C     
14   C       -12.4792   46.9864    2.2063  C     
15   N       -11.7624   46.0473    1.6198  N     
16   O       -13.4523   47.3684    1.5685  O     
17   C        -8.4910   49.5099    9.7677  C     
18   C        -8.1262   50.3780   10.8309  C     
19   C        -6.8382   50.3419   11.4012  C     
20   C        -5.8532   49.4868   10.8613  C     
21   C        -6.1893   48.6270    9.8016  C     
22   C        -7.4921   48.6252    9.2724  C     
23   O        -6.5476   51.1218   12.4880  O     
24   C        -6.8625   50.4605   13.7286  C     
25   O        -4.5926   49.4424   11.3718  O     
26   H       -10.8460   50.0288   11.0352  H     
27   H        -9.3134   48.9707    7.2537  H     
28   H       -14.0604   48.9947    7.0653  H     
29   H       -14.4666   49.4779    8.6205  H     
30   H       -12.9145   50.1528    5.4413  H     
31   H       -13.3761   49.2668    3.2779  H     
32   H       -10.8496   45.9723    4.0914  H     
33   H       -10.4271   46.8425    6.2606  H     
34   H       -12.0169   45.7184    0.7417  H     
35   H       -10.9567   45.7108    2.0421  H     
36   H        -8.8061   51.0418   11.2077  H     
37   H        -5.4870   47.9883    9.4235  H     
38   H        -7.7133   47.9575    8.5294  H     
39   H        -7.9346   50.2726   13.8170  H     
40   H        -6.5635   51.1154   14.5467  H     
41   H        -6.3217   49.5158   13.8360  H     
42   H        -4.2834   50.3763   11.4082  H     
@<TRIPOS>BOND
     1    1    2 2
     2    1    6 1
     3    1   17 1
     4    2    3 1
     5    3    4 2
     6    4    5 1
     7    4    7 1
     8    5    6 2
     9    5    8 1
    10    8    9 2
    11    8   13 1
    12    9   10 1
    13   10   11 2
    14   11   12 1
    15   11   14 1
    16   12   13 2
    17   14   15 am
    18   14   16 2
    19   17   18 2
    20   17   22 1
    21   18   19 1
    22   19   20 2
    23   19   23 1
    24   20   21 1
    25   20   25 1
    26   21   22 2
    27   23   24 1
    28    2   26 1
    29    6   27 1
    30    7   28 1
    31    7   29 1
    32    9   30 1
    33   10   31 1
    34   12   32 1
    35   13   33 1
    36   15   34 1
    37   15   35 1
    38   18   36 1
    39   21   37 1
    40   22   38 1
    41   24   39 1
    42   24   40 1
    43   24   41 1
    44   25   42 1
@<TRIPOS>PROPERTY_DATA
  Total_Score	| 9.0531
  Crash		| -0.8091
  Polar		| 3.3751
  FragIndex	| 1
  FragRMSD	| 0.106

