@<TRIPOS>MOLECULE
BindingDB_12023
 34 35 0 0 0
SMALL
NO_CHARGES


@<TRIPOS>ATOM
1    C        -2.0080    7.3817   15.1996  C     
2    C        -1.3365    8.3129   16.0161  C     
3    C        -0.1346    8.9073   15.5802  C     
4    C         0.4047    8.5480   14.3297  C     
5    C        -0.2554    7.6046   13.5182  C     
6    C        -1.4762    7.0025   13.9366  C     
7    C        -2.2337    6.0821   13.0333  C     
8    N        -2.8317    4.9917   13.7432  N     
9    C        -4.1268    4.6896   13.8144  C     
10   O        -4.9215    5.3658   13.1634  O     
11   C        -4.6256    3.6780   14.6511  C     
12   C        -6.0207    3.5614   14.9028  C     
13   C        -3.7741    2.7391   15.3004  C     
14   C        -4.2879    1.7515   16.1645  C     
15   C        -5.6703    1.6720   16.4100  C     
16   C        -6.5336    2.5817   15.7760  C     
17   S        -6.3016    0.4282   17.4499  S     
18   O        -6.0491   -0.8992   16.6175  O     
19   O        -5.4982    0.2674   18.8115  O     
20   N        -7.9679    0.4141   17.6668  N     
21   F         0.2708    7.3306   12.3501  F     
22   F        -3.1410    6.8972   15.6276  F     
23   F         1.5065    9.1177   13.9198  F     
24   F         0.4630    9.8058   16.3192  F     
25   F        -1.8546    8.6562   17.1686  F     
26   H        -2.9611    6.6959   12.4983  H     
27   H        -1.5789    5.6370   12.2858  H     
28   H        -2.2189    4.4196   14.2288  H     
29   H        -6.6895    4.1943   14.4574  H     
30   H        -2.7647    2.7514   15.1373  H     
31   H        -3.6437    1.0990   16.6136  H     
32   H        -7.5445    2.5487   15.9464  H     
33   H        -8.4297   -0.4422   17.7291  H     
34   H        -8.4798    1.2257   17.5809  H     
@<TRIPOS>BOND
     1    1    2 2
     2    1    6 1
     3    1   22 1
     4    2    3 1
     5    2   25 1
     6    3    4 2
     7    3   24 1
     8    4    5 1
     9    4   23 1
    10    5    6 2
    11    5   21 1
    12    6    7 1
    13    7    8 1
    14    8    9 am
    15    9   10 2
    16    9   11 1
    17   11   12 1
    18   11   13 2
    19   12   16 2
    20   13   14 1
    21   14   15 2
    22   15   16 1
    23   15   17 1
    24   17   18 2
    25   17   19 2
    26   17   20 am
    27    7   26 1
    28    7   27 1
    29    8   28 1
    30   12   29 1
    31   13   30 1
    32   14   31 1
    33   16   32 1
    34   20   33 1
    35   20   34 1
@<TRIPOS>PROPERTY_DATA
  Total_Score	| 4.2771
  Crash		| -1.0646
  Polar		| 2.1478
  FragIndex	| 1
  FragRMSD	| 0.851

