@<TRIPOS>MOLECULE
BindingDB_12020
 34 35 0 0 0
SMALL
NO_CHARGES


@<TRIPOS>ATOM
1    C        -1.5091    6.8579   15.0840  C     
2    C        -1.0090    7.8077   15.9953  C     
3    C        -0.8870    9.1552   15.6183  C     
4    C        -1.2772    9.5513   14.3235  C     
5    C        -1.7879    8.5980   13.4115  C     
6    C        -1.9143    7.2341   13.7826  C     
7    C        -2.3765    6.1939   12.8146  C     
8    N        -3.0182    5.0663   13.4332  N     
9    C        -4.2641    5.0106   13.8964  C     
10   O        -5.0033    5.9669   13.6761  O     
11   C        -4.7437    3.9332   14.6526  C     
12   C        -6.1229    3.8088   14.9703  C     
13   C        -3.8692    2.9492   15.1798  C     
14   C        -4.3474    1.8991   15.9855  C     
15   C        -5.7182    1.7968   16.2928  C     
16   C        -6.6036    2.7641   15.7837  C     
17   S        -6.2886    0.4957   17.2991  S     
18   O        -6.0457   -0.8339   16.4642  O     
19   O        -5.4364    0.4121   18.6386  O     
20   N        -7.9273    0.5070   17.6650  N     
21   F        -2.1142    9.0016   12.2105  F     
22   F        -0.3991   10.0188   16.4661  F     
23   F        -1.1312   10.8016   13.9600  F     
24   H        -1.5774    5.8857   15.3851  H     
25   H        -0.7298    7.5149   16.9334  H     
26   H        -3.0449    6.6208   12.0641  H     
27   H        -1.4962    5.8326   12.2805  H     
28   H        -2.4722    4.2692   13.5411  H     
29   H        -6.8076    4.4856   14.6165  H     
30   H        -2.8643    2.9928   15.0044  H     
31   H        -3.6818    1.2070   16.3492  H     
32   H        -7.6034    2.7131   16.0023  H     
33   H        -8.3419   -0.3003   18.0163  H     
34   H        -8.4865    1.2461   17.3775  H     
@<TRIPOS>BOND
     1    1    2 2
     2    1    6 1
     3    2    3 1
     4    3    4 2
     5    3   22 1
     6    4    5 1
     7    4   23 1
     8    5    6 2
     9    5   21 1
    10    6    7 1
    11    7    8 1
    12    8    9 am
    13    9   10 2
    14    9   11 1
    15   11   12 1
    16   11   13 2
    17   12   16 2
    18   13   14 1
    19   14   15 2
    20   15   16 1
    21   15   17 1
    22   17   18 2
    23   17   19 2
    24   17   20 am
    25    1   24 1
    26    2   25 1
    27    7   26 1
    28    7   27 1
    29    8   28 1
    30   12   29 1
    31   13   30 1
    32   14   31 1
    33   16   32 1
    34   20   33 1
    35   20   34 1
@<TRIPOS>PROPERTY_DATA
  Total_Score	| 4.3842
  Crash		| -1.0373
  Polar		| 2.3813
  FragIndex	| 1
  FragRMSD	| 1.144

