@<TRIPOS>MOLECULE
BindingDB_12014
 34 35 0 0 0
SMALL
NO_CHARGES


@<TRIPOS>ATOM
1    C        -2.0342    7.2016   15.3747  C     
2    C        -1.5251    8.1806   16.2509  C     
3    C        -0.4295    8.9665   15.8664  C     
4    C         0.1518    8.7804   14.6017  C     
5    C        -0.3584    7.8064   13.7201  C     
6    C        -1.4596    6.9899   14.0912  C     
7    C        -2.0345    6.0068   13.1286  C     
8    N        -2.7165    4.9329   13.7838  N     
9    C        -4.0285    4.7812   13.9601  C     
10   O        -4.7829    5.6253   13.4856  O     
11   C        -4.5672    3.7415   14.7360  C     
12   C        -5.9720    3.5987   14.9229  C     
13   C        -3.7394    2.7968   15.4040  C     
14   C        -4.2756    1.7834   16.2192  C     
15   C        -5.6650    1.6866   16.4048  C     
16   C        -6.5147    2.5914   15.7454  C     
17   S        -6.3147    0.4227   17.4112  S     
18   O        -6.0589   -0.8952   16.5556  O     
19   O        -5.5214    0.2534   18.7805  O     
20   N        -7.9825    0.4310   17.6087  N     
21   F         0.2101    7.6993   12.5428  F     
22   H        -2.8498    6.6648   15.6774  H     
23   H        -1.9696    8.3232   17.1634  H     
24   H        -0.0760    9.6929   16.4917  H     
25   H         0.9398    9.3680   14.3205  H     
26   H        -2.6681    6.5484   12.4220  H     
27   H        -1.2345    5.5417   12.5573  H     
28   H        -2.1417    4.2643   14.1778  H     
29   H        -6.6307    4.2333   14.4602  H     
30   H        -2.7234    2.8338   15.3146  H     
31   H        -3.6387    1.1356   16.6946  H     
32   H        -7.5273    2.5402   15.8776  H     
33   H        -8.4601   -0.4156   17.7098  H     
34   H        -8.4791    1.2554   17.5496  H     
@<TRIPOS>BOND
     1    1    2 2
     2    1    6 1
     3    2    3 1
     4    3    4 2
     5    4    5 1
     6    5    6 2
     7    5   21 1
     8    6    7 1
     9    7    8 1
    10    8    9 am
    11    9   10 2
    12    9   11 1
    13   11   12 1
    14   11   13 2
    15   12   16 2
    16   13   14 1
    17   14   15 2
    18   15   16 1
    19   15   17 1
    20   17   18 2
    21   17   19 2
    22   17   20 am
    23    1   22 1
    24    2   23 1
    25    3   24 1
    26    4   25 1
    27    7   26 1
    28    7   27 1
    29    8   28 1
    30   12   29 1
    31   13   30 1
    32   14   31 1
    33   16   32 1
    34   20   33 1
    35   20   34 1
@<TRIPOS>PROPERTY_DATA
  Total_Score	| 4.9075
  Crash		| -0.7528
  Polar		| 2.1486
  FragIndex	| 1
  FragRMSD	| 0.901

