@<TRIPOS>MOLECULE
BindingDB_14252
 28 29 0 0 0
SMALL
NO_CHARGES


@<TRIPOS>ATOM
1    C        44.6599   15.4305    1.9055  C     
2    C        45.6234   14.7665    2.6888  C     
3    C        45.8861   13.4346    2.2867  C     
4    C        45.2007   13.0271    1.1368  C     
5    S        44.2136   14.3429    0.6470  S     
6    O        46.2218   15.3361    3.7872  O     
7    C        47.3334   16.1920    3.4377  C     
8    C        47.8964   16.7550    4.6702  C     
9    O        49.2363   16.9038    4.7877  O     
10   O        47.1026   17.4331    5.5362  O     
11   C        44.1350   16.7258    2.0512  C     
12   O        43.0988   17.1209    1.2814  O     
13   O        44.5821   17.5815    2.9971  O     
14   Br       47.0561   12.3249    3.2103  Br    
15   C        45.2740   11.8016    0.4688  C     
16   C        44.5925    9.4731    0.1936  C     
17   C        44.5046   10.6959    0.8867  C     
18   C        46.1208   11.6765   -0.6560  C     
19   C        46.2104   10.4507   -1.3486  C     
20   C        45.4399    9.3475   -0.9213  C     
21   O        47.0271   10.3651   -2.4366  O     
22   H        48.1045   15.6233    2.9116  H     
23   H        47.0094   17.0186    2.7966  H     
24   H        44.0449    8.6674    0.5046  H     
25   H        43.8737   10.7756    1.6878  H     
26   H        46.6889   12.4657   -0.9739  H     
27   H        45.4988    8.4567   -1.4189  H     
28   H        47.5792    9.5657   -2.2790  H     
@<TRIPOS>BOND
     1    1    2 2
     2    1    5 1
     3    1   11 1
     4    2    3 1
     5    2    6 1
     6    3    4 2
     7    3   14 1
     8    4    5 1
     9    4   15 1
    10    6    7 1
    11    7    8 1
    12    8    9 2
    13    8   10 1
    14   11   12 2
    15   11   13 1
    16   15   17 1
    17   15   18 2
    18   16   17 2
    19   16   20 1
    20   18   19 1
    21   19   20 2
    22   19   21 1
    23    7   22 1
    24    7   23 1
    25   16   24 1
    26   17   25 1
    27   18   26 1
    28   20   27 1
    29   21   28 1
@<TRIPOS>PROPERTY_DATA
  Total_Score	| 10.5907
  Crash		| -0.6677
  Polar		| 8.2949
  FragIndex	| 1
  FragRMSD	| 0.116

