@<TRIPOS>MOLECULE
BindingDB_50207018
 16 16 0 0 0
SMALL
NO_CHARGES


@<TRIPOS>ATOM
1    S        44.0544   14.2379    0.8915  S     
2    C        44.6665   15.4325    1.9670  C     
3    C        45.6484   14.8102    2.7553  C     
4    C        45.8124   13.4339    2.4922  C     
5    C        45.0094   12.9353    1.4650  C     
6    C        44.2016   16.7555    2.0138  C     
7    O        43.1310   17.1248    1.2815  O     
8    O        44.6698   17.6521    2.9072  O     
9    Br       44.9013   11.1860    0.8480  Br    
10   Br       46.9779   12.3473    3.4465  Br    
11   O        46.3460   15.4625    3.7369  O     
12   C        47.6154   15.9676    3.2817  C     
13   C        48.2238   16.6283    4.3073  C     
14   N        48.7461   17.1886    5.1636  N     
15   H        48.2752   15.1542    2.9725  H     
16   H        47.4940   16.6714    2.4533  H     
@<TRIPOS>BOND
     1    1    2 1
     2    1    5 1
     3    2    3 2
     4    2    6 1
     5    3    4 1
     6    3   11 1
     7    4    5 2
     8    4   10 1
     9    5    9 1
    10    6    7 1
    11    6    8 2
    12   11   12 1
    13   12   13 1
    14   13   14 3
    15   12   15 1
    16   12   16 1
@<TRIPOS>PROPERTY_DATA
  Total_Score	| 7.0072
  Crash		| -0.8012
  Polar		| 5.3820
  FragIndex	| 1
  FragRMSD	| 1.037

