@<TRIPOS>MOLECULE
BindingDB_50207023
 19 19 0 0 0
SMALL
NO_CHARGES


@<TRIPOS>ATOM
1    S        44.1329   14.2276    0.7771  S     
2    C        44.6649   15.4526    1.8653  C     
3    C        45.6001   14.8444    2.7246  C     
4    C        45.7976   13.4668    2.4902  C     
5    C        45.0674   12.9441    1.4231  C     
6    Br       45.0165   11.1844    0.8259  Br    
7    Br       46.8999   12.4020    3.5420  Br    
8    O        46.1818   15.4848    3.7838  O     
9    C        47.4897   16.0259    3.5059  C     
10   C        48.0083   16.6697    4.7218  C     
11   O        47.1831   17.4133    5.4939  O     
12   O        49.3259   16.9651    4.7783  O     
13   C        44.1862   16.7485    1.8526  C     
14   O        43.2587   17.0579    1.1210  O     
15   N        44.6817   17.7111    2.5932  N     
16   H        48.1791   15.2275    3.2140  H     
17   H        47.4574   16.7704    2.7045  H     
18   H        44.3087   18.6041    2.5304  H     
19   H        45.4204   17.5420    3.1943  H     
@<TRIPOS>BOND
     1    1    2 1
     2    1    5 1
     3    2    3 2
     4    2   13 1
     5    3    4 1
     6    3    8 1
     7    4    5 2
     8    4    7 1
     9    5    6 1
    10    8    9 1
    11    9   10 1
    12   10   11 1
    13   10   12 2
    14   13   14 2
    15   13   15 am
    16    9   16 1
    17    9   17 1
    18   15   18 1
    19   15   19 1
@<TRIPOS>PROPERTY_DATA
  Total_Score	| 7.3311
  Crash		| -1.1106
  Polar		| 6.4739
  FragIndex	| 1
  FragRMSD	| 0.646

