@<TRIPOS>MOLECULE
BindingDB_14244
 17 17 0 0 0
SMALL
NO_CHARGES


@<TRIPOS>ATOM
1    C        44.6504   15.3995    1.9735  C     
2    C        45.6041   14.7732    2.7930  C     
3    C        45.8001   13.4098    2.5055  C     
4    C        45.0493   12.9194    1.4320  C     
5    S        44.1026   14.2220    0.8444  S     
6    O        46.1967   15.3944    3.8550  O     
7    C        47.4431   16.0472    3.5340  C     
8    C        47.9632   16.6925    4.7516  C     
9    O        49.2749   17.0185    4.7873  O     
10   O        47.1309   17.4420    5.5155  O     
11   C        44.1623   16.7151    2.0393  C     
12   O        43.1241   17.0888    1.2566  O     
13   O        44.6189   17.6120    2.9479  O     
14   Br       46.9271   12.3187    3.4971  Br    
15   Br       44.9916   11.1734    0.7879  Br    
16   H        48.1788   15.3064    3.1910  H     
17   H        47.3199   16.8149    2.7644  H     
@<TRIPOS>BOND
     1    1    2 2
     2    1    5 1
     3    1   11 1
     4    2    3 1
     5    2    6 1
     6    3    4 2
     7    3   14 1
     8    4    5 1
     9    4   15 1
    10    6    7 1
    11    7    8 1
    12    8    9 2
    13    8   10 1
    14   11   12 2
    15   11   13 1
    16    7   16 1
    17    7   17 1
@<TRIPOS>PROPERTY_DATA
  Total_Score	| 9.7443
  Crash		| -0.6120
  Polar		| 8.4505
  FragIndex	| 1
  FragRMSD	| 0.105

