@<TRIPOS>MOLECULE
BindingDB_14245
 27 28 0 0 0
SMALL
NO_CHARGES


@<TRIPOS>ATOM
1    C        44.6510   15.4689    1.8929  C     
2    C        45.5937   14.7947    2.6901  C     
3    C        45.8594   13.4701    2.2787  C     
4    C        45.1879   13.0715    1.1173  C     
5    S        44.2059   14.3927    0.6260  S     
6    O        46.1801   15.3435    3.7975  O     
7    C        47.3656   16.1139    3.4945  C     
8    C        47.9096   16.6889    4.7316  C     
9    O        49.2460   16.8797    4.8481  O     
10   O        47.1032   17.4089    5.5517  O     
11   C        44.1223   16.7583    2.0365  C     
12   O        43.0741   17.1464    1.2777  O     
13   O        44.5569   17.6201    2.9877  O     
14   Br       47.0110   12.3470    3.2139  Br    
15   C        45.2653   11.8504    0.4235  C     
16   C        44.5660   10.7135    0.8843  C     
17   C        44.6112    9.5073    0.1560  C     
18   C        45.3518    9.4323   -1.0386  C     
19   C        46.0458   10.5650   -1.5097  C     
20   C        46.0052   11.7668   -0.7776  C     
21   H        48.1247   15.4779    3.0330  H     
22   H        47.1315   16.9385    2.8142  H     
23   H        44.0118   10.7505    1.7458  H     
24   H        44.0901    8.6888    0.4698  H     
25   H        45.3821    8.5580   -1.5744  H     
26   H        46.5790   10.5138   -2.3780  H     
27   H        46.5087   12.5853   -1.1346  H     
@<TRIPOS>BOND
     1    1    2 2
     2    1    5 1
     3    1   11 1
     4    2    3 1
     5    2    6 1
     6    3    4 2
     7    3   14 1
     8    4    5 1
     9    4   15 1
    10    6    7 1
    11    7    8 1
    12    8    9 2
    13    8   10 1
    14   11   12 2
    15   11   13 1
    16   15   16 2
    17   15   20 1
    18   16   17 1
    19   17   18 2
    20   18   19 1
    21   19   20 2
    22    7   21 1
    23    7   22 1
    24   16   23 1
    25   17   24 1
    26   18   25 1
    27   19   26 1
    28   20   27 1
@<TRIPOS>PROPERTY_DATA
  Total_Score	| 10.9532
  Crash		| -0.5264
  Polar		| 8.3037
  FragIndex	| 1
  FragRMSD	| 0.118

