@<TRIPOS>MOLECULE
BindingDB_14241
 17 17 0 0 0
SMALL
NO_CHARGES


@<TRIPOS>ATOM
1    C        44.7139   15.3501    2.0373  C     
2    C        45.6787   14.7647    2.8800  C     
3    C        45.9653   13.4143    2.5989  C     
4    C        45.2676   12.8914    1.5093  C     
5    S        44.2556   14.1384    0.8997  S     
6    O        46.2541   15.4349    3.9274  O     
7    C        47.5063   16.0507    3.5849  C     
8    C        48.0402   16.7227    4.7722  C     
9    O        49.3536   17.0172    4.7939  O     
10   O        47.2266   17.4969    5.5269  O     
11   C        44.1976   16.6617    2.0617  C     
12   O        44.6331   17.6067    2.9279  O     
13   O        43.1972   17.0160    1.2216  O     
14   H        46.6346   12.8559    3.1409  H     
15   H        45.3408   11.9418    1.1394  H     
16   H        48.2240   15.2896    3.2662  H     
17   H        47.3929   16.7841    2.7792  H     
@<TRIPOS>BOND
     1    1    2 2
     2    1    5 1
     3    1   11 1
     4    2    3 1
     5    2    6 1
     6    3    4 2
     7    4    5 1
     8    6    7 1
     9    7    8 1
    10    8    9 2
    11    8   10 1
    12   11   12 2
    13   11   13 1
    14    3   14 1
    15    4   15 1
    16    7   16 1
    17    7   17 1
@<TRIPOS>PROPERTY_DATA
  Total_Score	| 9.1670
  Crash		| -0.1847
  Polar		| 8.4648
  FragIndex	| 1
  FragRMSD	| 0.922

