@<TRIPOS>MOLECULE
BindingDB_14250
 28 29 0 0 0
SMALL
NO_CHARGES


@<TRIPOS>ATOM
1    C        44.6593   15.4305    1.8752  C     
2    C        45.6239   14.7483    2.6303  C     
3    C        45.9119   13.4475    2.1531  C     
4    C        45.2455   13.0906    0.9749  C     
5    S        44.2357   14.4144    0.5537  S     
6    O        46.2054   15.2877    3.7482  O     
7    C        47.3316   16.1486    3.4778  C     
8    C        47.8628   16.6953    4.7381  C     
9    O        47.0558   17.4267    5.5403  O     
10   O        49.1898   16.9546    4.8312  O     
11   C        44.1235   16.7171    2.0647  C     
12   O        43.0509   17.1092    1.3318  O     
13   O        44.6018   17.5701    2.9984  O     
14   Br       47.1326   12.3165    2.9852  Br    
15   C        45.3815   11.9285    0.1951  C     
16   C        44.8476    9.5818   -0.2594  C     
17   C        44.7152   10.7305    0.5497  C     
18   C        46.1537   11.9679   -0.9892  C     
19   C        46.2823   10.8200   -1.7948  C     
20   C        45.6267    9.6251   -1.4370  C     
21   O        45.7859    8.5451   -2.2504  O     
22   H        48.1180   15.5742    2.9822  H     
23   H        47.0573   16.9884    2.8280  H     
24   H        44.3551    8.7250   -0.0115  H     
25   H        44.1309   10.6852    1.3912  H     
26   H        46.6317   12.8347   -1.2770  H     
27   H        46.8500   10.8569   -2.6426  H     
28   H        45.3240    7.7811   -1.8472  H     
@<TRIPOS>BOND
     1    1    2 2
     2    1    5 1
     3    1   11 1
     4    2    3 1
     5    2    6 1
     6    3    4 2
     7    3   14 1
     8    4    5 1
     9    4   15 1
    10    6    7 1
    11    7    8 1
    12    8    9 2
    13    8   10 1
    14   11   12 2
    15   11   13 1
    16   15   17 1
    17   15   18 2
    18   16   17 2
    19   16   20 1
    20   18   19 1
    21   19   20 2
    22   20   21 1
    23    7   22 1
    24    7   23 1
    25   16   24 1
    26   17   25 1
    27   18   26 1
    28   19   27 1
    29   21   28 1
@<TRIPOS>PROPERTY_DATA
  Total_Score	| 11.2674
  Crash		| -0.4365
  Polar		| 9.4072
  FragIndex	| 1
  FragRMSD	| 0.896

