@<TRIPOS>MOLECULE
BindingDB_14242
 20 20 0 0 0
SMALL
NO_CHARGES


@<TRIPOS>ATOM
1    C        44.7094   15.3500    1.9635  C     
2    C        45.7048   14.7404    2.7508  C     
3    C        45.9832   13.3968    2.4073  C     
4    C        45.2481   12.9330    1.3109  C     
5    S        44.2198   14.1970    0.7851  S     
6    O        46.2957   15.3628    3.8111  O     
7    C        47.4374   16.1748    3.4662  C     
8    C        47.9779   16.7751    4.6942  C     
9    O        49.3114   16.9526    4.8133  O     
10   O        47.1586   17.4886    5.5056  O     
11   C        44.1667   16.6479    2.0588  C     
12   O        44.5750   17.5548    2.9689  O     
13   O        43.1550   17.0165    1.2406  O     
14   C        46.9638   12.5513    3.1241  C     
15   H        45.3023   11.9942    0.8961  H     
16   H        48.2096   15.5609    2.9942  H     
17   H        47.1651   16.9839    2.7851  H     
18   H        47.9673   12.9579    2.9789  H     
19   H        46.9653   11.5221    2.7539  H     
20   H        46.7359   12.5275    4.1911  H     
@<TRIPOS>BOND
     1    1    2 2
     2    1    5 1
     3    1   11 1
     4    2    3 1
     5    2    6 1
     6    3    4 2
     7    3   14 1
     8    4    5 1
     9    6    7 1
    10    7    8 1
    11    8    9 2
    12    8   10 1
    13   11   12 2
    14   11   13 1
    15    4   15 1
    16    7   16 1
    17    7   17 1
    18   14   18 1
    19   14   19 1
    20   14   20 1
@<TRIPOS>PROPERTY_DATA
  Total_Score	| 10.2751
  Crash		| -0.2861
  Polar		| 8.4365
  FragIndex	| 1
  FragRMSD	| 0.912

