@<TRIPOS>MOLECULE
BindingDB_50207012
 18 18 0 0 0
SMALL
NO_CHARGES


@<TRIPOS>ATOM
1    S        44.1260   14.2694    0.6815  S     
2    C        44.5940   15.3493    1.9360  C     
3    C        45.4616   14.6476    2.7859  C     
4    C        45.6510   13.2977    2.4279  C     
5    C        44.9984   12.9059    1.2547  C     
6    C        44.1199   16.6663    2.0460  C     
7    O        43.1387   17.1093    1.2269  O     
8    O        44.5385   17.5093    3.0151  O     
9    Br       44.9776   11.2296    0.4510  Br    
10   Br       46.6358   12.1030    3.4498  Br    
11   O        45.9775   15.2016    3.9249  O     
12   C        47.4155   15.2217    4.0209  C     
13   C        47.9840   16.6559    3.9395  C     
14   F        49.3550   16.6170    4.0571  F     
15   F        47.6725   17.2264    2.7266  F     
16   F        47.4852   17.4463    4.9497  F     
17   H        47.6836   14.8154    4.9976  H     
18   H        47.9083   14.6083    3.2600  H     
@<TRIPOS>BOND
     1    1    2 1
     2    1    5 1
     3    2    3 2
     4    2    6 1
     5    3    4 1
     6    3   11 1
     7    4    5 2
     8    4   10 1
     9    5    9 1
    10    6    7 1
    11    6    8 2
    12   11   12 1
    13   12   13 1
    14   13   14 1
    15   13   15 1
    16   13   16 1
    17   12   17 1
    18   12   18 1
@<TRIPOS>PROPERTY_DATA
  Total_Score	| 5.9304
  Crash		| -1.1807
  Polar		| 4.1650
  FragIndex	| 1
  FragRMSD	| 1.042

