@<TRIPOS>MOLECULE
BindingDB_15378
 48 50 0 0 0
SMALL
NO_CHARGES


@<TRIPOS>ATOM
1    C        -1.1579   11.0460   25.2674  C     
2    C        -0.7666    9.2075   26.7337  C     
3    N         0.5512    9.1691   26.3813  N     
4    N        -1.6005   10.1265   26.1718  N     
5    N        -2.0067   11.9145   24.6982  N     
6    C         0.2020   11.0324   24.9264  C     
7    C         1.0400   10.0677   25.4842  C     
8    C         2.1759   11.2953   24.1008  C     
9    N         0.9169   11.7752   24.0832  N     
10   N         2.2621   10.2284   24.9413  N     
11   C         3.4006    9.3789   25.1853  C     
12   C         3.3236    8.0120   24.4350  C     
13   C         2.9888    8.1004   22.9215  C     
14   C         4.2212    8.2734   21.9934  C     
15   C         3.2332   11.9147   23.2630  C     
16   C         4.2100   12.7125   24.0529  C     
17   C         3.7063   13.6969   24.9544  C     
18   C         4.5642   14.4509   25.7706  C     
19   C         5.6232   12.5498   23.9421  C     
20   C         5.9543   14.2489   25.6855  C     
21   C         6.4842   13.3021   24.7700  C     
22   O         6.1127   11.5888   23.0843  O     
23   C         7.3624   11.8375   22.4042  C     
24   O         4.0433   15.3051   26.7077  O     
25   C         4.4029   16.6720   26.4793  C     
26   H        -1.1306    8.5303   27.4044  H     
27   H        -1.6767   12.5469   24.0434  H     
28   H        -2.9545   11.8757   24.8961  H     
29   H         4.3222    9.8692   24.8819  H     
30   H         3.4851    9.1895   26.2574  H     
31   H         4.2723    7.4794   24.5700  H     
32   H         2.5525    7.4077   24.9165  H     
33   H         2.4818    7.1806   22.6197  H     
34   H         2.2836    8.9215   22.7322  H     
35   H         4.8435    9.1067   22.3215  H     
36   H         3.8833    8.4751   20.9758  H     
37   H         4.8227    7.3668   21.9962  H     
38   H         3.7117   11.1164   22.6914  H     
39   H         2.7681   12.5823   22.5292  H     
40   H         2.7036   13.8539   25.0354  H     
41   H         6.6132   14.7872   26.2713  H     
42   H         7.5126   13.1432   24.7011  H     
43   H         7.3760   12.8313   21.9435  H     
44   H         7.4851   11.0901   21.5975  H     
45   H         8.1864   11.7719   23.1224  H     
46   H         5.4749   16.8209   26.6086  H     
47   H         3.8818   17.2816   27.2156  H     
48   H         4.1061   17.0068   25.4846  H     
@<TRIPOS>BOND
     1    1    4 1
     2    1    5 1
     3    1    6 2
     4    2    3 1
     5    2    4 2
     6    3    7 2
     7    6    7 1
     8    6    9 1
     9    7   10 1
    10    8    9 2
    11    8   10 1
    12    8   15 1
    13   10   11 1
    14   11   12 1
    15   12   13 1
    16   13   14 1
    17   15   16 1
    18   16   17 2
    19   16   19 1
    20   17   18 1
    21   18   20 2
    22   18   24 1
    23   19   21 2
    24   19   22 1
    25   20   21 1
    26   22   23 1
    27   24   25 1
    28    2   26 1
    29    5   27 1
    30    5   28 1
    31   11   29 1
    32   11   30 1
    33   12   31 1
    34   12   32 1
    35   13   33 1
    36   13   34 1
    37   14   35 1
    38   14   36 1
    39   14   37 1
    40   15   38 1
    41   15   39 1
    42   17   40 1
    43   20   41 1
    44   21   42 1
    45   23   43 1
    46   23   44 1
    47   23   45 1
    48   25   46 1
    49   25   47 1
    50   25   48 1
@<TRIPOS>PROPERTY_DATA
  Total_Score	| 7.9035
  Crash		| -0.8296
  Polar		| 1.4204
  FragIndex	| 1
  FragRMSD	| 0.182

