@<TRIPOS>MOLECULE
BindingDB_50165297
 51 53 0 0 0
SMALL
NO_CHARGES


@<TRIPOS>ATOM
1    N        -1.5451   10.1327   26.0272  N     
2    C        -0.7267    9.2204   26.6176  C     
3    N         0.5995    9.1864   26.3060  N     
4    C        -1.0823   11.0439   25.1287  C     
5    N        -1.9216   11.9160   24.5490  N     
6    C         0.2891   11.0218   24.8139  C     
7    C         1.1110   10.0720   25.4114  C     
8    N         2.3529   10.2384   24.9199  N     
9    C         2.2935   11.2918   24.0598  C     
10   N         1.0322   11.7624   23.9910  N     
11   C         3.4868    9.4117   25.2464  C     
12   C         3.4214    8.0052   24.5876  C     
13   C         3.1316    8.0305   23.0535  C     
14   C         2.1836    7.1199   22.6651  C     
15   C         1.3455    6.3381   22.3272  C     
16   C         3.3851   11.9316   23.2914  C     
17   C         4.2610   12.8013   24.1114  C     
18   C         5.6596   12.8549   23.9015  C     
19   C         6.4716   13.7428   24.6399  C     
20   C         5.9054   14.5195   25.6735  C     
21   C         4.5078   14.5161   25.8612  C     
22   C         3.7052   13.6688   25.0754  C     
23   O         6.6770   15.3735   26.4083  O     
24   C         7.5774   14.6937   27.2974  C     
25   O         7.8160   13.7802   24.3595  O     
26   C         8.2942   15.1226   24.0725  C     
27   O         3.9163   15.2918   26.8277  O     
28   C         4.1288   16.7012   26.6599  C     
29   H        -1.1102    8.5514   27.2827  H     
30   H        -1.5877   12.5519   23.8981  H     
31   H        -2.8687   11.8918   24.7570  H     
32   H         4.4244    9.8810   24.9377  H     
33   H         3.5358    9.2944   26.3330  H     
34   H         4.3836    7.5080   24.7495  H     
35   H         2.6775    7.4093   25.1225  H     
36   H         2.7804    9.0104   22.7279  H     
37   H         4.0514    7.8126   22.5030  H     
38   H         0.7005    5.7379   22.0642  H     
39   H         3.9591   11.1518   22.7908  H     
40   H         2.9529   12.5580   22.5111  H     
41   H         6.0809   12.2646   23.1807  H     
42   H         2.6951   13.7030   25.2240  H     
43   H         7.0427   14.0219   27.9809  H     
44   H         8.0908   15.4521   27.8922  H     
45   H         8.3303   14.1246   26.7437  H     
46   H         7.8363   15.5282   23.1452  H     
47   H         9.3861   15.0727   23.9454  H     
48   H         8.0962   15.8318   24.9008  H     
49   H         5.1643   16.9573   26.8827  H     
50   H         3.4817   17.2204   27.3662  H     
51   H         3.8853   17.0264   25.6436  H     
@<TRIPOS>BOND
     1    1    2 2
     2    1    4 1
     3    2    3 1
     4    3    7 2
     5    4    5 1
     6    4    6 2
     7    6    7 1
     8    6   10 1
     9    7    8 1
    10    8    9 1
    11    8   11 1
    12    9   10 2
    13    9   16 1
    14   11   12 1
    15   12   13 1
    16   13   14 1
    17   14   15 3
    18   16   17 1
    19   17   18 2
    20   17   22 1
    21   18   19 1
    22   19   20 2
    23   19   25 1
    24   20   21 1
    25   20   23 1
    26   21   22 2
    27   21   27 1
    28   23   24 1
    29   25   26 1
    30   27   28 1
    31    2   29 1
    32    5   30 1
    33    5   31 1
    34   11   32 1
    35   11   33 1
    36   12   34 1
    37   12   35 1
    38   13   36 1
    39   13   37 1
    40   15   38 1
    41   16   39 1
    42   16   40 1
    43   18   41 1
    44   22   42 1
    45   24   43 1
    46   24   44 1
    47   24   45 1
    48   26   46 1
    49   26   47 1
    50   26   48 1
    51   28   49 1
    52   28   50 1
    53   28   51 1
@<TRIPOS>PROPERTY_DATA
  Total_Score	| 8.1149
  Crash		| -1.8342
  Polar		| 1.4297
  FragIndex	| 1
  FragRMSD	| 0.268

