@<TRIPOS>MOLECULE
BindingDB_50165283
 56 58 0 0 0
SMALL
NO_CHARGES


@<TRIPOS>ATOM
1    N         0.7280   11.7618   23.9238  N     
2    C         0.0442   11.0744   24.8343  C     
3    C         1.9985   11.3127   23.9447  C     
4    N         2.1245   10.3188   24.8776  N     
5    C         0.9134   10.1679   25.4472  C     
6    C        -1.3002   11.0824   25.2046  C     
7    N         0.4557    9.3268   26.4068  N     
8    C         6.1385   14.2027   24.8519  C     
9    N        -1.7157   10.2232   26.1710  N     
10   C         4.8309   14.7507   24.7022  C     
11   C         6.3883   12.8767   24.4586  C     
12   C         2.9875   11.8771   23.0090  C     
13   C         4.0462   12.6668   23.6824  C     
14   C        -0.8569    9.3555   26.7806  C     
15   C         3.8072   13.9697   24.1516  C     
16   C         5.3593   12.1410   23.8244  C     
17   C         3.2727    9.5246   25.2328  C     
18   N        -2.1692   11.9150   24.5987  N     
19   O         7.1069   14.9605   25.4481  O     
20   O         4.5844   16.0774   24.9598  O     
21   O         7.6324   12.3708   24.7738  O     
22   C         3.6157    8.4093   24.2070  C     
23   O         4.4873    8.9123   23.1789  O     
24   C         4.5187    8.2584   21.8923  C     
25   C         8.1194   15.4243   24.5460  C     
26   C         8.2030   11.3405   23.9653  C     
27   C         4.5142   16.4147   26.3559  C     
28   C         5.4675    9.0994   21.0020  C     
29   C         4.9784    6.7740   21.9345  C     
30   H         3.3966   11.0645   22.4139  H     
31   H         2.4890   12.5402   22.2943  H     
32   H        -1.1975    8.7242   27.5018  H     
33   H         2.8675   14.3838   24.0354  H     
34   H         5.5347   11.2085   23.4830  H     
35   H         4.1301   10.1736   25.3915  H     
36   H         3.1017    9.0348   26.1980  H     
37   H        -3.1046   11.8892   24.8322  H     
38   H        -1.8564   12.5124   23.9029  H     
39   H         4.1464    7.6000   24.7164  H     
40   H         2.6862    8.0033   23.7966  H     
41   H         3.5174    8.3029   21.4538  H     
42   H         8.7329   14.6035   24.1740  H     
43   H         8.7717   16.0938   25.1019  H     
44   H         7.6925   15.9691   23.7014  H     
45   H         7.7463   10.3833   24.1886  H     
46   H         9.2638   11.2366   24.2298  H     
47   H         8.1191   11.5788   22.9057  H     
48   H         3.7249   15.8519   26.8697  H     
49   H         4.2810   17.4786   26.4341  H     
50   H         5.4725   16.2423   26.8642  H     
51   H         5.1245   10.1343   20.9610  H     
52   H         5.4966    8.7068   19.9837  H     
53   H         6.4786    9.0924   21.4132  H     
54   H         5.9603    6.6903   22.4013  H     
55   H         5.0346    6.3645   20.9234  H     
56   H         4.2683    6.1724   22.5020  H     
@<TRIPOS>BOND
     1    1    2 1
     2    1    3 2
     3    2    5 1
     4    2    6 2
     5    3    4 1
     6    3   12 1
     7    4    5 1
     8    4   17 1
     9    5    7 2
    10    6    9 1
    11    6   18 1
    12    7   14 1
    13    8   10 2
    14    8   11 1
    15    8   19 1
    16    9   14 2
    17   10   15 1
    18   10   20 1
    19   11   16 2
    20   11   21 1
    21   12   13 1
    22   13   15 2
    23   13   16 1
    24   17   22 1
    25   19   25 1
    26   20   27 1
    27   21   26 1
    28   22   23 1
    29   23   24 1
    30   24   28 1
    31   24   29 1
    32   12   30 1
    33   12   31 1
    34   14   32 1
    35   15   33 1
    36   16   34 1
    37   17   35 1
    38   17   36 1
    39   18   37 1
    40   18   38 1
    41   22   39 1
    42   22   40 1
    43   24   41 1
    44   25   42 1
    45   25   43 1
    46   25   44 1
    47   26   45 1
    48   26   46 1
    49   26   47 1
    50   27   48 1
    51   27   49 1
    52   27   50 1
    53   28   51 1
    54   28   52 1
    55   28   53 1
    56   29   54 1
    57   29   55 1
    58   29   56 1
@<TRIPOS>PROPERTY_DATA
  Total_Score	| 9.2170
  Crash		| -1.3468
  Polar		| 1.2782
  FragIndex	| 1
  FragRMSD	| 0.681

