@<TRIPOS>MOLECULE
BindingDB_50165270
 51 53 0 0 0
SMALL
NO_CHARGES


@<TRIPOS>ATOM
1    C         1.0538   10.1062   25.4284  C     
2    C         0.1538   11.0203   24.8713  C     
3    N         0.8008   11.7205   23.9403  N     
4    N         2.2426   10.2615   24.8186  N     
5    C         2.0680   11.2660   23.9135  C     
6    N         0.6448    9.2248   26.3869  N     
7    N        -1.5356   10.1487   26.2803  N     
8    C        -1.1827   11.0370   25.3076  C     
9    C        -0.6443    9.2629   26.8235  C     
10   C         6.0271   14.2117   25.0443  C     
11   C         4.7246   14.7270   24.8290  C     
12   C         6.3878   12.9500   24.5114  C     
13   C         3.0454   11.8551   22.9732  C     
14   C         4.0834   12.6699   23.6617  C     
15   C         4.0275    8.4601   21.8573  C     
16   C         4.8373    8.7028   21.0022  C     
17   C         5.4068   12.2100   23.8099  C     
18   C         3.7578   13.9428   24.1798  C     
19   N        -2.1076   11.8699   24.7820  N     
20   F        -1.0608    8.3954   27.7128  F     
21   C         3.4339    9.5063   25.0929  C     
22   O         6.9767   15.0067   25.6505  O     
23   O         4.3767   16.0315   25.0626  O     
24   O         7.6817   12.5136   24.7207  O     
25   C         3.0507    8.2039   22.7934  C     
26   C         7.2637   14.6809   27.0180  C     
27   C         8.2246   11.3527   24.0629  C     
28   C         4.4132   16.5174   26.4121  C     
29   C         3.5538    8.1712   24.2867  C     
30   H         3.4854   11.0520   22.3816  H     
31   H         2.5421   12.5078   22.2537  H     
32   H         5.4486    8.9051   20.3349  H     
33   H         5.6640   11.3136   23.4080  H     
34   H         2.8161   14.3279   24.0439  H     
35   H        -3.0411   11.7937   25.0495  H     
36   H        -1.8548   12.5095   24.0926  H     
37   H         4.3196   10.0960   24.8792  H     
38   H         3.4772    9.2911   26.1671  H     
39   H         2.2531    8.9533   22.6653  H     
40   H         2.6250    7.2267   22.5548  H     
41   H         6.3601   14.6918   27.6395  H     
42   H         7.9441   15.4379   27.4030  H     
43   H         7.7453   13.7131   27.1139  H     
44   H         7.6096   10.4699   24.2857  H     
45   H         9.2435   11.1982   24.4207  H     
46   H         8.2479   11.5250   22.9829  H     
47   H         3.8683   15.8587   27.0898  H     
48   H         3.9339   17.4901   26.4316  H     
49   H         5.4385   16.6535   26.7337  H     
50   H         4.5895    7.8446   24.3177  H     
51   H         2.9753    7.3843   24.8032  H     
@<TRIPOS>BOND
     1    1    2 1
     2    1    4 1
     3    1    6 2
     4    2    3 1
     5    2    8 2
     6    3    5 2
     7    4    5 1
     8    4   21 1
     9    5   13 1
    10    6    9 1
    11    7    8 1
    12    7    9 2
    13    8   19 1
    14    9   20 1
    15   10   11 1
    16   10   12 2
    17   10   22 1
    18   11   18 2
    19   11   23 1
    20   12   17 1
    21   12   24 1
    22   13   14 1
    23   14   17 2
    24   14   18 1
    25   15   16 3
    26   15   25 1
    27   21   29 1
    28   22   26 1
    29   23   28 1
    30   24   27 1
    31   25   29 1
    32   13   30 1
    33   13   31 1
    34   16   32 1
    35   17   33 1
    36   18   34 1
    37   19   35 1
    38   19   36 1
    39   21   37 1
    40   21   38 1
    41   25   39 1
    42   25   40 1
    43   26   41 1
    44   26   42 1
    45   26   43 1
    46   27   44 1
    47   27   45 1
    48   27   46 1
    49   28   47 1
    50   28   48 1
    51   28   49 1
    52   29   50 1
    53   29   51 1
@<TRIPOS>PROPERTY_DATA
  Total_Score	| 8.8128
  Crash		| -1.0231
  Polar		| 1.2925
  FragIndex	| 1
  FragRMSD	| 0.591

