@<TRIPOS>MOLECULE
BindingDB_50255030
 51 53 0 0 0
SMALL
NO_CHARGES


@<TRIPOS>ATOM
1    O        23.5484   53.6865   17.9759  O     
2    C        23.0827   54.9634   17.9803  C     
3    N        22.9257   55.4405   19.2365  N     
4    C        23.6558   53.3420   19.2745  C     
5    C        23.2640   54.4352   20.0476  C     
6    C        23.3023   54.3886   21.4495  C     
7    C        23.7224   53.1929   22.0789  C     
8    C        24.1098   52.0729   21.2957  C     
9    C        24.0793   52.1454   19.8854  C     
10   N        21.3767   55.9602   16.5716  N     
11   C        22.7978   55.7593   16.7675  C     
12   C        23.4224   57.1793   16.8451  C     
13   C        22.3818   58.0745   16.1645  C     
14   C        21.0462   57.3493   16.4242  C     
15   C        20.4635   54.9632   16.5502  C     
16   C        19.0228   55.1351   16.8005  C     
17   O        20.8667   53.8071   16.5714  O     
18   C        18.0903   54.3264   15.8089  C     
19   C        18.7578   54.8077   18.3200  C     
20   C        18.1606   55.9738   19.1411  C     
21   C        17.3832   55.5104   20.4204  C     
22   C        18.2591   54.9494   21.5912  C     
23   N        17.1192   55.1771   15.1638  N     
24   O        15.8876   55.2282   15.6223  O     
25   C        17.4337   55.9265   14.1176  C     
26   O        16.6201   56.6968   13.6091  O     
27   H        23.0098   55.1965   22.0155  H     
28   H        23.7583   53.1360   23.1037  H     
29   H        24.3996   51.2059   21.7630  H     
30   H        24.3562   51.3388   19.3199  H     
31   H        23.1772   55.2575   15.8766  H     
32   H        23.5492   57.5297   17.8758  H     
33   H        24.3883   57.2308   16.3319  H     
34   H        22.4015   59.0944   16.5712  H     
35   H        22.6061   58.1107   15.0829  H     
36   H        20.3783   57.5358   15.5712  H     
37   H        20.5886   57.7316   17.3449  H     
38   H        18.7765   56.1934   16.7043  H     
39   H        18.6758   53.8351   15.0276  H     
40   H        17.5831   53.5154   16.3546  H     
41   H        18.0927   53.9488   18.3761  H     
42   H        19.6824   54.5461   18.8304  H     
43   H        18.9575   56.6501   19.4611  H     
44   H        17.4669   56.5598   18.5179  H     
45   H        16.8026   56.3525   20.7919  H     
46   H        16.6717   54.7106   20.1297  H     
47   H        18.7714   54.0269   21.2868  H     
48   H        17.6099   54.7305   22.4498  H     
49   H        19.0122   55.6944   21.9046  H     
50   H        15.5932   54.3018   15.7767  H     
51   H        18.3485   55.8642   13.7320  H     
@<TRIPOS>BOND
     1    1    2 1
     2    1    4 1
     3    2    3 2
     4   11    2 1
     5    3    5 1
     6    4    5 2
     7    4    9 1
     8    5    6 1
     9    6    7 2
    10    7    8 1
    11    8    9 2
    12   10   11 1
    13   10   14 1
    14   10   15 am
    15   11   12 1
    16   12   13 1
    17   13   14 1
    18   15   16 1
    19   15   17 2
    20   16   18 1
    21   16   19 1
    22   18   23 1
    23   19   20 1
    24   20   21 1
    25   21   22 1
    26   23   24 1
    27   23   25 am
    28   25   26 2
    29    6   27 1
    30    7   28 1
    31    8   29 1
    32    9   30 1
    33   11   31 1
    34   12   32 1
    35   12   33 1
    36   13   34 1
    37   13   35 1
    38   14   36 1
    39   14   37 1
    40   16   38 1
    41   18   39 1
    42   18   40 1
    43   19   41 1
    44   19   42 1
    45   20   43 1
    46   20   44 1
    47   21   45 1
    48   21   46 1
    49   22   47 1
    50   22   48 1
    51   22   49 1
    52   24   50 1
    53   25   51 1
@<TRIPOS>PROPERTY_DATA
  Total_Score	| 11.2295
  Crash		| -1.8513
  Polar		| 6.8101
  FragIndex	| 1
  FragRMSD	| 0.904

