@<TRIPOS>MOLECULE
BindingDB_50255065
 49 51 0 0 0
SMALL
NO_CHARGES


@<TRIPOS>ATOM
1    N        23.2790   53.7494   18.0828  N     
2    C        22.8574   55.0307   18.0261  C     
3    N        22.7355   55.5201   19.2768  N     
4    C        23.4290   53.4205   19.3612  C     
5    C        23.0814   54.5398   20.1202  C     
6    C        23.1937   54.5277   21.5165  C     
7    C        23.6569   53.3495   22.1519  C     
8    C        23.9680   52.2011   21.3852  C     
9    C        23.8625   52.2311   19.9823  C     
10   N        21.2726   56.1201   16.5046  N     
11   C        22.6590   55.8096   16.7797  C     
12   C        23.3934   57.1651   16.8602  C     
13   C        22.4523   58.1205   16.1238  C     
14   C        21.0515   57.5289   16.3655  C     
15   C        20.3395   55.1755   16.2847  C     
16   C        18.8986   55.3998   16.0926  C     
17   O        20.6858   53.9998   16.3140  O     
18   C        18.4259   55.0127   14.7491  C     
19   C        18.0850   54.7189   17.2382  C     
20   C        18.5775   55.0568   18.6910  C     
21   C        17.6312   54.6021   19.8120  C     
22   C        18.1803   54.9062   21.2421  C     
23   N        17.4387   55.5896   14.0775  N     
24   O        16.7014   56.5817   14.4933  O     
25   O        18.9574   54.0966   14.1251  O     
26   H        23.4773   53.1780   17.3273  H     
27   H        22.9580   55.3553   22.0739  H     
28   H        23.7533   53.3225   23.1784  H     
29   H        24.2850   51.3432   21.8628  H     
30   H        24.1276   51.4202   19.4224  H     
31   H        23.0614   55.2411   15.9328  H     
32   H        23.5192   57.5151   17.8850  H     
33   H        24.3681   57.1162   16.3794  H     
34   H        22.5479   59.1613   16.4799  H     
35   H        22.6841   58.0973   15.0440  H     
36   H        20.4176   57.8129   15.5204  H     
37   H        20.6370   57.9158   17.2912  H     
38   H        18.6820   56.4609   16.2071  H     
39   H        17.0223   55.0167   17.1574  H     
40   H        18.0986   53.6262   17.1244  H     
41   H        19.6065   54.6654   18.8443  H     
42   H        18.6680   56.1655   18.7433  H     
43   H        16.6657   55.0950   19.6918  H     
44   H        17.4723   53.5216   19.7423  H     
45   H        19.0757   54.2970   21.4330  H     
46   H        17.4096   54.6696   21.9804  H     
47   H        18.4487   55.9739   21.3427  H     
48   H        17.2544   55.2451   13.1824  H     
49   H        16.7695   56.5540   15.4820  H     
@<TRIPOS>BOND
     1    1    2 1
     2    1    4 1
     3    2    3 2
     4   11    2 1
     5    3    5 1
     6    4    5 2
     7    4    9 1
     8    5    6 1
     9    6    7 2
    10    7    8 1
    11    8    9 2
    12   10   11 1
    13   10   14 1
    14   10   15 am
    15   11   12 1
    16   12   13 1
    17   13   14 1
    18   15   16 1
    19   15   17 2
    20   16   18 1
    21   16   19 1
    22   18   23 am
    23   18   25 2
    24   19   20 1
    25   20   21 1
    26   21   22 1
    27   23   24 1
    28    1   26 1
    29    6   27 1
    30    7   28 1
    31    8   29 1
    32    9   30 1
    33   11   31 1
    34   12   32 1
    35   12   33 1
    36   13   34 1
    37   13   35 1
    38   14   36 1
    39   14   37 1
    40   16   38 1
    41   19   39 1
    42   19   40 1
    43   20   41 1
    44   20   42 1
    45   21   43 1
    46   21   44 1
    47   22   45 1
    48   22   46 1
    49   22   47 1
    50   23   48 1
    51   24   49 1
@<TRIPOS>PROPERTY_DATA
  Total_Score	| 8.7810
  Crash		| -0.9128
  Polar		| 3.9400
  FragIndex	| 1
  FragRMSD	| 0.528

