@<TRIPOS>MOLECULE
BindingDB_50255034
 52 55 0 0 0
SMALL
NO_CHARGES


@<TRIPOS>ATOM
1    O        23.3955   53.7954   17.8164  O     
2    C        22.9476   55.0704   17.7471  C     
3    N        22.7803   55.5741   18.9820  N     
4    C        23.5154   53.5001   19.1236  C     
5    C        23.1331   54.6180   19.8543  C     
6    C        23.1332   54.6097   21.2595  C     
7    C        23.5391   53.4287   21.9188  C     
8    C        23.9234   52.2875   21.1797  C     
9    C        23.9040   52.3133   19.7692  C     
10   N        21.1325   55.9615   16.4029  N     
11   C        22.5550   55.7430   16.4808  C     
12   C        23.1995   57.1367   16.2928  C     
13   C        22.0525   58.1252   16.5609  C     
14   C        20.7987   57.3390   16.1578  C     
15   C        20.2227   54.9764   16.5241  C     
16   C        18.7684   55.1369   16.6556  C     
17   O        20.6122   53.8137   16.5130  O     
18   C        17.9950   54.3025   15.5671  C     
19   C        18.2763   54.8486   18.1128  C     
20   N        16.9655   55.0966   14.9529  N     
21   O        15.8474   55.2817   15.6104  O     
22   C        17.2044   55.8328   13.8801  C     
23   O        16.4482   56.7211   13.5213  O     
24   C        18.9427   55.4369   19.3218  C     
25   C        19.9529   56.4413   19.3509  C     
26   C        20.4880   56.9007   20.5744  C     
27   C        19.9998   56.4028   21.7946  C     
28   C        18.9783   55.4448   21.7932  C     
29   C        18.4586   54.9680   20.5762  C     
30   H        22.8517   55.4343   21.7894  H     
31   H        23.5429   53.3966   22.9426  H     
32   H        24.2070   51.4352   21.6741  H     
33   H        24.1705   51.4885   19.2264  H     
34   H        22.8615   55.0978   15.6528  H     
35   H        24.0502   57.3180   16.9583  H     
36   H        23.5388   57.2620   15.2603  H     
37   H        22.0116   58.3744   17.6260  H     
38   H        22.1516   59.0441   15.9879  H     
39   H        20.5745   57.4779   15.0930  H     
40   H        19.9461   57.6709   16.7478  H     
41   H        18.4800   56.1714   16.4969  H     
42   H        18.6644   53.9258   14.7889  H     
43   H        17.5450   53.4040   16.0032  H     
44   H        17.2182   55.1367   18.1679  H     
45   H        18.3055   53.7627   18.2247  H     
46   H        15.4735   54.3827   15.7269  H     
47   H        18.0568   55.7528   13.3893  H     
48   H        20.3517   56.8839   18.5105  H     
49   H        21.2185   57.6164   20.5775  H     
50   H        20.3747   56.7529   22.6799  H     
51   H        18.6040   55.0781   22.6794  H     
52   H        17.7050   54.2722   20.6204  H     
@<TRIPOS>BOND
     1    1    2 1
     2    1    4 1
     3    2    3 2
     4   11    2 1
     5    3    5 1
     6    4    5 2
     7    4    9 1
     8    5    6 1
     9    6    7 2
    10    7    8 1
    11    8    9 2
    12   10   11 1
    13   10   14 1
    14   10   15 am
    15   11   12 1
    16   12   13 1
    17   13   14 1
    18   15   16 1
    19   15   17 2
    20   16   18 1
    21   16   19 1
    22   18   20 1
    23   19   24 1
    24   20   21 1
    25   20   22 am
    26   22   23 2
    27   24   25 2
    28   24   29 1
    29   25   26 1
    30   26   27 2
    31   27   28 1
    32   28   29 2
    33    6   30 1
    34    7   31 1
    35    8   32 1
    36    9   33 1
    37   11   34 1
    38   12   35 1
    39   12   36 1
    40   13   37 1
    41   13   38 1
    42   14   39 1
    43   14   40 1
    44   16   41 1
    45   18   42 1
    46   18   43 1
    47   19   44 1
    48   19   45 1
    49   21   46 1
    50   22   47 1
    51   25   48 1
    52   26   49 1
    53   27   50 1
    54   28   51 1
    55   29   52 1
@<TRIPOS>PROPERTY_DATA
  Total_Score	| 9.6780
  Crash		| -2.5460
  Polar		| 6.5889
  FragIndex	| 1
  FragRMSD	| 0.823

