@<TRIPOS>MOLECULE
BindingDB_50255064
 48 50 0 0 0
SMALL
NO_CHARGES


@<TRIPOS>ATOM
1    O        22.7139   55.4656   19.1169  O     
2    C        22.9196   54.9746   17.8688  C     
3    N        23.4124   53.7198   17.9193  N     
4    C        23.1032   54.5007   19.9679  C     
5    C        23.5376   53.4114   19.2127  C     
6    C        24.0024   52.2417   19.8412  C     
7    C        24.0410   52.1967   21.2526  C     
8    C        23.6156   53.3083   22.0138  C     
9    C        23.1350   54.4703   21.3699  C     
10   N        21.2734   56.1051   16.4809  N     
11   C        22.6576   55.7347   16.6246  C     
12   C        23.4680   57.0572   16.6003  C     
13   C        22.4954   58.0574   15.9730  C     
14   C        21.1111   57.5322   16.3760  C     
15   C        20.2678   55.2141   16.3662  C     
16   C        18.8258   55.5393   16.3644  C     
17   O        20.5336   54.0234   16.2204  O     
18   C        18.1585   55.2194   14.9673  C     
19   C        18.0734   54.8342   17.5339  C     
20   C        18.6370   55.1569   18.9485  C     
21   C        17.7034   54.6214   20.0653  C     
22   C        18.2124   54.9728   21.4815  C     
23   C        16.9558   56.0419   14.6753  C     
24   O        16.8073   56.6734   13.4873  O     
25   O        15.8239   55.9221   15.4113  O     
26   H        24.3161   51.4454   19.2841  H     
27   H        24.3835   51.3548   21.7248  H     
28   H        23.6582   53.2706   23.0323  H     
29   H        22.8204   55.2711   21.9120  H     
30   H        22.9471   55.1333   15.7579  H     
31   H        23.7376   57.4068   17.6010  H     
32   H        24.3791   56.9601   16.0084  H     
33   H        22.6699   59.0779   16.3225  H     
34   H        22.6007   58.0260   14.8837  H     
35   H        20.3879   57.8279   15.6088  H     
36   H        20.8084   57.9486   17.3450  H     
37   H        18.7005   56.6104   16.5330  H     
38   H        18.8879   55.4191   14.1752  H     
39   H        17.8871   54.1528   14.9062  H     
40   H        17.0221   55.1619   17.5164  H     
41   H        18.0736   53.7444   17.3936  H     
42   H        19.6315   54.7041   19.0585  H     
43   H        18.7353   56.2419   19.0583  H     
44   H        16.7069   55.0598   19.9392  H     
45   H        17.6172   53.5329   19.9823  H     
46   H        19.1878   54.5075   21.6577  H     
47   H        17.5029   54.5969   22.2277  H     
48   H        18.3063   56.0576   21.5955  H     
@<TRIPOS>BOND
     1    1    2 1
     2    1    4 1
     3    2    3 2
     4   11    2 1
     5    3    5 1
     6    4    5 2
     7    4    9 1
     8    5    6 1
     9    6    7 2
    10    7    8 1
    11    8    9 2
    12   10   11 1
    13   10   14 1
    14   10   15 am
    15   11   12 1
    16   12   13 1
    17   13   14 1
    18   15   16 1
    19   15   17 2
    20   16   18 1
    21   16   19 1
    22   18   23 1
    23   19   20 1
    24   20   21 1
    25   21   22 1
    26   23   24 1
    27   23   25 2
    28    6   26 1
    29    7   27 1
    30    8   28 1
    31    9   29 1
    32   11   30 1
    33   12   31 1
    34   12   32 1
    35   13   33 1
    36   13   34 1
    37   14   35 1
    38   14   36 1
    39   16   37 1
    40   18   38 1
    41   18   39 1
    42   19   40 1
    43   19   41 1
    44   20   42 1
    45   20   43 1
    46   21   44 1
    47   21   45 1
    48   22   46 1
    49   22   47 1
    50   22   48 1
@<TRIPOS>PROPERTY_DATA
  Total_Score	| 11.7372
  Crash		| -1.1589
  Polar		| 7.3971
  FragIndex	| 1
  FragRMSD	| 1.332

