@<TRIPOS>MOLECULE
BindingDB_50255066
 48 50 0 0 0
SMALL
NO_CHARGES


@<TRIPOS>ATOM
1    O        23.4883   53.6995   18.0440  O     
2    C        23.0459   54.9857   18.0042  C     
3    N        22.8975   55.4687   19.2513  N     
4    C        23.6232   53.3875   19.3491  C     
5    C        23.2646   54.5048   20.0946  C     
6    C        23.3051   54.4854   21.4962  C     
7    C        23.7076   53.3019   22.1399  C     
8    C        24.0627   52.1603   21.3873  C     
9    C        24.0111   52.1945   19.9764  C     
10   N        21.3064   56.1091   16.7892  N     
11   C        22.6997   55.7298   16.7758  C     
12   C        23.4860   57.0474   16.6064  C     
13   C        22.5311   58.1223   17.1476  C     
14   C        21.1292   57.5263   16.9430  C     
15   C        20.3016   55.2273   16.6295  C     
16   C        18.8613   55.5332   16.6635  C     
17   O        20.5776   54.0532   16.4046  O     
18   C        18.2829   55.5154   15.3190  C     
19   C        18.0460   54.6084   17.6319  C     
20   C        18.5622   54.5675   19.1044  C     
21   C        18.3342   55.8411   19.9755  C     
22   C        16.9015   55.9616   20.5520  C     
23   N        17.3076   56.3652   15.0213  N     
24   O        16.6738   56.4334   13.8798  O     
25   O        18.6278   54.6817   14.4942  O     
26   H        23.0492   55.3193   22.0286  H     
27   H        23.7355   53.2747   23.1614  H     
28   H        24.3299   51.3053   21.8718  H     
29   H        24.2557   51.3696   19.4358  H     
30   H        22.9144   55.0964   15.9101  H     
31   H        24.4502   57.0434   17.1274  H     
32   H        23.6752   57.2399   15.5474  H     
33   H        22.7139   58.2906   18.2059  H     
34   H        22.6660   59.0736   16.6246  H     
35   H        20.6720   57.9369   16.0422  H     
36   H        20.5103   57.7644   17.8040  H     
37   H        18.7244   56.5484   17.0513  H     
38   H        17.0061   54.9476   17.6547  H     
39   H        18.0195   53.5817   17.2420  H     
40   H        18.0865   53.7166   19.6147  H     
41   H        19.6414   54.3795   19.0897  H     
42   H        19.0521   55.8509   20.7988  H     
43   H        18.5500   56.7200   19.3542  H     
44   H        16.1720   55.5605   19.8477  H     
45   H        16.6735   57.0230   20.7199  H     
46   H        16.8173   55.4104   21.4976  H     
47   H        17.0279   56.9952   15.7057  H     
48   H        17.0534   55.7307   13.3065  H     
@<TRIPOS>BOND
     1    1    2 1
     2    1    4 1
     3    2    3 2
     4   11    2 1
     5    3    5 1
     6    4    5 2
     7    4    9 1
     8    5    6 1
     9    6    7 2
    10    7    8 1
    11    8    9 2
    12   10   11 1
    13   10   14 1
    14   10   15 am
    15   11   12 1
    16   12   13 1
    17   13   14 1
    18   15   16 1
    19   15   17 2
    20   16   18 1
    21   16   19 1
    22   18   23 am
    23   18   25 2
    24   19   20 1
    25   20   21 1
    26   21   22 1
    27   23   24 1
    28    6   26 1
    29    7   27 1
    30    8   28 1
    31    9   29 1
    32   11   30 1
    33   12   31 1
    34   12   32 1
    35   13   33 1
    36   13   34 1
    37   14   35 1
    38   14   36 1
    39   16   37 1
    40   19   38 1
    41   19   39 1
    42   20   40 1
    43   20   41 1
    44   21   42 1
    45   21   43 1
    46   22   44 1
    47   22   45 1
    48   22   46 1
    49   23   47 1
    50   24   48 1
@<TRIPOS>PROPERTY_DATA
  Total_Score	| 8.2806
  Crash		| -1.1155
  Polar		| 3.8923
  FragIndex	| 1
  FragRMSD	| 0.674

