@<TRIPOS>MOLECULE
BindingDB_50255000
 52 54 0 0 0
SMALL
NO_CHARGES


@<TRIPOS>ATOM
1    N        23.4827   53.7203   18.1646  N     
2    C        23.1402   55.0222   18.1732  C     
3    N        23.1155   55.4799   19.4431  N     
4    C        23.6768   53.3317   19.4269  C     
5    C        23.4610   54.4490   20.2328  C     
6    C        23.6156   54.3689   21.6264  C     
7    C        23.9882   53.1326   22.1975  C     
8    C        24.1801   51.9957   21.3834  C     
9    C        24.0174   52.0874   19.9836  C     
10   N        21.3404   55.9952   16.8129  N     
11   C        22.7672   55.8023   16.9672  C     
12   C        23.3896   57.2189   16.9884  C     
13   C        22.3412   58.0899   16.2925  C     
14   C        21.0116   57.3780   16.5912  C     
15   C        20.4474   54.9826   16.8088  C     
16   C        18.9771   55.1012   16.7745  C     
17   O        20.8690   53.8325   16.8536  O     
18   C        18.3666   54.1855   15.6505  C     
19   C        18.3627   54.8273   18.1983  C     
20   C        18.1192   56.1269   19.0233  C     
21   C        17.3932   55.9253   20.3886  C     
22   C        18.0525   54.8574   21.2921  C     
23   N        17.3004   54.8257   14.9224  N     
24   O        16.1653   54.1903   14.7006  O     
25   C        17.4709   56.0231   14.3834  C     
26   O        16.5490   56.6330   13.8602  O     
27   H        23.5470   53.1531   17.3807  H     
28   H        23.4677   55.1944   22.2147  H     
29   H        24.1172   53.0637   23.2068  H     
30   H        24.4354   51.1038   21.8056  H     
31   H        24.1476   51.2696   19.3847  H     
32   H        23.1272   55.2759   16.0766  H     
33   H        23.5353   57.5931   18.0074  H     
34   H        24.3485   57.2499   16.4642  H     
35   H        22.3450   59.1154   16.6674  H     
36   H        22.5298   58.1019   15.2156  H     
37   H        20.3427   57.5137   15.7332  H     
38   H        20.5428   57.7970   17.4856  H     
39   H        18.6997   56.1276   16.5279  H     
40   H        19.1295   53.9165   14.9131  H     
41   H        18.0160   53.2479   16.0941  H     
42   H        17.4044   54.3121   18.0846  H     
43   H        19.0166   54.1585   18.7630  H     
44   H        19.0765   56.6194   19.1948  H     
45   H        17.5200   56.8023   18.4054  H     
46   H        17.4097   56.8680   20.9377  H     
47   H        16.3494   55.6570   20.2297  H     
48   H        18.1408   53.8990   20.7697  H     
49   H        17.4494   54.7090   22.1871  H     
50   H        19.0526   55.1829   21.5993  H     
51   H        15.7463   54.0260   15.5765  H     
52   H        18.3412   56.4899   14.4785  H     
@<TRIPOS>BOND
     1    1    2 1
     2    1    4 1
     3    2    3 2
     4   11    2 1
     5    3    5 1
     6    4    5 2
     7    4    9 1
     8    5    6 1
     9    6    7 2
    10    7    8 1
    11    8    9 2
    12   10   11 1
    13   10   14 1
    14   10   15 am
    15   11   12 1
    16   12   13 1
    17   13   14 1
    18   15   16 1
    19   15   17 2
    20   16   18 1
    21   16   19 1
    22   18   23 1
    23   19   20 1
    24   20   21 1
    25   21   22 1
    26   23   24 1
    27   23   25 am
    28   25   26 2
    29    1   27 1
    30    6   28 1
    31    7   29 1
    32    8   30 1
    33    9   31 1
    34   11   32 1
    35   12   33 1
    36   12   34 1
    37   13   35 1
    38   13   36 1
    39   14   37 1
    40   14   38 1
    41   16   39 1
    42   18   40 1
    43   18   41 1
    44   19   42 1
    45   19   43 1
    46   20   44 1
    47   20   45 1
    48   21   46 1
    49   21   47 1
    50   22   48 1
    51   22   49 1
    52   22   50 1
    53   24   51 1
    54   25   52 1
@<TRIPOS>PROPERTY_DATA
  Total_Score	| 10.6612
  Crash		| -1.6395
  Polar		| 6.4388
  FragIndex	| 1
  FragRMSD	| 0.942

