@<TRIPOS>MOLECULE
BindingDB_50255001
 49 51 0 0 0
SMALL
NO_CHARGES


@<TRIPOS>ATOM
1    N        23.4894   53.6793   18.2577  N     
2    C        23.1231   54.9767   18.2139  C     
3    N        23.0875   55.4776   19.4665  N     
4    C        23.6736   53.3424   19.5381  C     
5    C        23.4514   54.4898   20.2942  C     
6    C        23.5844   54.4692   21.6941  C     
7    C        23.9795   53.2639   22.3142  C     
8    C        24.1973   52.0951   21.5485  C     
9    C        24.0559   52.1313   20.1419  C     
10   N        21.3112   55.8823   16.9246  N     
11   C        22.7360   55.7144   16.9823  C     
12   C        23.3177   57.1470   16.9235  C     
13   C        22.2067   58.0184   17.5195  C     
14   C        20.9249   57.2445   17.1735  C     
15   C        20.4676   54.8544   16.6915  C     
16   C        19.0000   54.9829   16.6926  C     
17   O        20.9164   53.7191   16.5418  O     
18   C        18.3068   54.1097   15.5738  C     
19   C        18.4248   54.7518   18.1368  C     
20   C        17.5554   55.9081   18.7080  C     
21   C        17.4986   55.9262   20.2693  C     
22   N        17.2398   54.8014   14.8817  N     
23   O        16.1103   54.1927   14.6069  O     
24   C        17.4145   56.0101   14.3683  C     
25   O        16.5160   56.6400   13.8369  O     
26   H        23.5583   53.0772   17.4962  H     
27   H        23.4210   55.3113   22.2453  H     
28   H        24.0904   53.2319   23.3281  H     
29   H        24.4636   51.2261   22.0073  H     
30   H        24.2040   51.2935   19.5767  H     
31   H        23.1006   55.1607   16.1070  H     
32   H        24.2576   57.2623   17.4700  H     
33   H        23.4804   57.4362   15.8799  H     
34   H        22.3219   58.0873   18.6044  H     
35   H        22.2062   59.0240   17.0951  H     
36   H        20.4655   57.6728   16.2804  H     
37   H        20.2215   57.3142   18.0060  H     
38   H        18.7824   56.0144   16.4263  H     
39   H        19.0343   53.8269   14.8033  H     
40   H        17.9242   53.1822   16.0071  H     
41   H        17.8227   53.8405   18.1619  H     
42   H        19.2534   54.5797   18.8451  H     
43   H        17.9535   56.8732   18.3936  H     
44   H        16.5225   55.8201   18.3362  H     
45   H        17.1271   54.9812   20.6571  H     
46   H        16.8535   56.7342   20.6212  H     
47   H        18.5115   56.1010   20.6708  H     
48   H        15.6541   54.0143   15.4605  H     
49   H        18.2883   56.4770   14.4449  H     
@<TRIPOS>BOND
     1    1    2 1
     2    1    4 1
     3    2    3 2
     4   11    2 1
     5    3    5 1
     6    4    5 2
     7    4    9 1
     8    5    6 1
     9    6    7 2
    10    7    8 1
    11    8    9 2
    12   10   11 1
    13   10   14 1
    14   10   15 am
    15   11   12 1
    16   12   13 1
    17   13   14 1
    18   15   16 1
    19   15   17 2
    20   16   18 1
    21   16   19 1
    22   18   22 1
    23   19   20 1
    24   20   21 1
    25   22   23 1
    26   22   24 am
    27   24   25 2
    28    1   26 1
    29    6   27 1
    30    7   28 1
    31    8   29 1
    32    9   30 1
    33   11   31 1
    34   12   32 1
    35   12   33 1
    36   13   34 1
    37   13   35 1
    38   14   36 1
    39   14   37 1
    40   16   38 1
    41   18   39 1
    42   18   40 1
    43   19   41 1
    44   19   42 1
    45   20   43 1
    46   20   44 1
    47   21   45 1
    48   21   46 1
    49   21   47 1
    50   23   48 1
    51   24   49 1
@<TRIPOS>PROPERTY_DATA
  Total_Score	| 10.3399
  Crash		| -1.3337
  Polar		| 6.6502
  FragIndex	| 1
  FragRMSD	| 0.929

