@<TRIPOS>MOLECULE
BindingDB_50255031
 48 50 0 0 0
SMALL
NO_CHARGES


@<TRIPOS>ATOM
1    O        23.3403   53.7188   18.0764  O     
2    C        22.8854   55.0055   18.0695  C     
3    N        22.7789   55.4939   19.3380  N     
4    C        23.5430   53.3953   19.3740  C     
5    C        23.1984   54.5124   20.1546  C     
6    C        23.3552   54.4485   21.5652  C     
7    C        23.7880   53.2438   22.1625  C     
8    C        24.1088   52.1198   21.3575  C     
9    C        23.9871   52.1903   19.9474  C     
10   N        21.0759   55.9612   16.7173  N     
11   C        22.5005   55.7137   16.8143  C     
12   C        23.1926   57.0974   16.6219  C     
13   C        22.0793   57.9964   16.0569  C     
14   C        20.7805   57.3641   16.5861  C     
15   C        20.1537   54.9842   16.6621  C     
16   C        18.7081   55.1637   16.8673  C     
17   O        20.5467   53.8281   16.5410  O     
18   C        17.8146   54.3363   15.8482  C     
19   C        18.3661   54.8719   18.3773  C     
20   C        17.3461   55.8449   19.0329  C     
21   C        17.4202   55.8731   20.5837  C     
22   N        16.9123   55.1856   15.1010  N     
23   O        15.6434   55.2689   15.4234  O     
24   C        17.3324   55.9141   14.0798  C     
25   O        16.6215   56.7410   13.5252  O     
26   H        23.1335   55.2672   22.1322  H     
27   H        23.8800   53.1895   23.1885  H     
28   H        24.4189   51.2618   21.8074  H     
29   H        24.2230   51.3781   19.3630  H     
30   H        22.8047   55.0933   15.9613  H     
31   H        23.5511   57.5187   17.5723  H     
32   H        24.0527   57.0427   15.9310  H     
33   H        22.1910   59.0454   16.3585  H     
34   H        22.0961   57.9374   14.9599  H     
35   H        19.9919   57.5979   15.8601  H     
36   H        20.5133   57.7977   17.5543  H     
37   H        18.4645   56.2136   16.7435  H     
38   H        18.4370   53.7550   15.1468  H     
39   H        17.2308   53.5640   16.3685  H     
40   H        17.9833   53.8542   18.4936  H     
41   H        19.2909   54.9335   18.9652  H     
42   H        17.5128   56.8668   18.6814  H     
43   H        16.3238   55.5615   18.7552  H     
44   H        17.2944   54.8567   20.9679  H     
45   H        16.6301   56.4999   20.9881  H     
46   H        18.3809   56.2671   20.9286  H     
47   H        15.3289   54.3642   15.6284  H     
48   H        18.2599   55.7788   13.7453  H     
@<TRIPOS>BOND
     1    1    2 1
     2    1    4 1
     3    2    3 2
     4   11    2 1
     5    3    5 1
     6    4    5 2
     7    4    9 1
     8    5    6 1
     9    6    7 2
    10    7    8 1
    11    8    9 2
    12   10   11 1
    13   10   14 1
    14   10   15 am
    15   11   12 1
    16   12   13 1
    17   13   14 1
    18   15   16 1
    19   15   17 2
    20   16   18 1
    21   16   19 1
    22   18   22 1
    23   19   20 1
    24   20   21 1
    25   22   23 1
    26   22   24 am
    27   24   25 2
    28    6   26 1
    29    7   27 1
    30    8   28 1
    31    9   29 1
    32   11   30 1
    33   12   31 1
    34   12   32 1
    35   13   33 1
    36   13   34 1
    37   14   35 1
    38   14   36 1
    39   16   37 1
    40   18   38 1
    41   18   39 1
    42   19   40 1
    43   19   41 1
    44   20   42 1
    45   20   43 1
    46   21   44 1
    47   21   45 1
    48   21   46 1
    49   23   47 1
    50   24   48 1
@<TRIPOS>PROPERTY_DATA
  Total_Score	| 10.9387
  Crash		| -1.4780
  Polar		| 7.0857
  FragIndex	| 1
  FragRMSD	| 0.972

