@<TRIPOS>MOLECULE
BindingDB_50255032
 54 56 0 0 0
SMALL
NO_CHARGES


@<TRIPOS>ATOM
1    O        23.4416   53.7644   17.8284  O     
2    C        22.9795   55.0483   17.7880  C     
3    N        22.7786   55.5376   19.0307  N     
4    C        23.5313   53.4604   19.1346  C     
5    C        23.1205   54.5642   19.8846  C     
6    C        23.1199   54.5280   21.2833  C     
7    C        23.5397   53.3431   21.9316  C     
8    C        23.9476   52.2203   21.1724  C     
9    C        23.9465   52.2727   19.7696  C     
10   N        21.2535   56.0479   16.4684  N     
11   C        22.6627   55.7505   16.5263  C     
12   C        23.3808   57.1169   16.3766  C     
13   C        22.3518   58.1202   16.9132  C     
14   C        20.9929   57.4542   16.6443  C     
15   C        20.3073   55.1034   16.2914  C     
16   C        18.8561   55.3333   16.3829  C     
17   O        20.6512   53.9313   16.1480  O     
18   C        18.1259   54.7950   15.1066  C     
19   C        18.2643   54.7235   17.6979  C     
20   C        19.1184   54.9501   18.9931  C     
21   C        18.4877   54.3776   20.3017  C     
22   N        16.9806   55.5750   14.7057  N     
23   O        17.1620   56.8554   14.4928  O     
24   C        15.7730   55.0712   14.4896  C     
25   O        14.8485   55.7813   14.1127  O     
26   C        17.7911   55.4116   21.2251  C     
27   C        16.9267   56.4597   20.4831  C     
28   H        22.8243   55.3442   21.8278  H     
29   H        23.5513   53.3010   22.9501  H     
30   H        24.2443   51.3645   21.6506  H     
31   H        24.2376   51.4638   19.2052  H     
32   H        22.9535   55.1195   15.6717  H     
33   H        24.3269   57.1614   16.9235  H     
34   H        23.5736   57.3170   15.3161  H     
35   H        22.4997   58.2552   17.9883  H     
36   H        22.4396   59.0855   16.4147  H     
37   H        20.5326   57.8661   15.7329  H     
38   H        20.3355   57.6307   17.5032  H     
39   H        18.6468   56.3963   16.4428  H     
40   H        18.8149   54.8012   14.2606  H     
41   H        17.8572   53.7459   15.2780  H     
42   H        17.2767   55.1687   17.8768  H     
43   H        18.1180   53.6439   17.5452  H     
44   H        20.1077   54.4891   18.8787  H     
45   H        19.2803   56.0327   19.1062  H     
46   H        17.7672   53.5836   20.0803  H     
47   H        19.2872   53.9141   20.8939  H     
48   H        17.1215   57.2402   15.3917  H     
49   H        15.6023   54.1030   14.5969  H     
50   H        17.1573   54.8623   21.9360  H     
51   H        18.5457   55.9435   21.8091  H     
52   H        17.5817   57.1891   19.9828  H     
53   H        16.2922   56.9848   21.2137  H     
54   H        16.2900   55.9708   19.7349  H     
@<TRIPOS>BOND
     1    1    2 1
     2    1    4 1
     3    2    3 2
     4   11    2 1
     5    3    5 1
     6    4    5 2
     7    4    9 1
     8    5    6 1
     9    6    7 2
    10    7    8 1
    11    8    9 2
    12   10   11 1
    13   10   14 1
    14   10   15 am
    15   11   12 1
    16   12   13 1
    17   13   14 1
    18   15   16 1
    19   15   17 2
    20   16   18 1
    21   16   19 1
    22   18   22 1
    23   19   20 1
    24   20   21 1
    25   21   26 1
    26   22   23 1
    27   22   24 am
    28   24   25 2
    29   26   27 1
    30    6   28 1
    31    7   29 1
    32    8   30 1
    33    9   31 1
    34   11   32 1
    35   12   33 1
    36   12   34 1
    37   13   35 1
    38   13   36 1
    39   14   37 1
    40   14   38 1
    41   16   39 1
    42   18   40 1
    43   18   41 1
    44   19   42 1
    45   19   43 1
    46   20   44 1
    47   20   45 1
    48   21   46 1
    49   21   47 1
    50   23   48 1
    51   24   49 1
    52   26   50 1
    53   26   51 1
    54   27   52 1
    55   27   53 1
    56   27   54 1
@<TRIPOS>PROPERTY_DATA
  Total_Score	| 10.5723
  Crash		| -1.5832
  Polar		| 4.9410
  FragIndex	| 1
  FragRMSD	| 0.405

