@<TRIPOS>MOLECULE
BindingDB_50255003
 50 53 0 0 0
SMALL
NO_CHARGES


@<TRIPOS>ATOM
1    N        23.3321   53.6613   17.9192  N     
2    C        22.8713   54.9239   17.8922  C     
3    N        22.7332   55.3958   19.1468  N     
4    C        23.5082   53.3196   19.1973  C     
5    C        23.1343   54.4178   19.9700  C     
6    C        23.2116   54.3773   21.3703  C     
7    C        23.6903   53.1999   21.9859  C     
8    C        24.0665   52.0838   21.2056  C     
9    C        23.9673   52.1344   19.7971  C     
10   N        21.0618   55.9971   16.7643  N     
11   C        22.4589   55.6538   16.6698  C     
12   C        23.2073   56.9897   16.4527  C     
13   C        22.2682   58.0473   17.0434  C     
14   C        20.8699   57.4194   16.9027  C     
15   C        20.0735   55.0811   16.7123  C     
16   C        18.6442   55.3832   16.8876  C     
17   O        20.3714   53.9023   16.5480  O     
18   C        17.6748   54.4380   16.0979  C     
19   C        18.2255   55.5534   18.3964  C     
20   C        19.0977   54.8376   19.4733  C     
21   N        16.8435   55.1913   15.2015  N     
22   O        15.5928   55.3703   15.5395  O     
23   C        17.3478   55.8904   14.1855  C     
24   O        16.6735   56.7004   13.5486  O     
25   C        19.2173   55.5256   20.8504  C     
26   C        18.4371   54.2166   20.7189  C     
27   H        23.4835   53.0912   17.1517  H     
28   H        22.9451   55.1898   21.9308  H     
29   H        23.7675   53.1597   23.0068  H     
30   H        24.4070   51.2352   21.6646  H     
31   H        24.2337   51.3292   19.2277  H     
32   H        22.6330   55.0220   15.7921  H     
33   H        24.1911   57.0099   16.9261  H     
34   H        23.3308   57.1794   15.3813  H     
35   H        22.4999   58.2067   18.1000  H     
36   H        22.3378   59.0003   16.5108  H     
37   H        20.3637   57.8167   16.0138  H     
38   H        20.2862   57.6705   17.7914  H     
39   H        18.5112   56.3640   16.4248  H     
40   H        18.2446   53.7110   15.5150  H     
41   H        17.0522   53.8608   16.7879  H     
42   H        18.2089   56.6158   18.6402  H     
43   H        17.1956   55.2201   18.5349  H     
44   H        20.0419   54.3830   19.1669  H     
45   H        15.2178   54.4681   15.6400  H     
46   H        18.3004   55.8015   13.9308  H     
47   H        20.1900   55.4477   21.3494  H     
48   H        18.5956   56.4075   21.0296  H     
49   H        17.3553   54.3161   20.7986  H     
50   H        18.9241   53.3330   21.1329  H     
@<TRIPOS>BOND
     1    1    2 1
     2    1    4 1
     3    2    3 2
     4   11    2 1
     5    3    5 1
     6    4    5 2
     7    4    9 1
     8    5    6 1
     9    6    7 2
    10    7    8 1
    11    8    9 2
    12   10   11 1
    13   10   14 1
    14   10   15 am
    15   11   12 1
    16   12   13 1
    17   13   14 1
    18   15   16 1
    19   15   17 2
    20   16   18 1
    21   16   19 1
    22   18   21 1
    23   19   20 1
    24   20   25 1
    25   20   26 1
    26   21   22 1
    27   21   23 am
    28   23   24 2
    29   25   26 1
    30    1   27 1
    31    6   28 1
    32    7   29 1
    33    8   30 1
    34    9   31 1
    35   11   32 1
    36   12   33 1
    37   12   34 1
    38   13   35 1
    39   13   36 1
    40   14   37 1
    41   14   38 1
    42   16   39 1
    43   18   40 1
    44   18   41 1
    45   19   42 1
    46   19   43 1
    47   20   44 1
    48   22   45 1
    49   23   46 1
    50   25   47 1
    51   25   48 1
    52   26   49 1
    53   26   50 1
@<TRIPOS>PROPERTY_DATA
  Total_Score	| 10.1825
  Crash		| -1.6424
  Polar		| 7.2044
  FragIndex	| 1
  FragRMSD	| 0.429

