@<TRIPOS>MOLECULE
BindingDB_50255002
 55 57 0 0 0
SMALL
NO_CHARGES


@<TRIPOS>ATOM
1    N        22.8374   55.4865   19.1531  N     
2    C        22.9696   55.0414   17.8861  C     
3    N        23.4146   53.7693   17.8985  N     
4    C        23.1961   54.4991   19.9820  C     
5    C        23.5628   53.4187   19.1832  C     
6    C        23.9956   52.2085   19.7499  C     
7    C        24.0614   52.1088   21.1559  C     
8    C        23.6885   53.2038   21.9684  C     
9    C        23.2476   54.4113   21.3843  C     
10   N        21.2344   56.0889   16.5645  N     
11   C        22.6441   55.7964   16.6492  C     
12   C        23.3546   57.1679   16.5775  C     
13   C        22.3056   58.1575   17.0938  C     
14   C        20.9697   57.4955   16.7201  C     
15   C        20.2922   55.1445   16.3617  C     
16   C        18.8373   55.3759   16.4058  C     
17   O        20.6377   53.9695   16.2556  O     
18   C        18.1573   54.8373   15.1008  C     
19   C        18.1949   54.7789   17.7070  C     
20   C        19.0432   54.9403   19.0200  C     
21   C        18.4308   54.3539   20.3336  C     
22   N        16.9974   55.5874   14.7008  N     
23   O        17.1593   56.8654   14.4678  O     
24   C        15.7985   55.0580   14.4963  C     
25   O        14.8663   55.7454   14.1012  O     
26   C        17.7590   55.3791   21.2864  C     
27   C        16.9025   56.4195   20.5421  C     
28   H        22.5230   56.3648   19.4192  H     
29   H        24.2597   51.4196   19.1558  H     
30   H        24.3768   51.2380   21.5898  H     
31   H        23.7381   53.1214   22.9859  H     
32   H        22.9731   55.2055   21.9655  H     
33   H        22.9558   55.2097   15.7781  H     
34   H        24.2765   57.2103   17.1647  H     
35   H        23.5956   57.4109   15.5372  H     
36   H        22.3887   58.2583   18.1800  H     
37   H        22.4148   59.1430   16.6347  H     
38   H        20.5960   57.9085   15.7767  H     
39   H        20.2451   57.6926   17.5155  H     
40   H        18.6316   56.4448   16.4406  H     
41   H        18.8688   54.9001   14.2724  H     
42   H        17.9237   53.7733   15.2270  H     
43   H        17.2250   55.2607   17.8740  H     
44   H        17.9874   53.7295   17.5060  H     
45   H        20.0051   54.4522   18.8973  H     
46   H        19.2728   56.0007   19.1541  H     
47   H        17.7151   53.5620   20.0991  H     
48   H        19.2318   53.8780   20.9090  H     
49   H        17.1313   57.2673   15.3585  H     
50   H        15.6401   54.0855   14.6079  H     
51   H        17.1160   54.8369   21.9857  H     
52   H        18.5275   55.8972   21.8689  H     
53   H        17.5452   57.0519   19.9408  H     
54   H        16.3657   57.0498   21.2487  H     
55   H        16.1921   55.9115   19.8849  H     
@<TRIPOS>BOND
     1    1    2 1
     2    1    4 1
     3    2    3 2
     4   11    2 1
     5    3    5 1
     6    4    5 2
     7    4    9 1
     8    5    6 1
     9    6    7 2
    10    7    8 1
    11    8    9 2
    12   10   11 1
    13   10   14 1
    14   10   15 am
    15   11   12 1
    16   12   13 1
    17   13   14 1
    18   15   16 1
    19   15   17 2
    20   16   18 1
    21   16   19 1
    22   18   22 1
    23   19   20 1
    24   20   21 1
    25   21   26 1
    26   22   23 1
    27   22   24 am
    28   24   25 2
    29   26   27 1
    30    1   28 1
    31    6   29 1
    32    7   30 1
    33    8   31 1
    34    9   32 1
    35   11   33 1
    36   12   34 1
    37   12   35 1
    38   13   36 1
    39   13   37 1
    40   14   38 1
    41   14   39 1
    42   16   40 1
    43   18   41 1
    44   18   42 1
    45   19   43 1
    46   19   44 1
    47   20   45 1
    48   20   46 1
    49   21   47 1
    50   21   48 1
    51   23   49 1
    52   24   50 1
    53   26   51 1
    54   26   52 1
    55   27   53 1
    56   27   54 1
    57   27   55 1
@<TRIPOS>PROPERTY_DATA
  Total_Score	| 9.9812
  Crash		| -1.8573
  Polar		| 4.9369
  FragIndex	| 1
  FragRMSD	| 0.897

