@<TRIPOS>MOLECULE
BindingDB_50223387
 51 53 0 0 0
SMALL
NO_CHARGES


@<TRIPOS>ATOM
1    C        12.4308   11.4016  142.3347  C     
2    C        12.8575   12.7671  141.7096  C     
3    C        13.6646   10.7374  143.0221  C     
4    C        13.9858   12.5341  140.6559  C     
5    C        14.7785   10.4943  141.9589  C     
6    C        15.2380   11.8535  141.3097  C     
7    C        14.2076   11.6766  144.1429  C     
8    C        14.6329   13.0416  143.5150  C     
9    C        13.4040   13.7131  142.8239  C     
10   C        15.7569   12.7932  142.4550  C     
11   N        16.2376   11.8003  140.2704  N     
12   C        16.8841   10.7940  139.7170  C     
13   N        17.4507   11.0737  138.5574  N     
14   O        16.8840    9.6512  140.1587  O     
15   C        17.9011   10.1273  137.5766  C     
16   C        16.8158    9.9650  136.4714  C     
17   C        17.0771   10.7842  135.1708  C     
18   C        17.6634    9.9467  133.9906  C     
19   C        17.3495   10.5082  132.5713  C     
20   C        15.9068   10.2639  132.0695  C     
21   O        15.6817    8.8925  131.7662  O     
22   H        11.6325   11.5601  143.0693  H     
23   H        12.0337   10.7387  141.5577  H     
24   H        11.9965   13.2308  141.2223  H     
25   H        13.3691    9.7809  143.4612  H     
26   H        14.2647   13.4958  140.2192  H     
27   H        13.6163   11.9052  139.8411  H     
28   H        15.6270    9.9981  142.4310  H     
29   H        14.3800    9.8207  141.2007  H     
30   H        13.4320   11.8364  144.8956  H     
31   H        15.0592   11.2128  144.6515  H     
32   H        15.0065   13.6997  144.3016  H     
33   H        13.6909   14.6755  142.3972  H     
34   H        12.6193   13.9103  143.5542  H     
35   H        16.6175   12.3225  142.9401  H     
36   H        16.0858   13.7542  142.0451  H     
37   H        16.3880   12.6449  139.8254  H     
38   H        17.3865   11.9984  138.2647  H     
39   H        18.8427   10.4745  137.1416  H     
40   H        18.0950    9.1444  138.0178  H     
41   H        16.7127    8.9070  136.2187  H     
42   H        15.8463   10.2600  136.8823  H     
43   H        16.1277   11.2346  134.8499  H     
44   H        17.7446   11.6186  135.3883  H     
45   H        18.7535    9.9216  134.0965  H     
46   H        17.3368    8.9013  134.0333  H     
47   H        17.5608   11.5904  132.5600  H     
48   H        18.0443   10.0483  131.8551  H     
49   H        15.1769   10.5826  132.8139  H     
50   H        15.7404   10.8413  131.1613  H     
51   H        15.5565    8.4577  132.6389  H     
@<TRIPOS>BOND
     1    1    2 1
     2    1    3 1
     3    2    4 1
     4    2    9 1
     5    3    5 1
     6    3    7 1
     7    4    6 1
     8    5    6 1
     9    6   10 1
    10    6   11 1
    11    7    8 1
    12    8    9 1
    13    8   10 1
    14   11   12 am
    15   12   13 am
    16   12   14 2
    17   13   15 1
    18   15   16 1
    19   16   17 1
    20   17   18 1
    21   18   19 1
    22   19   20 1
    23   20   21 1
    24    1   22 1
    25    1   23 1
    26    2   24 1
    27    3   25 1
    28    4   26 1
    29    4   27 1
    30    5   28 1
    31    5   29 1
    32    7   30 1
    33    7   31 1
    34    8   32 1
    35    9   33 1
    36    9   34 1
    37   10   35 1
    38   10   36 1
    39   11   37 1
    40   13   38 1
    41   15   39 1
    42   15   40 1
    43   16   41 1
    44   16   42 1
    45   17   43 1
    46   17   44 1
    47   18   45 1
    48   18   46 1
    49   19   47 1
    50   19   48 1
    51   20   49 1
    52   20   50 1
    53   21   51 1
@<TRIPOS>PROPERTY_DATA
  Total_Score	| 5.3592
  Crash		| -2.6519
  Polar		| 1.9016
  FragIndex	| 1
  FragRMSD	| 0.718

