@<TRIPOS>MOLECULE
BindingDB_25737
 67 69 0 0 0
SMALL
NO_CHARGES


@<TRIPOS>ATOM
1    N        16.1493   11.7843  140.3551  N     
2    C        16.8314   10.8744  139.6843  C     
3    O        16.9268    9.7095  140.0461  O     
4    N        17.3507   11.3060  138.5466  N     
5    C        15.2222   11.6025  141.4402  C     
6    C        14.6067   10.5095  143.6873  C     
7    C        14.0329   12.9631  143.2747  C     
8    C        12.7624   11.1334  142.0330  C     
9    C        14.4877   11.9177  144.3433  C     
10   C        13.2114   10.0994  143.1137  C     
11   C        15.6596   10.5602  142.5317  C     
12   C        15.0894   13.0075  142.1293  C     
13   C        12.6483   12.5491  142.6815  C     
14   C        13.8222   11.1677  140.8847  C     
15   C        18.0430   10.5060  137.5802  C     
16   C        17.0997   10.0381  136.4233  C     
17   C        17.5272   10.5142  135.0109  C     
18   C        16.4142   10.3321  133.9415  C     
19   C        16.9206   10.5059  132.4830  C     
20   C        18.7508    9.5321  130.8796  C     
21   C        18.9459    8.4487  129.7762  C     
22   C        17.4889    9.4080  127.7999  C     
23   C        16.0211    9.9450  127.7659  C     
24   C        17.6011    9.2393  131.8963  C     
25   C        17.7162    8.2507  128.8369  C     
26   C        15.7087   10.9893  128.7744  C     
27   O        16.6688   11.4816  129.5971  O     
28   O        14.5838   11.7325  128.6187  O     
29   H        16.1872   12.6802  139.9826  H     
30   H        17.1547   12.2282  138.3054  H     
31   H        14.9311    9.7778  144.4339  H     
32   H        13.9514   13.9500  143.7368  H     
33   H        11.7898   10.8347  141.6285  H     
34   H        13.7656   11.8728  145.1602  H     
35   H        15.4496   12.2147  144.7685  H     
36   H        13.2642    9.0986  142.6803  H     
37   H        12.4801   10.0625  143.9250  H     
38   H        15.7289    9.5587  142.1109  H     
39   H        16.6436   10.8236  142.9248  H     
40   H        16.0541   13.3194  142.5438  H     
41   H        14.7916   13.7706  141.4003  H     
42   H        11.8893   12.5420  143.4699  H     
43   H        12.3287   13.2771  141.9292  H     
44   H        13.5008   11.8657  140.1087  H     
45   H        13.8815   10.1780  140.4212  H     
46   H        18.8605   11.1234  137.1947  H     
47   H        18.5164    9.6349  138.0443  H     
48   H        17.0856    8.9333  136.4212  H     
49   H        16.0633   10.3542  136.6160  H     
50   H        17.7935   11.5765  135.0611  H     
51   H        18.4303    9.9629  134.7112  H     
52   H        15.9480    9.3369  134.0474  H     
53   H        15.6289   11.0705  134.1376  H     
54   H        16.0659   10.7636  131.8454  H     
55   H        17.6126   11.3544  132.4399  H     
56   H        19.6923    9.6280  131.4374  H     
57   H        18.6039   10.5059  130.3875  H     
58   H        19.8167    8.7121  129.1683  H     
59   H        19.1817    7.4950  130.2662  H     
60   H        17.7405    9.0224  126.8052  H     
61   H        18.1703   10.2435  127.9844  H     
62   H        15.8419   10.3713  126.7736  H     
63   H        15.3263    9.1003  127.8914  H     
64   H        18.0174    8.6235  132.7056  H     
65   H        16.8054    8.6336  131.4314  H     
66   H        17.8607    7.3192  128.2824  H     
67   H        16.8113    8.1094  129.4412  H     
@<TRIPOS>BOND
     1    1    2 am
     2    1    5 1
     3    2    3 2
     4    2    4 am
     5    4   15 1
     6    5   11 1
     7    5   12 1
     8    5   14 1
     9    6    9 1
    10    6   10 1
    11    6   11 1
    12    7    9 1
    13    7   12 1
    14    7   13 1
    15    8   10 1
    16    8   13 1
    17    8   14 1
    18   15   16 1
    19   16   17 1
    20   17   18 1
    21   18   19 1
    22   19   24 1
    23   20   21 1
    24   20   24 1
    25   21   25 1
    26   22   23 1
    27   22   25 1
    28   23   26 1
    29   26   27 1
    30   26   28 2
    31    1   29 1
    32    4   30 1
    33    6   31 1
    34    7   32 1
    35    8   33 1
    36    9   34 1
    37    9   35 1
    38   10   36 1
    39   10   37 1
    40   11   38 1
    41   11   39 1
    42   12   40 1
    43   12   41 1
    44   13   42 1
    45   13   43 1
    46   14   44 1
    47   14   45 1
    48   15   46 1
    49   15   47 1
    50   16   48 1
    51   16   49 1
    52   17   50 1
    53   17   51 1
    54   18   52 1
    55   18   53 1
    56   19   54 1
    57   19   55 1
    58   20   56 1
    59   20   57 1
    60   21   58 1
    61   21   59 1
    62   22   60 1
    63   22   61 1
    64   23   62 1
    65   23   63 1
    66   24   64 1
    67   24   65 1
    68   25   66 1
    69   25   67 1
@<TRIPOS>PROPERTY_DATA
  Total_Score	| 8.6012
  Crash		| -2.8879
  Polar		| 4.6131
  FragIndex	| 1
  FragRMSD	| 0.774

