@<TRIPOS>MOLECULE
BindingDB_50143908
 32 32 0 0 0
SMALL
NO_CHARGES


@<TRIPOS>ATOM
1    C        16.9239   10.5675  139.5076  C     
2    C        18.0225   10.8950  135.1746  C     
3    N        16.2249   11.5202  140.1148  N     
4    C        16.6751   10.8359  135.7860  C     
5    O        17.3998    9.6341  140.1381  O     
6    N        17.0995   10.5049  138.1958  N     
7    O        19.1563   10.8074  135.9184  O     
8    C        16.5671   11.4182  137.2236  C     
9    O        18.1256   10.8110  133.8213  O     
10   C        15.8994   11.5736  141.5157  C     
11   C        15.2699   12.9685  141.8345  C     
12   C        14.9219   10.4215  141.9202  C     
13   C        14.7611   13.0821  143.2967  C     
14   C        14.4489   10.5411  143.3866  C     
15   C        13.8034   11.9191  143.6706  C     
16   H        15.9194   12.2620  139.5679  H     
17   H        15.9907   11.4090  135.1490  H     
18   H        16.3366    9.7981  135.7831  H     
19   H        17.5942    9.7365  137.8592  H     
20   H        17.0871   12.3871  137.2800  H     
21   H        15.4912   11.5866  137.4432  H     
22   H        16.8193   11.4890  142.1065  H     
23   H        16.0148   13.7506  141.6612  H     
24   H        14.4322   13.1517  141.1539  H     
25   H        14.0461   10.4402  141.2525  H     
26   H        15.4253    9.4592  141.7947  H     
27   H        15.6102   13.0731  143.9759  H     
28   H        14.2345   14.0355  143.4207  H     
29   H        13.7241    9.7551  143.5973  H     
30   H        15.2961   10.3932  144.0615  H     
31   H        13.5473   11.9899  144.7314  H     
32   H        12.8754   12.0142  143.0967  H     
@<TRIPOS>BOND
     1    1    3 am
     2    1    5 2
     3    1    6 am
     4    2    4 1
     5    2    7 2
     6    2    9 1
     7    3   10 1
     8    4    8 1
     9    6    8 1
    10   10   11 1
    11   10   12 1
    12   11   13 1
    13   12   14 1
    14   13   15 1
    15   14   15 1
    16    3   16 1
    17    4   17 1
    18    4   18 1
    19    6   19 1
    20    8   20 1
    21    8   21 1
    22   10   22 1
    23   11   23 1
    24   11   24 1
    25   12   25 1
    26   12   26 1
    27   13   27 1
    28   13   28 1
    29   14   29 1
    30   14   30 1
    31   15   31 1
    32   15   32 1
@<TRIPOS>PROPERTY_DATA
  Total_Score	| 3.7870
  Crash		| -0.9445
  Polar		| 1.3840
  FragIndex	| 1
  FragRMSD	| 0.632

