@<TRIPOS>MOLECULE
BindingDB_50143940
 40 40 0 0 0
SMALL
NO_CHARGES


@<TRIPOS>ATOM
1    C        16.8299   10.4611  139.5341  C     
2    N        16.3229   11.5003  140.1919  N     
3    O        17.2698    9.4907  140.1294  O     
4    N        16.9234   10.3876  138.2169  N     
5    C        16.2508   11.6319  141.6264  C     
6    O        15.3774    9.8181  133.3959  O     
7    C        16.5340   11.3860  137.2757  C     
8    C        16.7262    9.3868  133.2083  C     
9    C        15.7447   13.0498  142.0313  C     
10   C        15.3842   10.5331  142.3210  C     
11   C        16.4941   10.8255  135.8318  C     
12   C        17.7451   10.5037  133.5510  C     
13   C        17.8327   10.9092  135.0507  C     
14   C        13.8630   10.7209  142.0917  C     
15   C        14.2223   13.2395  141.8060  C     
16   C        13.3971   12.1366  142.5160  C     
17   H        16.0509   12.2661  139.6611  H     
18   H        17.2880    9.5638  137.8549  H     
19   H        17.2734   11.5417  142.0051  H     
20   H        15.2548   10.5637  132.7668  H     
21   H        15.5306   11.7445  137.5249  H     
22   H        17.2261   12.2307  137.3266  H     
23   H        16.9062    8.5084  133.8341  H     
24   H        16.8466    9.0933  132.1614  H     
25   H        15.9558   13.2115  143.0913  H     
26   H        16.2924   13.8128  141.4730  H     
27   H        15.6701    9.5393  141.9714  H     
28   H        15.5802   10.5602  143.3977  H     
29   H        16.1838    9.7780  135.8792  H     
30   H        15.7298   11.3733  135.2780  H     
31   H        18.7361   10.1526  133.2454  H     
32   H        17.5123   11.3869  132.9478  H     
33   H        18.2050   11.9360  135.0935  H     
34   H        18.5651   10.2676  135.5456  H     
35   H        13.6334   10.5644  141.0341  H     
36   H        13.3146    9.9718  142.6679  H     
37   H        13.9193   14.2181  142.1885  H     
38   H        14.0095   13.2200  140.7332  H     
39   H        12.3395   12.2592  142.2693  H     
40   H        13.5028   12.2449  143.5991  H     
@<TRIPOS>BOND
     1    1    2 am
     2    1    3 2
     3    1    4 am
     4    2    5 1
     5    4    7 1
     6    5    9 1
     7    5   10 1
     8    6    8 1
     9    7   11 1
    10    8   12 1
    11    9   15 1
    12   10   14 1
    13   11   13 1
    14   12   13 1
    15   14   16 1
    16   15   16 1
    17    2   17 1
    18    4   18 1
    19    5   19 1
    20    6   20 1
    21    7   21 1
    22    7   22 1
    23    8   23 1
    24    8   24 1
    25    9   25 1
    26    9   26 1
    27   10   27 1
    28   10   28 1
    29   11   29 1
    30   11   30 1
    31   12   31 1
    32   12   32 1
    33   13   33 1
    34   13   34 1
    35   14   35 1
    36   14   36 1
    37   15   37 1
    38   15   38 1
    39   16   39 1
    40   16   40 1
@<TRIPOS>PROPERTY_DATA
  Total_Score	| 4.9155
  Crash		| -1.2725
  Polar		| 1.4258
  FragIndex	| 1
  FragRMSD	| 1.119

