@<TRIPOS>MOLECULE
BindingDB_25731
 40 41 0 0 0
SMALL
NO_CHARGES


@<TRIPOS>ATOM
1    C        16.9327   10.4542  139.5138  C     
2    O        17.2216    9.7323  140.4550  O     
3    N        17.6392   10.2293  138.4114  N     
4    N        15.9706   11.3584  139.6266  N     
5    C        15.1592   11.6440  140.7839  C     
6    C        15.0651   12.8179  143.0675  C     
7    C        14.3263   11.5984  143.6823  C     
8    C        13.5427   10.7937  142.6067  C     
9    C        14.4352   10.4030  141.3942  C     
10   C        15.9702   12.4028  141.8757  C     
11   C        17.4695   10.7888  137.1044  C     
12   C        18.7333   11.1837  134.8810  C     
13   C        18.8432   10.7640  136.3722  C     
14   C        16.4257    9.9425  136.3214  C     
15   C        16.3100   10.3694  134.8336  C     
16   C        17.6791   10.3494  134.1114  C     
17   H        18.2934    9.5137  138.4740  H     
18   H        15.8362   11.9489  138.8715  H     
19   H        14.3861   12.3283  140.4312  H     
20   H        14.3286   13.5560  142.7261  H     
21   H        15.6754   13.2896  143.8420  H     
22   H        15.0559   10.9384  144.1657  H     
23   H        13.6272   11.9482  144.4505  H     
24   H        13.1346    9.8856  143.0627  H     
25   H        12.6991   11.3973  142.2487  H     
26   H        13.8081    9.9374  140.6247  H     
27   H        15.1747    9.6640  141.7202  H     
28   H        16.7815   11.7702  142.2473  H     
29   H        16.4148   13.3086  141.4398  H     
30   H        17.1314   11.8280  137.1655  H     
31   H        18.4700   12.2454  134.8243  H     
32   H        19.7094   11.0509  134.4057  H     
33   H        19.5400   11.4373  136.8799  H     
34   H        19.2651    9.7535  136.4146  H     
35   H        16.7100    8.8848  136.3592  H     
36   H        15.4525   10.0439  136.8044  H     
37   H        15.6192    9.6918  134.3188  H     
38   H        15.8825   11.3757  134.7835  H     
39   H        17.5637   10.7540  133.1035  H     
40   H        18.0245    9.3188  134.0261  H     
@<TRIPOS>BOND
     1    1    2 2
     2    1    3 am
     3    1    4 am
     4    3   11 1
     5    4    5 1
     6    5    9 1
     7    5   10 1
     8    6    7 1
     9    6   10 1
    10    7    8 1
    11    8    9 1
    12   11   13 1
    13   11   14 1
    14   12   13 1
    15   12   16 1
    16   14   15 1
    17   15   16 1
    18    3   17 1
    19    4   18 1
    20    5   19 1
    21    6   20 1
    22    6   21 1
    23    7   22 1
    24    7   23 1
    25    8   24 1
    26    8   25 1
    27    9   26 1
    28    9   27 1
    29   10   28 1
    30   10   29 1
    31   11   30 1
    32   12   31 1
    33   12   32 1
    34   13   33 1
    35   13   34 1
    36   14   35 1
    37   14   36 1
    38   15   37 1
    39   15   38 1
    40   16   39 1
    41   16   40 1
@<TRIPOS>PROPERTY_DATA
  Total_Score	| 3.9500
  Crash		| -1.9643
  Polar		| 0.9179
  FragIndex	| 1
  FragRMSD	| 1.200

