@<TRIPOS>MOLECULE
BindingDB_50196659
 71 73 0 0 0
SMALL
NO_CHARGES


@<TRIPOS>ATOM
1    C        12.7373   12.6047  142.6963  C     
2    C        12.8659   11.2271  141.9775  C     
3    C        14.0911   12.9549  143.3895  C     
4    C        13.9959   11.3080  140.8936  C     
5    C        15.2157   13.0338  142.3106  C     
6    C        15.3694   11.6599  141.5663  C     
7    C        14.4541   11.8457  144.4261  C     
8    C        14.5762   10.4707  143.7040  C     
9    C        13.2203   10.1208  143.0204  C     
10   C        15.7026   10.5478  142.6214  C     
11   N        16.3964   11.8687  140.5721  N     
12   C        17.0123   10.9941  139.7937  C     
13   N        17.6887   11.5295  138.7893  N     
14   O        16.9620    9.7804  139.9692  O     
15   C        18.2551   10.8537  137.6627  C     
16   C        17.1771   10.5012  136.5946  C     
17   C        17.7031   10.6086  135.1392  C     
18   C        16.5962   10.3262  134.0884  C     
19   C        17.1139   10.4634  132.6321  C     
20   C        16.0598   10.0805  131.5562  C     
21   C        15.8410    8.5571  131.2945  C     
22   C        16.9070    7.8140  130.4343  C     
23   C        17.0431    8.2661  128.9498  C     
24   C        17.9034    9.5484  128.6862  C     
25   C        17.2408   10.6877  127.8596  C     
26   C        15.8656   11.0720  128.2498  C     
27   O        14.8168   10.3623  127.7676  O     
28   O        15.6643   12.1610  129.0334  O     
29   C        13.4339   10.6257  128.0207  C     
30   H        12.4705   13.3808  141.9706  H     
31   H        11.9353   12.5687  143.4426  H     
32   H        11.9173   10.9719  141.5007  H     
33   H        14.0072   13.9191  143.8909  H     
34   H        14.0625   10.3511  140.3692  H     
35   H        13.7454   12.0719  140.1510  H     
36   H        14.9755   13.8315  141.5989  H     
37   H        16.1585   13.3106  142.7902  H     
38   H        15.3912   12.0966  144.9210  H     
39   H        13.6815   11.7892  145.2002  H     
40   H        14.8291    9.6970  144.4327  H     
41   H        12.4306   10.0524  143.7748  H     
42   H        13.2762    9.1510  142.5251  H     
43   H        15.7867    9.5743  142.1380  H     
44   H        16.6597   10.7614  143.1015  H     
45   H        16.5957   12.7993  140.3550  H     
46   H        17.7114   12.5066  138.7584  H     
47   H        18.9801   11.5445  137.2294  H     
48   H        18.7968    9.9587  137.9805  H     
49   H        16.8192    9.4822  136.7804  H     
50   H        16.3245   11.1830  136.7076  H     
51   H        18.0852   11.6249  134.9815  H     
52   H        18.5306    9.9067  134.9962  H     
53   H        16.2051    9.3158  134.2488  H     
54   H        15.7749   11.0381  134.2383  H     
55   H        17.3876   11.5133  132.4692  H     
56   H        18.0146    9.8584  132.5038  H     
57   H        15.0978   10.5199  131.8318  H     
58   H        16.3518   10.5550  130.6267  H     
59   H        15.7717    8.0549  132.2618  H     
60   H        14.8716    8.4325  130.8085  H     
61   H        17.8825    7.8481  130.9228  H     
62   H        16.6065    6.7606  130.4088  H     
63   H        17.5203    7.4414  128.4102  H     
64   H        16.0470    8.3589  128.5143  H     
65   H        18.2775    9.9598  129.6284  H     
66   H        18.7956    9.2418  128.1275  H     
67   H        17.8861   11.5673  127.9514  H     
68   H        17.2307   10.4103  126.7993  H     
69   H        13.2153   10.5607  129.0908  H     
70   H        12.8355    9.8833  127.4901  H     
71   H        13.1721   11.6238  127.6548  H     
@<TRIPOS>BOND
     1    1    2 1
     2    1    3 1
     3    2    4 1
     4    2    9 1
     5    3    5 1
     6    3    7 1
     7    4    6 1
     8    5    6 1
     9    6   10 1
    10    6   11 1
    11    7    8 1
    12    8    9 1
    13    8   10 1
    14   11   12 am
    15   12   13 am
    16   12   14 2
    17   13   15 1
    18   15   16 1
    19   16   17 1
    20   17   18 1
    21   18   19 1
    22   19   20 1
    23   20   21 1
    24   21   22 1
    25   22   23 1
    26   23   24 1
    27   24   25 1
    28   25   26 1
    29   26   27 1
    30   26   28 2
    31   27   29 1
    32    1   30 1
    33    1   31 1
    34    2   32 1
    35    3   33 1
    36    4   34 1
    37    4   35 1
    38    5   36 1
    39    5   37 1
    40    7   38 1
    41    7   39 1
    42    8   40 1
    43    9   41 1
    44    9   42 1
    45   10   43 1
    46   10   44 1
    47   11   45 1
    48   13   46 1
    49   15   47 1
    50   15   48 1
    51   16   49 1
    52   16   50 1
    53   17   51 1
    54   17   52 1
    55   18   53 1
    56   18   54 1
    57   19   55 1
    58   19   56 1
    59   20   57 1
    60   20   58 1
    61   21   59 1
    62   21   60 1
    63   22   61 1
    64   22   62 1
    65   23   63 1
    66   23   64 1
    67   24   65 1
    68   24   66 1
    69   25   67 1
    70   25   68 1
    71   29   69 1
    72   29   70 1
    73   29   71 1
@<TRIPOS>PROPERTY_DATA
  Total_Score	| 9.1396
  Crash		| -2.4539
  Polar		| 2.8958
  FragIndex	| 1
  FragRMSD	| 0.632

