@<TRIPOS>MOLECULE
BindingDB_25735
 49 51 0 0 0
SMALL
NO_CHARGES


@<TRIPOS>ATOM
1    N        16.2377   11.7779  140.4456  N     
2    C        16.8389   10.8612  139.6993  C     
3    O        16.9072    9.6758  140.0047  O     
4    N        17.3064   11.3525  138.5603  N     
5    C        15.2829   11.6077  141.5071  C     
6    C        12.7993   11.1601  141.9969  C     
7    C        14.5710   10.4739  143.7000  C     
8    C        14.0430   12.9410  143.3310  C     
9    C        13.2046   10.0830  143.0518  C     
10   C        12.6740   12.5584  142.6832  C     
11   C        13.8973   11.2271  140.8845  C     
12   C        15.6726   10.5441  142.5918  C     
13   C        14.4289   11.8702  144.3899  C     
14   C        15.1369   13.0002  142.2173  C     
15   C        17.9370   10.6597  137.4794  C     
16   C        16.9490   10.5424  136.2774  C     
17   C        17.6501   10.6061  134.8951  C     
18   C        16.6909   10.2864  133.7115  C     
19   C        17.2768   10.7188  132.3391  C     
20   C        16.4529   10.3913  131.1675  C     
21   O        15.4568    9.4725  131.2017  O     
22   O        16.7624   10.9311  129.9640  O     
23   H        16.2808   12.6744  140.0791  H     
24   H        17.1316   12.3006  138.4020  H     
25   H        11.8398   10.8815  141.5461  H     
26   H        14.8437    9.7272  144.4465  H     
27   H        13.9569   13.9194  143.8072  H     
28   H        12.4266   10.0028  143.8173  H     
29   H        13.2803    9.1056  142.5689  H     
30   H        12.3759   13.3100  141.9419  H     
31   H        11.8933   12.5222  143.4496  H     
32   H        13.6192   11.9764  140.1368  H     
33   H        13.9636   10.2646  140.3695  H     
34   H        15.7724    9.5532  142.1386  H     
35   H        16.6285   10.8094  143.0546  H     
36   H        13.6659   11.8195  145.1753  H     
37   H        15.3715   12.1439  144.8693  H     
38   H        16.0915   13.3015  142.6622  H     
39   H        14.8702   13.7782  141.4920  H     
40   H        18.8087   11.2537  137.1947  H     
41   H        18.2833    9.6618  137.7707  H     
42   H        16.3907    9.6029  136.3687  H     
43   H        16.2241   11.3674  136.3080  H     
44   H        18.0642   11.6126  134.7542  H     
45   H        18.4833    9.8942  134.8658  H     
46   H        16.4871    9.2126  133.6900  H     
47   H        15.7338   10.8004  133.8561  H     
48   H        17.4119   11.8012  132.3543  H     
49   H        18.2545   10.2581  132.1953  H     
@<TRIPOS>BOND
     1    1    2 am
     2    1    5 1
     3    2    3 2
     4    2    4 am
     5    4   15 1
     6    5   11 1
     7    5   12 1
     8    5   14 1
     9    6    9 1
    10    6   10 1
    11    6   11 1
    12    7    9 1
    13    7   12 1
    14    7   13 1
    15    8   10 1
    16    8   13 1
    17    8   14 1
    18   15   16 1
    19   16   17 1
    20   17   18 1
    21   18   19 1
    22   19   20 1
    23   20   21 2
    24   20   22 1
    25    1   23 1
    26    4   24 1
    27    6   25 1
    28    7   26 1
    29    8   27 1
    30    9   28 1
    31    9   29 1
    32   10   30 1
    33   10   31 1
    34   11   32 1
    35   11   33 1
    36   12   34 1
    37   12   35 1
    38   13   36 1
    39   13   37 1
    40   14   38 1
    41   14   39 1
    42   15   40 1
    43   15   41 1
    44   16   42 1
    45   16   43 1
    46   17   44 1
    47   17   45 1
    48   18   46 1
    49   18   47 1
    50   19   48 1
    51   19   49 1
@<TRIPOS>PROPERTY_DATA
  Total_Score	| 6.5443
  Crash		| -2.0116
  Polar		| 3.8475
  FragIndex	| 1
  FragRMSD	| 0.909

