@<TRIPOS>MOLECULE
BindingDB_50192964
 45 45 0 0 0
SMALL
NO_CHARGES


@<TRIPOS>ATOM
1    C        17.6545   10.7717  135.0933  C     
2    C        16.7116   10.3754  133.9175  C     
3    C        17.2928   10.6187  132.4967  C     
4    C        16.3083   10.4606  131.4071  C     
5    O        15.0679    9.9672  131.6614  O     
6    O        16.6557   10.8500  130.1573  O     
7    C        13.9814    9.8030  130.7480  C     
8    C        16.8895   10.8009  136.4530  C     
9    C        17.7133   11.3191  137.6636  C     
10   N        17.0724   11.3554  138.9538  N     
11   C        15.8396   11.0105  139.2995  C     
12   N        15.3391   11.1163  140.5186  N     
13   O        15.0426   10.5871  138.4732  O     
14   C        15.9841   11.4766  141.7462  C     
15   C        15.5392   12.9047  142.1852  C     
16   C        14.0452   12.9697  142.6101  C     
17   C        13.7232   11.9342  143.7177  C     
18   C        14.1378   10.5000  143.2990  C     
19   C        15.6231   10.4317  142.8455  C     
20   H        18.4804   10.0551  135.1480  H     
21   H        18.0888   11.7594  134.8930  H     
22   H        16.4548    9.3171  134.0197  H     
23   H        15.7917   10.9605  134.0115  H     
24   H        17.6757   11.6408  132.4441  H     
25   H        18.1239    9.9319  132.3170  H     
26   H        13.6595   10.7748  130.3665  H     
27   H        13.1485    9.3378  131.2790  H     
28   H        14.2724    9.1598  129.9150  H     
29   H        16.0162   11.4420  136.3323  H     
30   H        16.5473    9.7877  136.6607  H     
31   H        18.6085   10.6997  137.7602  H     
32   H        18.0364   12.3412  137.4421  H     
33   H        17.6309   11.7080  139.6674  H     
34   H        14.3981   10.9060  140.5963  H     
35   H        17.0724   11.4819  141.6266  H     
36   H        16.1503   13.2246  143.0347  H     
37   H        15.7213   13.6155  141.3720  H     
38   H        13.8177   13.9762  142.9751  H     
39   H        13.4121   12.7813  141.7376  H     
40   H        14.2497   12.2112  144.6344  H     
41   H        12.6512   11.9531  143.9265  H     
42   H        13.9885    9.8217  144.1418  H     
43   H        13.4909   10.1606  142.4839  H     
44   H        15.8325    9.4251  142.4746  H     
45   H        16.2626   10.5953  143.7172  H     
@<TRIPOS>BOND
     1    1    2 1
     2    1    8 1
     3    2    3 1
     4    3    4 1
     5    4    5 1
     6    4    6 2
     7    5    7 1
     8    8    9 1
     9    9   10 1
    10   10   11 am
    11   11   12 am
    12   11   13 2
    13   12   14 1
    14   14   15 1
    15   14   19 1
    16   15   16 1
    17   16   17 1
    18   17   18 1
    19   18   19 1
    20    1   20 1
    21    1   21 1
    22    2   22 1
    23    2   23 1
    24    3   24 1
    25    3   25 1
    26    7   26 1
    27    7   27 1
    28    7   28 1
    29    8   29 1
    30    8   30 1
    31    9   31 1
    32    9   32 1
    33   10   33 1
    34   12   34 1
    35   14   35 1
    36   15   36 1
    37   15   37 1
    38   16   38 1
    39   16   39 1
    40   17   40 1
    41   17   41 1
    42   18   42 1
    43   18   43 1
    44   19   44 1
    45   19   45 1
@<TRIPOS>PROPERTY_DATA
  Total_Score	| 5.9242
  Crash		| -0.7981
  Polar		| 0.9315
  FragIndex	| 1
  FragRMSD	| 0.946

