@<TRIPOS>MOLECULE
BindingDB_50143925
 54 54 0 0 0
SMALL
NO_CHARGES


@<TRIPOS>ATOM
1    C        16.8619   10.5286  139.5100  C     
2    N        16.2435   11.5350  140.1079  N     
3    O        17.1940    9.5406  140.1633  O     
4    N        17.2486   10.5063  138.2433  N     
5    C        15.8716   11.6025  141.4970  C     
6    C        17.1135   11.5428  137.2690  C     
7    C        15.2047   12.9805  141.7915  C     
8    C        14.9201   10.4394  141.9359  C     
9    C        17.8878   11.2351  135.9452  C     
10   C        13.6468    8.7487  130.1214  C     
11   C        13.5815    9.3840  131.5480  C     
12   C        17.4230   10.5751  132.2314  C     
13   C        16.1381   10.0373  131.5055  C     
14   C        14.8874    9.5995  132.3446  C     
15   C        17.0296   10.5032  134.8708  C     
16   C        17.7567    9.9116  133.6067  C     
17   C        14.0475    7.2544  130.0834  C     
18   C        14.4862   10.5560  143.4135  C     
19   C        14.7257   13.1255  143.2538  C     
20   C        13.8385   11.9320  143.7176  C     
21   H        16.0550   12.3225  139.5641  H     
22   H        17.7378    9.7113  137.9654  H     
23   H        16.7888   11.5460  142.1002  H     
24   H        16.0599   11.7199  137.0492  H     
25   H        17.5224   12.4560  137.7030  H     
26   H        15.9173   13.7808  141.5755  H     
27   H        14.3434   13.1176  141.1297  H     
28   H        14.0293   10.4484  141.2998  H     
29   H        15.4226    9.4818  141.7821  H     
30   H        18.2317   12.1891  135.5271  H     
31   H        18.7715   10.6431  136.1667  H     
32   H        12.6459    8.8229  129.6998  H     
33   H        14.2877    9.2968  129.4662  H     
34   H        13.1092   10.3639  131.4503  H     
35   H        12.9097    8.7662  132.1635  H     
36   H        18.2813   10.3728  131.5687  H     
37   H        17.3871   11.6676  132.3118  H     
38   H        15.8392   10.8143  130.8145  H     
39   H        16.4347    9.1430  130.9029  H     
40   H        14.7377   10.3868  133.1158  H     
41   H        15.1235    8.6706  132.8813  H     
42   H        16.5306    9.6708  135.3703  H     
43   H        16.2671   11.2096  134.5287  H     
44   H        17.4720    8.8242  133.4869  H     
45   H        18.8339    9.9351  133.7751  H     
46   H        15.1401    7.1451  130.2022  H     
47   H        13.7625    6.8266  129.1117  H     
48   H        13.5344    6.6895  130.8657  H     
49   H        13.7663    9.7631  143.6398  H     
50   H        15.3572   10.4075  144.0643  H     
51   H        15.5904   13.2028  143.9190  H     
52   H        14.1469   14.0487  143.3549  H     
53   H        12.8745   11.9884  143.1986  H     
54   H        13.6449   12.0139  144.7875  H     
@<TRIPOS>BOND
     1    1    2 am
     2    1    3 2
     3    1    4 am
     4    2    5 1
     5    4    6 1
     6    5    7 1
     7    5    8 1
     8    6    9 1
     9    7   19 1
    10    8   18 1
    11    9   15 1
    12   10   11 1
    13   10   17 1
    14   11   14 1
    15   12   13 1
    16   12   16 1
    17   13   14 1
    18   15   16 1
    19   18   20 1
    20   19   20 1
    21    2   21 1
    22    4   22 1
    23    5   23 1
    24    6   24 1
    25    6   25 1
    26    7   26 1
    27    7   27 1
    28    8   28 1
    29    8   29 1
    30    9   30 1
    31    9   31 1
    32   10   32 1
    33   10   33 1
    34   11   34 1
    35   11   35 1
    36   12   36 1
    37   12   37 1
    38   13   38 1
    39   13   39 1
    40   14   40 1
    41   14   41 1
    42   15   42 1
    43   15   43 1
    44   16   44 1
    45   16   45 1
    46   17   46 1
    47   17   47 1
    48   17   48 1
    49   18   49 1
    50   18   50 1
    51   19   51 1
    52   19   52 1
    53   20   53 1
    54   20   54 1
@<TRIPOS>PROPERTY_DATA
  Total_Score	| 6.7566
  Crash		| -1.0802
  Polar		| 1.4410
  FragIndex	| 1
  FragRMSD	| 0.709

