@<TRIPOS>MOLECULE
BindingDB_50192936
 35 35 0 0 0
SMALL
NO_CHARGES


@<TRIPOS>ATOM
1    C        13.3831   12.2686  142.3779  C     
2    C        14.3206   13.3326  141.7521  C     
3    C        15.8130   13.0644  142.0907  C     
4    C        16.2663   11.6280  141.7068  C     
5    C        15.3162   10.5792  142.3654  C     
6    C        13.8258   10.8234  142.0153  C     
7    N        16.3790   11.5088  140.2704  N     
8    C        16.8772   10.4724  139.6017  C     
9    O        17.2803    9.4848  140.1957  O     
10   N        16.9757   10.4170  138.2835  N     
11   C        16.5219   11.3995  137.3528  C     
12   C        16.4898   10.8752  135.8932  C     
13   C        17.8452   10.9501  135.1352  C     
14   C        17.7357   10.4508  133.7541  C     
15   O        18.4544    9.3768  133.3394  O     
16   O        16.9919   11.1204  132.8352  O     
17   H        13.3753   12.3831  143.4660  H     
18   H        12.3624   12.4294  142.0163  H     
19   H        14.1921   13.3321  140.6664  H     
20   H        14.0399   14.3228  142.1218  H     
21   H        16.4363   13.8014  141.5763  H     
22   H        15.9560   13.2112  143.1648  H     
23   H        17.2660   11.4756  142.1239  H     
24   H        15.5962    9.5671  142.0649  H     
25   H        15.4280   10.6372  143.4548  H     
26   H        13.1984   10.1080  142.5563  H     
27   H        13.6767   10.6546  140.9440  H     
28   H        16.1332   12.2834  139.7428  H     
29   H        17.3494    9.6019  137.9060  H     
30   H        15.4992   11.6943  137.6244  H     
31   H        17.1536   12.2910  137.4086  H     
32   H        16.1437    9.8417  135.8973  H     
33   H        15.7595   11.4623  135.3344  H     
34   H        18.1855   11.9927  135.0976  H     
35   H        18.5980   10.3712  135.6746  H     
@<TRIPOS>BOND
     1    1    2 1
     2    1    6 1
     3    2    3 1
     4    3    4 1
     5    4    5 1
     6    4    7 1
     7    5    6 1
     8    7    8 am
     9    8    9 2
    10    8   10 am
    11   10   11 1
    12   11   12 1
    13   12   13 1
    14   13   14 1
    15   14   15 1
    16   14   16 2
    17    1   17 1
    18    1   18 1
    19    2   19 1
    20    2   20 1
    21    3   21 1
    22    3   22 1
    23    4   23 1
    24    5   24 1
    25    5   25 1
    26    6   26 1
    27    6   27 1
    28    7   28 1
    29   10   29 1
    30   11   30 1
    31   11   31 1
    32   12   32 1
    33   12   33 1
    34   13   34 1
    35   13   35 1
@<TRIPOS>PROPERTY_DATA
  Total_Score	| 4.3793
  Crash		| -1.3755
  Polar		| 1.4254
  FragIndex	| 1
  FragRMSD	| 1.108

