@<TRIPOS>MOLECULE
BindingDB_50192983
 53 55 0 0 0
SMALL
NO_CHARGES


@<TRIPOS>ATOM
1    C        14.6796   12.2521  143.9395  C     
2    C        14.1845   13.0976  142.7249  C     
3    C        14.7790   10.7545  143.5150  C     
4    C        15.1738   12.9355  141.5303  C     
5    C        15.7666   10.6028  142.2967  C     
6    C        15.2599   11.4383  141.0677  C     
7    C        13.3449   10.2745  143.1202  C     
8    C        12.8444   11.0952  141.8894  C     
9    C        12.7738   12.6095  142.2672  C     
10   C        13.8347   10.8983  140.6953  C     
11   N        16.0783   11.4099  139.8714  N     
12   C        16.9301   10.4962  139.4356  C     
13   N        17.5404   10.5715  138.2588  N     
14   O        17.2046    9.5239  140.1305  O     
15   C        17.4033   11.5940  137.2575  C     
16   C        18.3985   11.4403  136.0770  C     
17   C        18.0221   10.4267  134.9387  C     
18   C        16.5197   10.3705  134.5315  C     
19   C        16.1637   10.0722  133.0175  C     
20   C        17.2973    9.9321  132.0894  C     
21   O        18.1888    8.9287  132.2681  O     
22   O        17.4578   10.8142  131.0642  O     
23   C        19.3838    8.7024  131.5126  C     
24   H        15.6509   12.6101  144.2813  H     
25   H        13.9882   12.3559  144.7775  H     
26   H        14.1308   14.1507  143.0203  H     
27   H        15.1527   10.1559  144.3514  H     
28   H        16.1638   13.2927  141.8359  H     
29   H        14.8412   13.5731  140.7055  H     
30   H        16.7651   10.9433  142.5871  H     
31   H        15.8513    9.5471  142.0207  H     
32   H        12.6642   10.4244  143.9614  H     
33   H        13.3513    9.2055  142.8936  H     
34   H        11.8495   10.7454  141.6003  H     
35   H        12.0414   12.7660  143.0639  H     
36   H        12.4420   13.1932  141.4021  H     
37   H        13.4613   11.4154  139.8079  H     
38   H        13.8919    9.8333  140.4417  H     
39   H        15.9251   12.1392  139.2530  H     
40   H        18.1678    9.8679  138.0610  H     
41   H        16.3917   11.6049  136.7902  H     
42   H        17.5824   12.5691  137.7210  H     
43   H        18.5017   12.4241  135.6092  H     
44   H        19.3786   11.1779  136.4823  H     
45   H        18.6417   10.6751  134.0700  H     
46   H        18.3289    9.4221  135.2526  H     
47   H        16.0437    9.6022  135.1365  H     
48   H        16.0397   11.2973  134.8286  H     
49   H        15.5768    9.1542  132.9657  H     
50   H        15.5117   10.8690  132.6509  H     
51   H        19.1571    8.5123  130.4609  H     
52   H        19.9156    7.8446  131.9246  H     
53   H        20.0287    9.5764  131.5950  H     
@<TRIPOS>BOND
     1    1    2 1
     2    1    3 1
     3    2    4 1
     4    2    9 1
     5    3    5 1
     6    3    7 1
     7    4    6 1
     8    5    6 1
     9    6   10 1
    10    6   11 1
    11    7    8 1
    12    8    9 1
    13    8   10 1
    14   11   12 am
    15   12   13 am
    16   12   14 2
    17   13   15 1
    18   15   16 1
    19   16   17 1
    20   17   18 1
    21   18   19 1
    22   19   20 1
    23   20   21 1
    24   20   22 2
    25   21   23 1
    26    1   24 1
    27    1   25 1
    28    2   26 1
    29    3   27 1
    30    4   28 1
    31    4   29 1
    32    5   30 1
    33    5   31 1
    34    7   32 1
    35    7   33 1
    36    8   34 1
    37    9   35 1
    38    9   36 1
    39   10   37 1
    40   10   38 1
    41   11   39 1
    42   13   40 1
    43   15   41 1
    44   15   42 1
    45   16   43 1
    46   16   44 1
    47   17   45 1
    48   17   46 1
    49   18   47 1
    50   18   48 1
    51   19   49 1
    52   19   50 1
    53   23   51 1
    54   23   52 1
    55   23   53 1
@<TRIPOS>PROPERTY_DATA
  Total_Score	| 6.3845
  Crash		| -2.9046
  Polar		| 2.1398
  FragIndex	| 1
  FragRMSD	| 1.345

