@<TRIPOS>MOLECULE
BindingDB_50143911
 34 34 0 0 0
SMALL
NO_CHARGES


@<TRIPOS>ATOM
1    C        16.0239   10.8661  139.4908  C     
2    N        15.4180   10.9761  140.6735  N     
3    O        15.3436   10.4029  138.5839  O     
4    N        17.2826   11.2322  139.2752  N     
5    C        15.9700   11.3940  141.9379  C     
6    C        17.2871   10.9859  136.7244  C     
7    O        18.6859   12.5190  135.3681  O     
8    C        18.0403   11.2615  138.0540  C     
9    C        18.1838   11.1855  135.4694  C     
10   C        15.4963   12.8328  142.3038  C     
11   C        15.5680   10.3700  143.0384  C     
12   C        13.9903   12.9006  142.6717  C     
13   C        14.0615   10.4376  143.4130  C     
14   C        13.6157   11.8768  143.7766  C     
15   H        14.4806   10.7195  140.6865  H     
16   H        17.7650   11.5683  140.0480  H     
17   H        17.0628   11.4025  141.8808  H     
18   H        16.9169    9.9610  136.7173  H     
19   H        16.4372   11.6590  136.6414  H     
20   H        19.2774   12.6492  136.1388  H     
21   H        18.4792   12.2662  138.0026  H     
22   H        18.8567   10.5453  138.1533  H     
23   H        19.0302   10.4931  135.4833  H     
24   H        17.5913   10.9828  134.5682  H     
25   H        16.0768   13.1858  143.1530  H     
26   H        15.6962   13.5090  141.4661  H     
27   H        15.7979    9.3538  142.7065  H     
28   H        16.1616   10.5580  143.9298  H     
29   H        13.7484   13.9094  143.0190  H     
30   H        13.3891   12.7062  141.7798  H     
31   H        13.4608   10.0747  142.5749  H     
32   H        13.8699    9.7746  144.2613  H     
33   H        14.0842   12.1749  144.7170  H     
34   H        12.5329   11.8910  143.9233  H     
@<TRIPOS>BOND
     1    1    2 am
     2    1    3 2
     3    1    4 am
     4    2    5 1
     5    4    8 1
     6    5   10 1
     7    5   11 1
     8    6    8 1
     9    6    9 1
    10    7    9 1
    11   10   12 1
    12   11   13 1
    13   12   14 1
    14   13   14 1
    15    2   15 1
    16    4   16 1
    17    5   17 1
    18    6   18 1
    19    6   19 1
    20    7   20 1
    21    8   21 1
    22    8   22 1
    23    9   23 1
    24    9   24 1
    25   10   25 1
    26   10   26 1
    27   11   27 1
    28   11   28 1
    29   12   29 1
    30   12   30 1
    31   13   31 1
    32   13   32 1
    33   14   33 1
    34   14   34 1
@<TRIPOS>PROPERTY_DATA
  Total_Score	| 3.6239
  Crash		| -0.8582
  Polar		| 1.0452
  FragIndex	| 1
  FragRMSD	| 1.107

