@<TRIPOS>MOLECULE
BindingDB_50192966
 41 41 0 0 0
SMALL
NO_CHARGES


@<TRIPOS>ATOM
1    C        17.7104   10.7384  135.0852  C     
2    C        17.5794   10.0414  133.7015  C     
3    C        16.7597   10.8275  132.6378  C     
4    C        16.6052   10.0824  131.3787  C     
5    O        15.7972    8.9992  131.3276  O     
6    O        17.0884   10.5807  130.2157  O     
7    C        16.3691   10.8067  135.8675  C     
8    C        16.4630   11.3491  137.3134  C     
9    N        16.9550   10.3631  138.2248  N     
10   C        16.9382   10.4438  139.5436  C     
11   N        16.4443   11.4853  140.2015  N     
12   O        17.3857    9.4790  140.1431  O     
13   C        16.3266   11.6328  141.6283  C     
14   C        15.8456   13.0736  141.9637  C     
15   C        14.3634   13.3119  141.5637  C     
16   C        13.4154   12.2624  142.1956  C     
17   C        13.8887   10.8210  141.8879  C     
18   C        15.3673   10.6074  142.3048  C     
19   H        18.4345   10.1743  135.6836  H     
20   H        18.1113   11.7454  134.9457  H     
21   H        18.5854    9.8877  133.3050  H     
22   H        17.1275    9.0525  133.8446  H     
23   H        15.7580   11.0410  133.0114  H     
24   H        17.2566   11.7809  132.4347  H     
25   H        15.6949   11.4590  135.3166  H     
26   H        15.9172    9.8115  135.8964  H     
27   H        17.0947   12.2389  137.3414  H     
28   H        15.4520   11.6350  137.6272  H     
29   H        17.2817    9.5289  137.8454  H     
30   H        16.1515   12.2382  139.6630  H     
31   H        17.3241   11.5048  142.0556  H     
32   H        15.9565   13.2497  143.0363  H     
33   H        16.4807   13.8030  141.4512  H     
34   H        14.0596   14.3132  141.8836  H     
35   H        14.2687   13.2723  140.4737  H     
36   H        13.3739   12.4124  143.2784  H     
37   H        12.4064   12.4009  141.7974  H     
38   H        13.2537   10.1061  142.4211  H     
39   H        13.7863   10.6202  140.8162  H     
40   H        15.6644    9.5845  142.0619  H     
41   H        15.4462   10.7070  143.3920  H     
@<TRIPOS>BOND
     1    1    2 1
     2    1    7 1
     3    2    3 1
     4    3    4 1
     5    4    5 1
     6    4    6 2
     7    7    8 1
     8    8    9 1
     9    9   10 am
    10   10   11 am
    11   10   12 2
    12   11   13 1
    13   13   14 1
    14   13   18 1
    15   14   15 1
    16   15   16 1
    17   16   17 1
    18   17   18 1
    19    1   19 1
    20    1   20 1
    21    2   21 1
    22    2   22 1
    23    3   23 1
    24    3   24 1
    25    7   25 1
    26    7   26 1
    27    8   27 1
    28    8   28 1
    29    9   29 1
    30   11   30 1
    31   13   31 1
    32   14   32 1
    33   14   33 1
    34   15   34 1
    35   15   35 1
    36   16   36 1
    37   16   37 1
    38   17   38 1
    39   17   39 1
    40   18   40 1
    41   18   41 1
@<TRIPOS>PROPERTY_DATA
  Total_Score	| 5.8781
  Crash		| -1.9798
  Polar		| 2.8710
  FragIndex	| 1
  FragRMSD	| 1.095

