@<TRIPOS>MOLECULE
BindingDB_50192957
 39 39 0 0 0
SMALL
NO_CHARGES


@<TRIPOS>ATOM
1    C        13.6615   11.9513  143.6803  C     
2    C        14.0702   12.9422  142.5589  C     
3    C        15.5867   12.8416  142.2400  C     
4    C        16.0312   11.3900  141.8826  C     
5    C        15.5745   10.3812  142.9769  C     
6    C        14.0679   10.4963  143.3304  C     
7    N        15.4828   11.0189  140.6071  N     
8    C        16.0752   11.0136  139.4239  C     
9    O        15.3468   10.7000  138.4936  O     
10   N        17.3532   11.3113  139.2200  N     
11   C        18.0390   11.3707  137.9591  C     
12   C        17.7795   10.1655  137.0033  C     
13   C        16.7335   10.4151  135.8747  C     
14   C        17.2709   10.7710  134.5424  C     
15   O        16.4650   10.6401  133.4540  O     
16   O        18.5493   11.1833  134.3935  O     
17   C        16.8051   10.8598  132.0790  C     
18   H        14.1389   12.2506  144.6177  H     
19   H        12.5784   11.9959  143.8192  H     
20   H        13.4921   12.7235  141.6532  H     
21   H        13.8300   13.9656  142.8671  H     
22   H        15.8274   13.5199  141.4141  H     
23   H        16.1449   13.1797  143.1147  H     
24   H        17.1278   11.3692  141.8455  H     
25   H        15.7841    9.3627  142.6438  H     
26   H        16.1645   10.5541  143.8790  H     
27   H        13.8458    9.8432  144.1778  H     
28   H        13.4731   10.1498  142.4822  H     
29   H        14.5364   10.7984  140.6039  H     
30   H        17.8905   11.5191  139.9992  H     
31   H        17.7968   12.3128  137.4592  H     
32   H        19.1032   11.4033  138.1940  H     
33   H        18.7202    9.8543  136.5432  H     
34   H        17.4411    9.3211  137.6053  H     
35   H        16.1421    9.5025  135.7487  H     
36   H        16.0437   11.2062  136.1722  H     
37   H        17.1567   11.8803  131.9251  H     
38   H        15.9155   10.7017  131.4663  H     
39   H        17.5800   10.1588  131.7591  H     
@<TRIPOS>BOND
     1    1    2 1
     2    1    6 1
     3    2    3 1
     4    3    4 1
     5    4    5 1
     6    4    7 1
     7    5    6 1
     8    7    8 am
     9    8    9 2
    10    8   10 am
    11   10   11 1
    12   11   12 1
    13   12   13 1
    14   13   14 1
    15   14   15 1
    16   14   16 2
    17   15   17 1
    18    1   18 1
    19    1   19 1
    20    2   20 1
    21    2   21 1
    22    3   22 1
    23    3   23 1
    24    4   24 1
    25    5   25 1
    26    5   26 1
    27    6   27 1
    28    6   28 1
    29    7   29 1
    30   10   30 1
    31   11   31 1
    32   11   32 1
    33   12   33 1
    34   12   34 1
    35   13   35 1
    36   13   36 1
    37   17   37 1
    38   17   38 1
    39   17   39 1
@<TRIPOS>PROPERTY_DATA
  Total_Score	| 4.9081
  Crash		| -0.8357
  Polar		| 0.0413
  FragIndex	| 1
  FragRMSD	| 1.189

