@<TRIPOS>MOLECULE
BindingDB_91914
 43 45 0 0 0
SMALL
NO_CHARGES


@<TRIPOS>ATOM
1    O        -2.3524    5.7163  -13.9546  O     
2    C        -3.0880    5.9287  -15.1609  C     
3    C        -2.8159    7.3332  -15.7569  C     
4    C        -2.1739    7.1047  -17.1427  C     
5    C        -2.7223    5.7313  -17.5760  C     
6    C        -2.7196    4.9124  -16.2696  C     
7    O        -1.4346    4.3190  -16.0552  O     
8    O        -2.4862    8.2052  -18.0172  O     
9    C        -1.7327    8.5319  -19.1252  C     
10   C        -0.5374    7.8698  -19.4942  C     
11   C         0.2417    8.3377  -20.5651  C     
12   C        -0.1471    9.4913  -21.2681  C     
13   Cl        0.8170   10.0671  -22.5323  Cl    
14   C        -1.3287   10.1656  -20.9098  C     
15   C        -2.1320    9.6827  -19.8570  C     
16   N        -3.2775   10.3659  -19.5546  N     
17   C        -4.4648    9.8079  -19.3783  C     
18   O        -4.6211    8.6144  -19.6173  O     
19   N        -5.4466   10.5533  -18.8863  N     
20   C        -6.5970   10.1014  -18.3236  C     
21   C        -7.5429   11.0087  -17.7996  C     
22   N        -8.6206   10.5256  -17.1248  N     
23   C        -8.8354    9.1940  -16.9415  C     
24   C        -7.9170    8.2795  -17.4907  C     
25   N        -6.8410    8.7719  -18.1435  N     
26   C        -9.8353    8.7712  -16.2357  C     
27   N       -10.6980    8.3552  -15.6054  N     
28   H        -2.6777    4.8611  -13.5946  H     
29   H        -4.1531    5.8352  -14.9194  H     
30   H        -3.7608    7.8763  -15.8631  H     
31   H        -2.1503    7.9251  -15.1219  H     
32   H        -1.0905    7.0443  -17.0024  H     
33   H        -2.1007    5.2679  -18.3466  H     
34   H        -3.7436    5.8298  -17.9544  H     
35   H        -3.4583    4.1085  -16.3159  H     
36   H        -0.8502    5.0489  -15.7549  H     
37   H        -0.2065    7.0550  -18.9767  H     
38   H         1.1029    7.8455  -20.8153  H     
39   H        -1.6110   11.0023  -21.4275  H     
40   H        -3.1916   11.3128  -19.3634  H     
41   H        -5.2893   11.5109  -18.8414  H     
42   H        -7.4160   12.0200  -17.8942  H     
43   H        -8.0225    7.2657  -17.3858  H     
@<TRIPOS>BOND
     1    1    2 1
     2    2    3 1
     3    3    4 1
     4    4    5 1
     5    5    6 1
     6    2    6 1
     7    6    7 1
     8    4    8 1
     9    8    9 1
    10    9   10 ar
    11   10   11 ar
    12   11   12 ar
    13   12   13 1
    14   12   14 ar
    15   14   15 ar
    16    9   15 ar
    17   15   16 1
    18   16   17 am
    19   17   18 2
    20   17   19 am
    21   19   20 1
    22   20   21 ar
    23   21   22 ar
    24   22   23 ar
    25   23   24 ar
    26   24   25 ar
    27   20   25 ar
    28   23   26 1
    29   26   27 3
    30    1   28 1
    31    2   29 1
    32    3   30 1
    33    3   31 1
    34    4   32 1
    35    5   33 1
    36    5   34 1
    37    6   35 1
    38    7   36 1
    39   10   37 1
    40   11   38 1
    41   14   39 1
    42   16   40 1
    43   19   41 1
    44   21   42 1
    45   24   43 1
@<TRIPOS>PROPERTY_DATA
  Total_Score	| 4.5656
  Crash		| -0.8412
  Polar		| 2.5007
  FragIndex	| 1
  FragRMSD	| 1.050

