@<TRIPOS>MOLECULE
BindingDB_91917
 52 53 0 0 0
SMALL
NO_CHARGES


@<TRIPOS>ATOM
1    C        -8.5809    6.0869  -14.9804  C     
2    C        -7.4849    5.2560  -14.2918  C     
3    O        -6.4029    6.1021  -13.8860  O     
4    C        -5.1957    5.6760  -13.4301  C     
5    O        -4.9153    4.3530  -13.3431  O     
6    C        -4.1734    6.6568  -13.0287  C     
7    C        -2.9041    6.6645  -13.9289  C     
8    C        -3.0163    7.5050  -15.2363  C     
9    C        -3.2885    6.6702  -16.5150  C     
10   C        -3.8576    7.5061  -17.6899  C     
11   O        -3.2081    8.7680  -17.9884  O     
12   C        -2.3073    8.8039  -19.0363  C     
13   C        -1.2809    7.8364  -19.1501  C     
14   C        -0.2908    7.9405  -20.1403  C     
15   C        -0.2878    9.0350  -21.0206  C     
16   Cl        0.9472    9.2073  -22.1680  Cl    
17   C        -1.2838   10.0220  -20.9037  C     
18   C        -2.2912    9.9196  -19.9210  C     
19   N        -3.0812   11.0219  -19.7838  N     
20   C        -4.3539   11.0999  -19.4348  C     
21   O        -4.7649   12.2326  -19.2389  O     
22   N        -5.1236   10.0233  -19.3319  N     
23   C        -6.3193    9.8657  -18.7051  C     
24   C        -6.9895   10.7821  -17.8584  C     
25   N        -8.0610   10.3599  -17.1357  N     
26   C        -8.5531    9.0975  -17.2182  C     
27   C        -7.9395    8.2005  -18.1120  C     
28   N        -6.8488    8.6195  -18.7961  N     
29   C        -9.5094    8.7149  -16.4276  C     
30   N       -10.3340    8.3527  -15.7138  N     
31   H        -8.9160    6.8967  -14.3265  H     
32   H        -8.1898    6.5195  -15.9038  H     
33   H        -9.4343    5.4513  -15.2234  H     
34   H        -7.9072    4.7544  -13.4187  H     
35   H        -7.1195    4.4995  -14.9896  H     
36   H        -3.8790    6.4216  -12.0032  H     
37   H        -4.6130    7.6576  -13.0140  H     
38   H        -2.0917    7.0923  -13.3329  H     
39   H        -2.6074    5.6388  -14.1680  H     
40   H        -3.7939    8.2625  -15.1138  H     
41   H        -2.0738    8.0380  -15.3870  H     
42   H        -2.3730    6.1637  -16.8199  H     
43   H        -4.0150    5.8887  -16.2933  H     
44   H        -4.8765    7.7679  -17.3988  H     
45   H        -3.9312    6.8709  -18.5776  H     
46   H        -1.2080    7.0774  -18.4733  H     
47   H         0.4462    7.2312  -20.1950  H     
48   H        -1.2506   10.8386  -21.5218  H     
49   H        -2.6204   11.8684  -19.9305  H     
50   H        -4.7082    9.1956  -19.6652  H     
51   H        -6.6454   11.7271  -17.7010  H     
52   H        -8.2690    7.2384  -18.2341  H     
@<TRIPOS>BOND
     1    1    2 1
     2    2    3 1
     3    3    4 1
     4    4    5 2
     5    4    6 1
     6    6    7 1
     7    7    8 1
     8    8    9 1
     9    9   10 1
    10   10   11 1
    11   11   12 1
    12   12   13 ar
    13   13   14 ar
    14   14   15 ar
    15   15   16 1
    16   15   17 ar
    17   17   18 ar
    18   12   18 ar
    19   18   19 1
    20   19   20 am
    21   20   21 2
    22   20   22 am
    23   22   23 1
    24   23   24 ar
    25   24   25 ar
    26   25   26 ar
    27   26   27 ar
    28   27   28 ar
    29   23   28 ar
    30   26   29 1
    31   29   30 3
    32    1   31 1
    33    1   32 1
    34    1   33 1
    35    2   34 1
    36    2   35 1
    37    6   36 1
    38    6   37 1
    39    7   38 1
    40    7   39 1
    41    8   40 1
    42    8   41 1
    43    9   42 1
    44    9   43 1
    45   10   44 1
    46   10   45 1
    47   13   46 1
    48   14   47 1
    49   17   48 1
    50   19   49 1
    51   22   50 1
    52   24   51 1
    53   27   52 1
@<TRIPOS>PROPERTY_DATA
  Total_Score	| 4.3094
  Crash		| -1.7241
  Polar		| 1.0103
  FragIndex	| 1
  FragRMSD	| 0.929

