@<TRIPOS>MOLECULE
BindingDB_91915
 42 44 0 0 0
SMALL
NO_CHARGES


@<TRIPOS>ATOM
1    O        -4.1798    9.3328  -14.3330  O     
2    C        -4.2133    7.9824  -14.8108  C     
3    C        -2.8013    7.3705  -14.8085  C     
4    C        -2.2394    7.5514  -16.2389  C     
5    C        -3.3423    8.2532  -17.0783  C     
6    C        -4.6298    7.9268  -16.2886  C     
7    O        -3.4125    7.8917  -18.4931  O     
8    C        -2.3333    8.3612  -19.2213  C     
9    C        -1.3086    7.4048  -19.4042  C     
10   C        -0.1260    7.7297  -20.0809  C     
11   C         0.0615    9.0224  -20.5960  C     
12   Cl        1.4763    9.4085  -21.4382  Cl    
13   C        -0.9513    9.9800  -20.4347  C     
14   C        -2.1633    9.6841  -19.7590  C     
15   N        -2.9952   10.7771  -19.7151  N     
16   C        -4.2603   10.9375  -19.3712  C     
17   O        -4.7121   12.0706  -19.4170  O     
18   N        -5.0047    9.9041  -19.0652  N     
19   C        -6.2526    9.7819  -18.5546  C     
20   C        -6.9962   10.7537  -17.8405  C     
21   N        -8.1185   10.3600  -17.1817  N     
22   C        -8.5985    9.0882  -17.2253  C     
23   C        -7.9192    8.1462  -18.0209  C     
24   N        -6.7765    8.5275  -18.6370  N     
25   C        -9.5948    8.7372  -16.4751  C     
26   N       -10.4622    8.3976  -15.8051  N     
27   H        -5.1065    9.5767  -14.1177  H     
28   H        -4.8904    7.3967  -14.1846  H     
29   H        -2.1646    7.8716  -14.0717  H     
30   H        -2.8610    6.3065  -14.5557  H     
31   H        -1.3287    8.1640  -16.2214  H     
32   H        -1.9909    6.5773  -16.6666  H     
33   H        -3.1855    9.3369  -17.0040  H     
34   H        -5.4154    8.6597  -16.4676  H     
35   H        -4.9903    6.9275  -16.5516  H     
36   H        -1.4187    6.4640  -19.0075  H     
37   H         0.5911    7.0058  -20.2132  H     
38   H        -0.7805   10.9239  -20.7997  H     
39   H        -2.5619   11.6014  -19.9859  H     
40   H        -4.5505    9.0737  -19.2085  H     
41   H        -6.6588   11.7131  -17.7396  H     
42   H        -8.2208    7.1700  -18.0816  H     
@<TRIPOS>BOND
     1    1    2 1
     2    2    3 1
     3    3    4 1
     4    4    5 1
     5    5    6 1
     6    2    6 1
     7    5    7 1
     8    7    8 1
     9    8    9 ar
    10    9   10 ar
    11   10   11 ar
    12   11   12 1
    13   11   13 ar
    14   13   14 ar
    15    8   14 ar
    16   14   15 1
    17   15   16 am
    18   16   17 2
    19   16   18 am
    20   18   19 1
    21   19   20 ar
    22   20   21 ar
    23   21   22 ar
    24   22   23 ar
    25   23   24 ar
    26   19   24 ar
    27   22   25 1
    28   25   26 3
    29    1   27 1
    30    2   28 1
    31    3   29 1
    32    3   30 1
    33    4   31 1
    34    4   32 1
    35    5   33 1
    36    6   34 1
    37    6   35 1
    38    9   36 1
    39   10   37 1
    40   13   38 1
    41   15   39 1
    42   18   40 1
    43   20   41 1
    44   23   42 1
@<TRIPOS>PROPERTY_DATA
  Total_Score	| 3.4163
  Crash		| -1.5642
  Polar		| 2.0221
  FragIndex	| 1
  FragRMSD	| 1.017

