@<TRIPOS>MOLECULE
BindingDB_14826
 39 41 0 0 0
SMALL
NO_CHARGES


@<TRIPOS>ATOM
1    C        -0.1694    9.1389  -21.1406  C     
2    C        -0.1623    7.9752  -20.3542  C     
3    C        -1.1555    7.7807  -19.3796  C     
4    C        -2.1820    8.7364  -19.1801  C     
5    C        -2.2057    9.9007  -20.0003  C     
6    C        -1.1874   10.0911  -20.9617  C     
7    Cl        1.0434    9.4019  -22.2928  Cl    
8    O        -3.1060    8.6665  -18.1616  O     
9    C        -3.4025    7.5730  -17.2690  C     
10   C        -3.5628    6.1525  -17.8508  C     
11   C        -2.6733    5.2948  -16.9295  C     
12   C        -2.3874    7.4119  -16.1228  C     
13   O        -2.4835    6.0421  -15.7235  O     
14   N        -3.0598   10.9635  -19.8511  N     
15   C        -4.3308   11.0213  -19.4762  C     
16   O        -4.7763   12.1503  -19.3403  O     
17   N        -5.0752    9.9424  -19.2731  N     
18   C        -6.2584    9.7796  -18.6299  C     
19   C        -7.0522   10.7474  -17.9681  C     
20   C        -7.7449    8.0711  -17.8401  C     
21   N        -8.1324   10.3385  -17.2482  N     
22   N        -6.6562    8.4850  -18.5319  N     
23   C        -8.5042    9.0350  -17.1511  C     
24   C        -9.4992    8.6858  -16.3930  C     
25   N       -10.3618    8.3475  -15.7143  N     
26   H         0.5731    7.2743  -20.4749  H     
27   H        -1.1055    6.9375  -18.8098  H     
28   H        -1.1761   10.9403  -21.5355  H     
29   H        -4.3561    7.8417  -16.8048  H     
30   H        -4.6040    5.8232  -17.7899  H     
31   H        -3.2417    6.0794  -18.8909  H     
32   H        -3.1472    4.3407  -16.6918  H     
33   H        -1.7036    5.0977  -17.3981  H     
34   H        -1.3699    7.6404  -16.4446  H     
35   H        -2.6299    8.0613  -15.2787  H     
36   H        -2.6440   11.8241  -20.0344  H     
37   H        -4.6595    9.1092  -19.5499  H     
38   H        -6.8127   11.7378  -17.9691  H     
39   H        -7.9702    7.0728  -17.8074  H     
@<TRIPOS>BOND
     1    1    2 2
     2    1    6 1
     3    1    7 1
     4    2    3 1
     5    3    4 2
     6    4    5 1
     7    4    8 1
     8    5    6 2
     9    5   14 1
    10    8    9 1
    11    9   10 1
    12    9   12 1
    13   10   11 1
    14   11   13 1
    15   12   13 1
    16   14   15 am
    17   15   16 2
    18   15   17 am
    19   17   18 1
    20   18   19 1
    21   18   22 2
    22   19   21 2
    23   20   22 1
    24   20   23 2
    25   21   23 1
    26   23   24 1
    27   24   25 3
    28    2   26 1
    29    3   27 1
    30    6   28 1
    31    9   29 1
    32   10   30 1
    33   10   31 1
    34   11   32 1
    35   11   33 1
    36   12   34 1
    37   12   35 1
    38   14   36 1
    39   17   37 1
    40   19   38 1
    41   20   39 1
@<TRIPOS>PROPERTY_DATA
  Total_Score	| 3.7151
  Crash		| -1.3012
  Polar		| 1.0442
  FragIndex	| 1
  FragRMSD	| 0.912

