@<TRIPOS>MOLECULE
BindingDB_14827
 42 44 0 0 0
SMALL
NO_CHARGES


@<TRIPOS>ATOM
1    C        -0.2266    9.2782  -21.2015  C     
2    C         0.0451    8.2706  -20.2625  C     
3    C        -0.8538    8.0381  -19.2093  C     
4    C        -2.0684    8.7564  -19.1072  C     
5    C        -2.2982    9.8452  -20.0008  C     
6    C        -1.3763   10.0736  -21.0496  C     
7    Cl        0.8718    9.6003  -22.4491  Cl    
8    O        -2.8656    8.4879  -18.0198  O     
9    N        -3.1359   10.9016  -19.7711  N     
10   C        -4.4054   10.9966  -19.4153  C     
11   O        -4.7887   12.1367  -19.2004  O     
12   N        -5.2412    9.9730  -19.3751  N     
13   C        -6.4336    9.8409  -18.7380  C     
14   C        -7.0518   10.7545  -17.8491  C     
15   C        -8.0824    8.2034  -18.1393  C     
16   N        -8.1089   10.3389  -17.1025  N     
17   N        -7.0006    8.6115  -18.8478  N     
18   C        -8.6378    9.0921  -17.2005  C     
19   C        -9.5709    8.7169  -16.3812  C     
20   N       -10.3797    8.3649  -15.6454  N     
21   C        -3.8089    7.3859  -18.1356  C     
22   C        -3.2362    5.9377  -18.0696  C     
23   C        -2.8419    5.5016  -16.6366  C     
24   C        -4.3292    7.1162  -15.6340  C     
25   C        -4.8677    7.5726  -17.0105  C     
26   O        -3.8984    5.7422  -15.6888  O     
27   H         0.9100    7.7280  -20.3209  H     
28   H        -0.5847    7.3734  -18.4817  H     
29   H        -1.5141   10.8638  -21.6881  H     
30   H        -2.6951   11.7600  -19.8823  H     
31   H        -4.9154    9.1675  -19.8009  H     
32   H        -6.6786   11.6874  -17.6805  H     
33   H        -8.4305    7.2481  -18.2581  H     
34   H        -4.3221    7.4528  -19.0954  H     
35   H        -4.0105    5.2533  -18.4280  H     
36   H        -2.3811    5.8283  -18.7352  H     
37   H        -2.6242    4.4313  -16.6323  H     
38   H        -1.9395    6.0157  -16.3221  H     
39   H        -3.5125    7.7656  -15.3075  H     
40   H        -5.1283    7.1894  -14.8969  H     
41   H        -5.1706    8.6220  -16.9403  H     
42   H        -5.7547    6.9778  -17.2471  H     
@<TRIPOS>BOND
     1    1    2 2
     2    1    6 1
     3    1    7 1
     4    2    3 1
     5    3    4 2
     6    4    5 1
     7    4    8 1
     8    5    6 2
     9    5    9 1
    10    8   21 1
    11    9   10 am
    12   10   11 2
    13   10   12 am
    14   12   13 1
    15   13   14 1
    16   13   17 2
    17   14   16 2
    18   15   17 1
    19   15   18 2
    20   16   18 1
    21   18   19 1
    22   19   20 3
    23   21   22 1
    24   21   25 1
    25   22   23 1
    26   23   26 1
    27   24   25 1
    28   24   26 1
    29    2   27 1
    30    3   28 1
    31    6   29 1
    32    9   30 1
    33   12   31 1
    34   14   32 1
    35   15   33 1
    36   21   34 1
    37   22   35 1
    38   22   36 1
    39   23   37 1
    40   23   38 1
    41   24   39 1
    42   24   40 1
    43   25   41 1
    44   25   42 1
@<TRIPOS>PROPERTY_DATA
  Total_Score	| 3.7701
  Crash		| -1.3870
  Polar		| 0.9941
  FragIndex	| 1
  FragRMSD	| 0.876

