@<TRIPOS>MOLECULE
BindingDB_14639
 33 34 0 0 0
SMALL
NO_CHARGES


@<TRIPOS>ATOM
1    C        -7.9542   11.0062  -18.4183  C     
2    C        -6.6824   10.4324  -18.6871  C     
3    C        -7.2491    8.6108  -17.2426  C     
4    C        -8.5154    9.1857  -16.9882  C     
5    N        -8.8088   10.3683  -17.5855  N     
6    N        -6.3950    9.2513  -18.0748  N     
7    C        -9.3691    8.6014  -16.2036  C     
8    N       -10.1111    8.0583  -15.5144  N     
9    C        -4.6014   10.7536  -19.9092  C     
10   O        -4.0618   11.5828  -20.6220  O     
11   N        -5.8256   11.0770  -19.5155  N     
12   N        -3.9474    9.6534  -19.5114  N     
13   C        -2.6803    9.1892  -19.7794  C     
14   C        -0.5752    9.1658  -20.9950  C     
15   C        -0.0896    8.1653  -20.1335  C     
16   C        -0.8948    7.6704  -19.0757  C     
17   C        -2.2184    8.1422  -18.9399  C     
18   C        -1.8553    9.6694  -20.8266  C     
19   O        -3.0009    7.5878  -17.9606  O     
20   C        -3.6689    6.3888  -18.4091  C     
21   C         1.1769    7.6829  -20.3455  C     
22   O         1.3474    6.8265  -21.2251  O     
23   H        -8.2281   11.8955  -18.8440  H     
24   H        -6.9698    7.7181  -16.8217  H     
25   H        -6.1616   11.9048  -19.8919  H     
26   H        -4.4542    9.0905  -18.8965  H     
27   H         0.0081    9.5201  -21.7512  H     
28   H        -0.5511    6.9419  -18.4571  H     
29   H        -2.1682   10.3881  -21.4823  H     
30   H        -4.2828    6.5818  -19.3000  H     
31   H        -4.3237    6.0482  -17.6176  H     
32   H        -2.9537    5.5934  -18.6354  H     
33   H         1.8952    7.8816  -19.6511  H     
@<TRIPOS>BOND
     1    1    2 1
     2    1    5 2
     3    2    6 2
     4    2   11 1
     5    3    4 2
     6    3    6 1
     7    4    5 1
     8    4    7 1
     9    7    8 3
    10    9   10 2
    11    9   11 am
    12    9   12 am
    13   12   13 1
    14   13   17 2
    15   13   18 1
    16   14   15 1
    17   14   18 2
    18   15   16 2
    19   15   21 1
    20   16   17 1
    21   17   19 1
    22   19   20 1
    23   21   22 2
    24    1   23 1
    25    3   24 1
    26   11   25 1
    27   12   26 1
    28   14   27 1
    29   16   28 1
    30   18   29 1
    31   20   30 1
    32   20   31 1
    33   20   32 1
    34   21   33 1
@<TRIPOS>PROPERTY_DATA
  Total_Score	| 7.3090
  Crash		| -0.5392
  Polar		| 3.5506
  FragIndex	| 1
  FragRMSD	| 0.094

