@<TRIPOS>MOLECULE
BindingDB_14717
 35 36 0 0 0
SMALL
NO_CHARGES


@<TRIPOS>ATOM
1    C        -0.4990    9.1996  -20.9388  C     
2    C        -0.0299    8.1267  -20.1439  C     
3    C        -0.9088    7.6044  -19.1604  C     
4    C        -2.2007    8.1257  -18.9802  C     
5    C        -2.6533    9.2207  -19.7592  C     
6    C        -1.7924    9.7247  -20.7614  C     
7    N        -3.9147    9.6940  -19.4792  N     
8    C        -4.5862   10.7564  -19.9146  C     
9    N        -5.8237   11.0536  -19.5380  N     
10   O        -4.0872   11.5733  -20.6695  O     
11   C        -6.6732   10.3886  -18.7129  C     
12   N        -8.7946   10.3166  -17.6159  N     
13   C        -7.9369   10.9577  -18.4533  C     
14   N        -6.3883    9.2016  -18.1112  N     
15   C        -7.2429    8.5515  -17.2826  C     
16   C        -8.4953    9.1353  -17.0173  C     
17   C        -9.3523    8.5749  -16.2204  C     
18   O        -2.9961    7.5809  -18.0019  O     
19   O         1.2555    7.6847  -20.3878  O     
20   Cl        0.4881    9.8883  -22.1436  Cl    
21   C        -3.6576    6.3692  -18.4090  C     
22   C         1.5063    6.3935  -20.9648  C     
23   N       -10.1005    8.0663  -15.5116  N     
24   H        -0.6058    6.8273  -18.5759  H     
25   H        -2.0923   10.4757  -21.3828  H     
26   H        -4.3885    9.1693  -18.8169  H     
27   H        -6.1784   11.8727  -19.9183  H     
28   H        -8.2143   11.8476  -18.8769  H     
29   H        -6.9604    7.6609  -16.8672  H     
30   H        -4.2561    6.5089  -19.3136  H     
31   H        -4.3273    6.0504  -17.6064  H     
32   H        -2.9337    5.5714  -18.5760  H     
33   H         1.2115    5.6046  -20.2729  H     
34   H         2.5744    6.3030  -21.1573  H     
35   H         0.9732    6.2791  -21.9117  H     
@<TRIPOS>BOND
     1    1    2 1
     2    1    6 2
     3    1   20 1
     4    2    3 2
     5    2   19 1
     6    3    4 1
     7    4    5 2
     8    4   18 1
     9    5    6 1
    10    5    7 1
    11    7    8 am
    12    8    9 am
    13    8   10 2
    14    9   11 1
    15   11   13 1
    16   11   14 2
    17   12   13 2
    18   12   16 1
    19   14   15 1
    20   15   16 2
    21   16   17 1
    22   17   23 3
    23   18   21 1
    24   19   22 1
    25    3   24 1
    26    6   25 1
    27    7   26 1
    28    9   27 1
    29   13   28 1
    30   15   29 1
    31   21   30 1
    32   21   31 1
    33   21   32 1
    34   22   33 1
    35   22   34 1
    36   22   35 1
@<TRIPOS>PROPERTY_DATA
  Total_Score	| 7.7407
  Crash		| -0.3979
  Polar		| 3.5224
  FragIndex	| 1
  FragRMSD	| 0.088

