@<TRIPOS>MOLECULE
BindingDB_91897
 50 52 0 0 0
SMALL
NO_CHARGES


@<TRIPOS>ATOM
1    C        -6.3493    4.4488  -12.9700  C     
2    C        -6.9662    5.6364  -13.7615  C     
3    C        -8.4276    5.3288  -14.2016  C     
4    C        -6.0971    6.0376  -14.9159  C     
5    C        -5.4774    7.3110  -14.9644  C     
6    C        -4.6246    7.6667  -16.0286  C     
7    C        -4.3738    6.7614  -17.0861  C     
8    C        -3.4779    7.0581  -18.2339  C     
9    O        -2.8144    8.3465  -18.1642  O     
10   C        -1.9860    8.6466  -19.2236  C     
11   C        -0.8479    7.8348  -19.4615  C     
12   C         0.0612    8.1352  -20.4877  C     
13   C        -0.1324    9.2789  -21.2777  C     
14   Cl        0.9601    9.6572  -22.5138  Cl    
15   C        -1.2228   10.1260  -21.0156  C     
16   C        -2.1542    9.8355  -19.9910  C     
17   N        -3.0241   10.8603  -19.7345  N     
18   C        -4.2804   10.9030  -19.3223  C     
19   O        -4.7086   12.0333  -19.1440  O     
20   N        -5.0446    9.8332  -19.1650  N     
21   C        -6.2396    9.6836  -18.5369  C     
22   C        -6.9849   10.6480  -17.8129  C     
23   N        -8.0942   10.2557  -17.1317  N     
24   C        -8.5427    8.9736  -17.1293  C     
25   C        -7.8338    8.0149  -17.8769  C     
26   N        -6.7173    8.4121  -18.5344  N     
27   C        -9.5669    8.6423  -16.4054  C     
28   N       -10.4589    8.3241  -15.7561  N     
29   C        -5.0038    5.4987  -17.0456  C     
30   C        -5.8447    5.1399  -15.9795  C     
31   H        -6.3714    3.5279  -13.5586  H     
32   H        -5.3129    4.6678  -12.6988  H     
33   H        -6.9094    4.2818  -12.0486  H     
34   H        -7.0274    6.4701  -13.0530  H     
35   H        -9.0297    5.0277  -13.3423  H     
36   H        -8.8810    6.2218  -14.6389  H     
37   H        -8.4659    4.5207  -14.9376  H     
38   H        -5.6338    7.9901  -14.2146  H     
39   H        -4.1915    8.5930  -16.0230  H     
40   H        -2.7346    6.2570  -18.2626  H     
41   H        -4.0692    6.9977  -19.1530  H     
42   H        -0.6608    7.0197  -18.8746  H     
43   H         0.8666    7.5250  -20.6473  H     
44   H        -1.3233   10.9815  -21.5710  H     
45   H        -2.6234   11.7365  -19.8675  H     
46   H        -4.6653    9.0122  -19.5099  H     
47   H        -6.6913   11.6212  -17.7385  H     
48   H        -8.1194    7.0327  -17.9156  H     
49   H        -4.8502    4.8239  -17.7983  H     
50   H        -6.2682    4.2094  -15.9865  H     
@<TRIPOS>BOND
     1    1    2 1
     2    2    3 1
     3    2    4 1
     4    4    5 ar
     5    5    6 ar
     6    6    7 ar
     7    7    8 1
     8    8    9 1
     9    9   10 1
    10   10   11 ar
    11   11   12 ar
    12   12   13 ar
    13   13   14 1
    14   13   15 ar
    15   15   16 ar
    16   10   16 ar
    17   16   17 1
    18   17   18 am
    19   18   19 2
    20   18   20 am
    21   20   21 1
    22   21   22 ar
    23   22   23 ar
    24   23   24 ar
    25   24   25 ar
    26   25   26 ar
    27   21   26 ar
    28   24   27 1
    29   27   28 3
    30    7   29 ar
    31   29   30 ar
    32    4   30 ar
    33    1   31 1
    34    1   32 1
    35    1   33 1
    36    2   34 1
    37    3   35 1
    38    3   36 1
    39    3   37 1
    40    5   38 1
    41    6   39 1
    42    8   40 1
    43    8   41 1
    44   11   42 1
    45   12   43 1
    46   15   44 1
    47   17   45 1
    48   20   46 1
    49   22   47 1
    50   25   48 1
    51   29   49 1
    52   30   50 1
@<TRIPOS>PROPERTY_DATA
  Total_Score	| 4.9576
  Crash		| -1.9313
  Polar		| 1.0205
  FragIndex	| 1
  FragRMSD	| 0.879

