@<TRIPOS>MOLECULE
BindingDB_14628
 33 34 0 0 0
SMALL
NO_CHARGES


@<TRIPOS>ATOM
1    C        -7.9606   10.9360  -18.4818  C     
2    C        -6.6802   10.3896  -18.7028  C     
3    C        -7.2323    8.5880  -17.2165  C     
4    C        -8.5057    9.1456  -17.0003  C     
5    N        -8.8215   10.2989  -17.6435  N     
6    N        -6.3777    9.2334  -18.0507  N     
7    C        -9.3661    8.5949  -16.1981  C     
8    N       -10.1154    8.1036  -15.4818  N     
9    C        -4.5836   10.7489  -19.8853  C     
10   O        -4.0426   11.6026  -20.5729  O     
11   N        -5.8228   11.0498  -19.5214  N     
12   N        -3.9542    9.6331  -19.5240  N     
13   C        -2.6747    9.1962  -19.7615  C     
14   C        -0.5067    9.2103  -20.9337  C     
15   C        -0.0042    8.2221  -20.0474  C     
16   C        -0.8627    7.6948  -19.0602  C     
17   C        -2.1944    8.1476  -18.9401  C     
18   C        -1.8245    9.6862  -20.7798  C     
19   Cl        0.4364    9.8992  -22.1707  Cl    
20   O        -3.0004    7.5762  -17.9946  O     
21   C        -3.6567    6.3829  -18.4534  C     
22   C         1.2865    7.7387  -20.1258  C     
23   O         2.1536    8.3064  -19.4614  O     
24   H        -8.2499   11.8067  -18.9332  H     
25   H        -6.9308    7.7297  -16.7530  H     
26   H        -6.1662   11.8820  -19.8880  H     
27   H        -4.4732    9.0423  -18.9545  H     
28   H        -0.5374    6.9484  -18.4397  H     
29   H        -2.1650   10.3830  -21.4423  H     
30   H        -4.2763    6.5676  -19.3359  H     
31   H        -4.3067    6.0218  -17.6613  H     
32   H        -2.9238    5.5979  -18.6689  H     
33   H         1.5875    7.3163  -20.9742  H     
@<TRIPOS>BOND
     1    1    2 1
     2    1    5 2
     3    2    6 2
     4    2   11 1
     5    3    4 2
     6    3    6 1
     7    4    5 1
     8    4    7 1
     9    7    8 3
    10    9   10 2
    11    9   11 am
    12    9   12 am
    13   12   13 1
    14   13   17 2
    15   13   18 1
    16   14   15 1
    17   14   18 2
    18   14   19 1
    19   15   16 2
    20   15   22 1
    21   16   17 1
    22   17   20 1
    23   20   21 1
    24   22   23 2
    25    1   24 1
    26    3   25 1
    27   11   26 1
    28   12   27 1
    29   16   28 1
    30   18   29 1
    31   21   30 1
    32   21   31 1
    33   21   32 1
    34   22   33 1
@<TRIPOS>PROPERTY_DATA
  Total_Score	| 7.4892
  Crash		| -0.5234
  Polar		| 3.5061
  FragIndex	| 1
  FragRMSD	| 0.088

