@<TRIPOS>MOLECULE
BindingDB_14604
 33 34 0 0 0
SMALL
NO_CHARGES


@<TRIPOS>ATOM
1    C        -7.4380   11.0091  -17.5811  C     
2    C        -6.6657   10.1815  -18.4222  C     
3    C        -8.1020    8.3367  -17.8857  C     
4    C        -8.8293    9.1594  -17.0041  C     
5    N        -8.4770   10.4675  -16.8922  N     
6    N        -7.0470    8.8782  -18.5396  N     
7    C        -9.7595    8.6698  -16.2469  C     
8    N       -10.5599    8.2103  -15.5648  N     
9    C        -4.6040    9.9498  -19.6164  C     
10   O        -4.8677    8.8683  -20.1273  O     
11   N        -5.5089   10.6537  -18.9526  N     
12   N        -3.3633   10.4079  -19.6269  N     
13   C        -2.2559    9.6700  -19.9314  C     
14   C        -0.1565    9.4938  -21.1873  C     
15   C         0.1839    8.2828  -20.5150  C     
16   C        -0.7353    7.8078  -19.5416  C     
17   C        -1.9499    8.4653  -19.2572  C     
18   C        -1.3532   10.1751  -20.8827  C     
19   Cl        0.8087   10.2343  -22.3710  Cl    
20   N         1.3354    7.5733  -20.7465  N     
21   O         1.6123    6.5654  -20.1504  O     
22   O         2.2364    7.9056  -21.6264  O     
23   O        -2.7341    8.0275  -18.2151  O     
24   C        -3.3196    6.7191  -18.3582  C     
25   H        -7.1917   11.9906  -17.4332  H     
26   H        -8.3159    7.3424  -18.0082  H     
27   H        -5.2522   11.5515  -18.6928  H     
28   H        -3.2131   11.3036  -19.2825  H     
29   H        -0.5175    6.9656  -19.0044  H     
30   H        -1.5753   11.0518  -21.3626  H     
31   H        -4.0457    6.6936  -19.1694  H     
32   H        -3.8438    6.4847  -17.4323  H     
33   H        -2.5672    5.9461  -18.5253  H     
@<TRIPOS>BOND
     1    1    2 1
     2    1    5 2
     3    2    6 2
     4    2   11 1
     5    3    4 2
     6    3    6 1
     7    4    5 1
     8    4    7 1
     9    7    8 3
    10    9   10 2
    11    9   11 am
    12    9   12 am
    13   12   13 1
    14   13   17 2
    15   13   18 1
    16   14   15 1
    17   14   18 2
    18   14   19 1
    19   15   16 2
    20   15   20 am
    21   16   17 1
    22   17   23 1
    23   20   21 2
    24   20   22 1
    25   23   24 1
    26    1   25 1
    27    3   26 1
    28   11   27 1
    29   12   28 1
    30   16   29 1
    31   18   30 1
    32   24   31 1
    33   24   32 1
    34   24   33 1
@<TRIPOS>PROPERTY_DATA
  Total_Score	| 3.1839
  Crash		| -1.1314
  Polar		| 1.2383
  FragIndex	| 1
  FragRMSD	| 0.901

