@<TRIPOS>MOLECULE
BindingDB_14638
 58 60 0 0 0
SMALL
NO_CHARGES


@<TRIPOS>ATOM
1    C        -7.6656   10.4948  -18.2372  C     
2    C        -6.2875    9.9067  -18.5340  C     
3    C        -7.1569    8.1321  -16.9424  C     
4    C        -8.4248    8.7014  -16.7952  C     
5    N        -8.5564    9.8468  -17.4459  N     
6    N        -6.2498    8.7437  -17.7911  N     
7    C        -9.4378    8.3566  -16.0495  C     
8    N       -10.3479    8.1358  -15.3883  N     
9    C        -4.2909   10.5857  -20.3316  C     
10   O        -4.0977   11.6867  -20.9536  O     
11   N        -4.8391    9.8006  -19.1685  N     
12   N        -3.2081   10.0489  -20.9566  N     
13   C        -2.1444    9.4726  -20.4450  C     
14   C         0.2753    9.3415  -20.7413  C     
15   C         0.2807    8.2207  -19.8532  C     
16   C        -0.9407    7.8319  -19.2712  C     
17   C        -2.2179    8.3586  -19.5831  C     
18   C        -0.9281    9.9802  -21.0024  C     
19   Cl        1.7294    9.9116  -21.4861  Cl    
20   O        -3.6315    8.0880  -19.3954  O     
21   O         1.4420    7.5692  -19.6030  O     
22   C         1.5927    6.1693  -19.9992  C     
23   C         1.6530    5.9281  -21.5292  C     
24   N         1.3922    4.5038  -21.9338  N     
25   C         1.1045    4.4035  -23.3993  C     
26   C         2.4285    3.5121  -21.5179  C     
27   C        -3.7245    6.6107  -18.5423  C     
28   C        -3.1217    7.4514  -16.0674  C     
29   C        -4.0820    5.6382  -16.1177  C     
30   C        -3.0395    6.2797  -17.0782  C     
31   C        -1.7433    5.3980  -16.7415  C     
32   O        -4.1136    6.7932  -15.2656  O     
33   H        -8.3675   11.2888  -18.3597  H     
34   H        -6.9475    7.2928  -16.4180  H     
35   H        -4.7558    8.6162  -19.3406  H     
36   H        -2.9050   10.4093  -21.7999  H     
37   H        -0.8619    7.1154  -18.5484  H     
38   H        -0.9383   10.8309  -21.6202  H     
39   H         2.5364    5.8597  -19.5685  H     
40   H         0.8383    5.4855  -19.5777  H     
41   H         0.8773    6.5548  -21.9629  H     
42   H         2.6156    6.2883  -21.9180  H     
43   H         0.5373    4.2260  -21.4416  H     
44   H         0.2543    5.0342  -23.6755  H     
45   H         0.8479    3.3807  -23.6875  H     
46   H         1.9706    4.7220  -23.9848  H     
47   H         3.4061    3.7733  -21.9208  H     
48   H         2.1630    2.5108  -21.8651  H     
49   H         2.4978    3.4555  -20.4340  H     
50   H        -4.7700    6.6304  -18.4415  H     
51   H        -3.6049    5.7589  -19.2111  H     
52   H        -2.2009    7.6349  -15.4923  H     
53   H        -3.5132    8.4006  -16.4243  H     
54   H        -5.0229    5.3511  -16.5772  H     
55   H        -3.8151    4.7733  -15.4914  H     
56   H        -1.6586    4.5680  -17.4263  H     
57   H        -1.7481    4.9487  -15.7271  H     
58   H        -0.7859    5.9446  -16.8099  H     
@<TRIPOS>BOND
     1    1    2 1
     2    1    5 2
     3    2    6 2
     4    2   11 1
     5    3    4 2
     6    3    6 1
     7    4    5 1
     8    4    7 1
     9    7    8 3
    10    9   10 2
    11    9   11 am
    12    9   12 am
    13   12   13 1
    14   13   17 2
    15   13   18 1
    16   14   15 1
    17   14   18 2
    18   14   19 1
    19   15   16 2
    20   15   21 1
    21   16   17 1
    22   17   20 1
    23   20   27 1
    24   21   22 1
    25   22   23 1
    26   23   24 1
    27   24   25 1
    28   24   26 1
    29   27   30 1
    30   28   30 1
    31   28   32 1
    32   29   30 1
    33   29   32 1
    34   30   31 1
    35    1   33 1
    36    3   34 1
    37   11   35 1
    38   12   36 1
    39   16   37 1
    40   18   38 1
    41   22   39 1
    42   22   40 1
    43   23   41 1
    44   23   42 1
    45   24   43 1
    46   25   44 1
    47   25   45 1
    48   25   46 1
    49   26   47 1
    50   26   48 1
    51   26   49 1
    52   27   50 1
    53   27   51 1
    54   28   52 1
    55   28   53 1
    56   29   54 1
    57   29   55 1
    58   31   56 1
    59   31   57 1
    60   31   58 1
@<TRIPOS>PROPERTY_DATA
  Total_Score	| 5.5227
  Crash		| -3.2399
  Polar		| 3.5664
  FragIndex	| 1
  FragRMSD	| 0.857

