@<TRIPOS>MOLECULE
BindingDB_14829
 46 47 0 0 0
SMALL
NO_CHARGES


@<TRIPOS>ATOM
1    C        -0.2156    8.8763  -20.8674  C     
2    C        -0.1102    7.8959  -19.8674  C     
3    C        -1.0393    7.8652  -18.8135  C     
4    C        -2.1099    8.7865  -18.7629  C     
5    C        -2.2123    9.7865  -19.7694  C     
6    C        -1.2571    9.8183  -20.8094  C     
7    Cl        0.9447    8.9721  -22.0965  Cl    
8    O        -2.9509    8.8503  -17.6777  O     
9    N        -3.0502   10.8689  -19.7096  N     
10   C        -4.3265   10.9545  -19.3623  C     
11   O        -4.7554   12.0915  -19.2422  O     
12   N        -5.0909    9.8874  -19.1779  N     
13   C        -6.2900    9.7414  -18.5612  C     
14   C        -7.0611   10.7110  -17.8764  C     
15   C        -7.8290    8.0519  -17.8331  C     
16   N        -8.1543   10.3098  -17.1715  N     
17   N        -6.7275    8.4575  -18.5081  N     
18   C        -8.5619    9.0142  -17.1153  C     
19   C        -9.5619    8.6632  -16.3659  C     
20   N       -10.4291    8.3188  -15.6966  N     
21   C        -3.5270    7.7041  -16.9989  C     
22   C        -3.6471    6.3882  -17.8248  C     
23   C        -2.8791    7.5305  -15.5803  C     
24   N        -3.7953    7.5531  -14.3863  N     
25   C        -4.5825    8.8107  -14.2206  C     
26   C        -4.6521    6.3400  -14.2659  C     
27   H         0.6604    7.2246  -19.8827  H     
28   H        -0.9041    7.1904  -18.0596  H     
29   H        -1.3026   10.5532  -21.5214  H     
30   H        -2.6094   11.7150  -19.9033  H     
31   H        -4.6891    9.0518  -19.4622  H     
32   H        -6.7911   11.6930  -17.8432  H     
33   H        -8.0819    7.0602  -17.8319  H     
34   H        -4.5574    8.0147  -16.8400  H     
35   H        -4.0699    6.5966  -18.8090  H     
36   H        -4.3010    5.6777  -17.3160  H     
37   H        -2.6744    5.9158  -17.9604  H     
38   H        -2.3065    6.5999  -15.5547  H     
39   H        -2.1374    8.3196  -15.4294  H     
40   H        -3.1852    7.5429  -13.5644  H     
41   H        -3.9312    9.6833  -14.2799  H     
42   H        -5.0503    8.8256  -13.2343  H     
43   H        -5.3713    8.9087  -14.9686  H     
44   H        -5.4109    6.3082  -15.0505  H     
45   H        -5.1573    6.3312  -13.2971  H     
46   H        -4.0472    5.4339  -14.3270  H     
@<TRIPOS>BOND
     1    1    2 2
     2    1    6 1
     3    1    7 1
     4    2    3 1
     5    3    4 2
     6    4    5 1
     7    4    8 1
     8    5    6 2
     9    5    9 1
    10    8   21 1
    11    9   10 am
    12   10   11 2
    13   10   12 am
    14   12   13 1
    15   13   14 1
    16   13   17 2
    17   14   16 2
    18   15   17 1
    19   15   18 2
    20   16   18 1
    21   18   19 1
    22   19   20 3
    23   21   22 1
    24   21   23 1
    25   23   24 1
    26   24   25 1
    27   24   26 1
    28    2   27 1
    29    3   28 1
    30    6   29 1
    31    9   30 1
    32   12   31 1
    33   14   32 1
    34   15   33 1
    35   21   34 1
    36   22   35 1
    37   22   36 1
    38   22   37 1
    39   23   38 1
    40   23   39 1
    41   24   40 1
    42   25   41 1
    43   25   42 1
    44   25   43 1
    45   26   44 1
    46   26   45 1
    47   26   46 1
@<TRIPOS>PROPERTY_DATA
  Total_Score	| 5.2589
  Crash		| -1.1771
  Polar		| 2.5206
  FragIndex	| 1
  FragRMSD	| 0.968

