@<TRIPOS>MOLECULE
BindingDB_14605
 33 34 0 0 0
SMALL
NO_CHARGES


@<TRIPOS>ATOM
1    C        -7.8998   10.9369  -18.4814  C     
2    C        -6.6369   10.3534  -18.7339  C     
3    C        -7.2559    8.5102  -17.3268  C     
4    C        -8.5058    9.1103  -17.0776  C     
5    N        -8.7831   10.3038  -17.6651  N     
6    N        -6.3808    9.1559  -18.1378  N     
7    C        -9.3866    8.5554  -16.3005  C     
8    N       -10.1600    8.0587  -15.6097  N     
9    C        -4.5294   10.7043  -19.8942  C     
10   O        -3.9952   11.5673  -20.5714  O     
11   N        -5.7651   11.0141  -19.5300  N     
12   N        -3.8868    9.5968  -19.5228  N     
13   C        -2.6088    9.1620  -19.7774  C     
14   C        -0.4654    9.2019  -21.0003  C     
15   C         0.0450    8.1910  -20.1565  C     
16   C        -0.7755    7.6566  -19.1428  C     
17   C        -2.0923    8.1306  -18.9537  C     
18   C        -1.7848    9.6575  -20.8199  C     
19   Cl        0.4781    9.9044  -22.2297  Cl    
20   O        -2.8441    7.6188  -17.9251  O     
21   C        -3.3057    6.2705  -18.1420  C     
22   N         1.3007    7.7265  -20.3156  N     
23   H        -8.1595   11.8367  -18.8960  H     
24   H        -6.9955    7.6118  -16.9146  H     
25   H        -6.0973   11.8577  -19.8756  H     
26   H        -4.3905    9.0101  -18.9440  H     
27   H        -0.4140    6.9261  -18.5203  H     
28   H        -2.1475   10.3457  -21.4809  H     
29   H        -3.8156    6.1658  -19.1055  H     
30   H        -4.0153    6.0153  -17.3531  H     
31   H        -2.4620    5.5705  -18.0946  H     
32   H         1.6381    7.0296  -19.7330  H     
33   H         1.8729    8.0817  -21.0173  H     
@<TRIPOS>BOND
     1    1    2 1
     2    1    5 2
     3    2    6 2
     4    2   11 1
     5    3    4 2
     6    3    6 1
     7    4    5 1
     8    4    7 1
     9    7    8 3
    10    9   10 2
    11    9   11 am
    12    9   12 am
    13   12   13 1
    14   13   17 2
    15   13   18 1
    16   14   15 1
    17   14   18 2
    18   14   19 1
    19   15   16 2
    20   15   22 1
    21   16   17 1
    22   17   20 1
    23   20   21 1
    24    1   23 1
    25    3   24 1
    26   11   25 1
    27   12   26 1
    28   16   27 1
    29   18   28 1
    30   21   29 1
    31   21   30 1
    32   21   31 1
    33   22   32 1
    34   22   33 1
@<TRIPOS>PROPERTY_DATA
  Total_Score	| 7.5408
  Crash		| -0.4160
  Polar		| 3.5099
  FragIndex	| 1
  FragRMSD	| 0.129

