@<TRIPOS>MOLECULE
BindingDB_91926
 47 49 0 0 0
SMALL
NO_CHARGES


@<TRIPOS>ATOM
1    Cl        0.9881   10.1067  -22.3545  Cl    
2    C        -0.1075    9.4609  -21.2361  C     
3    C         0.2288    8.3360  -20.4611  C     
4    C        -0.7125    7.7853  -19.5715  C     
5    C        -2.0047    8.3520  -19.4484  C     
6    O        -3.0224    7.7966  -18.6870  O     
7    C        -3.0016    6.4298  -18.2117  C     
8    C        -2.7251    6.3711  -16.6813  C     
9    C        -3.4635    7.5179  -15.9158  C     
10   C        -3.2436    7.4354  -14.3854  C     
11   C        -3.6624    6.0593  -13.8231  C     
12   C        -2.9186    4.9064  -14.5517  C     
13   C        -3.1183    4.9790  -16.0864  C     
14   C        -2.3127    9.5360  -20.1797  C     
15   N        -3.5175   10.1791  -20.1000  N     
16   C        -4.2539   10.2661  -19.0022  C     
17   O        -3.7604   10.0262  -17.9100  O     
18   N        -5.5302   10.5859  -19.1387  N     
19   C        -6.5298   10.2093  -18.2986  C     
20   C        -7.8654   10.5679  -18.5859  C     
21   N        -8.8727   10.0705  -17.8204  N     
22   C        -8.6434    9.2376  -16.7739  C     
23   C        -7.3185    8.8852  -16.4588  C     
24   N        -6.3234    9.3745  -17.2402  N     
25   C        -9.6498    8.7617  -16.1149  C     
26   N       -10.5463    8.3406  -15.5263  N     
27   C        -1.3765   10.0545  -21.0930  C     
28   H         1.1539    7.9089  -20.5490  H     
29   H        -0.4580    6.9416  -19.0458  H     
30   H        -3.9823    5.9910  -18.4294  H     
31   H        -2.2523    5.8430  -18.7537  H     
32   H        -1.6450    6.5091  -16.5301  H     
33   H        -3.0896    8.4862  -16.2624  H     
34   H        -4.5355    7.4757  -16.1312  H     
35   H        -2.1873    7.6228  -14.1548  H     
36   H        -3.8383    8.2192  -13.8966  H     
37   H        -3.4331    6.0187  -12.7560  H     
38   H        -4.7410    5.9241  -13.9513  H     
39   H        -1.8546    4.9583  -14.3141  H     
40   H        -3.2957    3.9487  -14.1827  H     
41   H        -2.5000    4.2068  -16.5541  H     
42   H        -4.1662    4.7616  -16.3218  H     
43   H        -3.8840   10.5311  -20.9278  H     
44   H        -5.8000   10.9953  -19.9747  H     
45   H        -8.0825   11.1774  -19.3731  H     
46   H        -7.0868    8.2595  -15.6866  H     
47   H        -1.6083   10.8692  -21.6704  H     
@<TRIPOS>BOND
     1    1    2 1
     2    2    3 ar
     3    3    4 ar
     4    4    5 ar
     5    5    6 1
     6    6    7 1
     7    7    8 1
     8    8    9 1
     9    9   10 1
    10   10   11 1
    11   11   12 1
    12   12   13 1
    13    8   13 1
    14    5   14 ar
    15   14   15 1
    16   15   16 am
    17   16   17 2
    18   16   18 am
    19   18   19 1
    20   19   20 ar
    21   20   21 ar
    22   21   22 ar
    23   22   23 ar
    24   23   24 ar
    25   19   24 ar
    26   22   25 1
    27   25   26 3
    28   14   27 ar
    29    2   27 ar
    30    3   28 1
    31    4   29 1
    32    7   30 1
    33    7   31 1
    34    8   32 1
    35    9   33 1
    36    9   34 1
    37   10   35 1
    38   10   36 1
    39   11   37 1
    40   11   38 1
    41   12   39 1
    42   12   40 1
    43   13   41 1
    44   13   42 1
    45   15   43 1
    46   18   44 1
    47   20   45 1
    48   23   46 1
    49   27   47 1
@<TRIPOS>PROPERTY_DATA
  Total_Score	| 4.6931
  Crash		| -1.1735
  Polar		| 1.1347
  FragIndex	| 1
  FragRMSD	| 0.929

