@<TRIPOS>MOLECULE
BindingDB_14830
 42 44 0 0 0
SMALL
NO_CHARGES


@<TRIPOS>ATOM
1    C        -0.0675    9.2308  -21.2620  C     
2    C         0.0857    8.0794  -20.4752  C     
3    C        -0.8527    7.7908  -19.4719  C     
4    C        -1.9734    8.6276  -19.2513  C     
5    C        -2.1221    9.8088  -20.0353  C     
6    C        -1.1584   10.0880  -21.0337  C     
7    Cl        1.0788    9.6091  -22.4504  Cl    
8    O        -2.7319    8.4089  -18.1300  O     
9    N        -2.9905   10.8426  -19.8016  N     
10   C        -4.2573   10.8903  -19.4172  C     
11   O        -4.6972   12.0198  -19.2684  O     
12   N        -5.0161    9.8212  -19.2408  N     
13   C        -6.2306    9.6769  -18.6503  C     
14   C        -7.0775   10.6686  -18.0901  C     
15   C        -7.7138    7.9892  -17.8057  C     
16   N        -8.1750   10.2827  -17.3823  N     
17   N        -6.6093    8.3827  -18.4845  N     
18   C        -8.5207    8.9782  -17.2110  C     
19   C        -9.5231    8.6556  -16.4503  C     
20   N       -10.3895    8.3441  -15.7635  N     
21   C        -3.2928    7.0924  -17.9266  C     
22   C        -3.7832    6.9021  -16.4566  C     
23   C        -2.8533    7.4926  -15.3776  C     
24   C        -4.7928    7.9453  -15.9365  C     
25   C        -4.2067    5.4339  -16.1636  C     
26   O        -3.8850    8.3762  -14.9121  O     
27   H         0.8858    7.4585  -20.6161  H     
28   H        -0.6868    6.9807  -18.8722  H     
29   H        -1.2324   10.9450  -21.5911  H     
30   H        -2.6040   11.7162  -19.9925  H     
31   H        -4.6112    8.9937  -19.5200  H     
32   H        -6.8655   11.6628  -18.1540  H     
33   H        -7.9162    6.9885  -17.7103  H     
34   H        -4.1285    6.9409  -18.6133  H     
35   H        -2.5516    6.3150  -18.1295  H     
36   H        -2.5433    6.7946  -14.5958  H     
37   H        -2.0048    8.0611  -15.7646  H     
38   H        -4.9969    8.7676  -16.6249  H     
39   H        -5.7146    7.5344  -15.5144  H     
40   H        -5.0055    5.1351  -16.8402  H     
41   H        -4.5614    5.3119  -15.1371  H     
42   H        -3.3585    4.7643  -16.3120  H     
@<TRIPOS>BOND
     1    1    2 2
     2    1    6 1
     3    1    7 1
     4    2    3 1
     5    3    4 2
     6    4    5 1
     7    4    8 1
     8    5    6 2
     9    5    9 1
    10    8   21 1
    11    9   10 am
    12   10   11 2
    13   10   12 am
    14   12   13 1
    15   13   14 1
    16   13   17 2
    17   14   16 2
    18   15   17 1
    19   15   18 2
    20   16   18 1
    21   18   19 1
    22   19   20 3
    23   21   22 1
    24   22   23 1
    25   22   24 1
    26   22   25 1
    27   23   26 1
    28   24   26 1
    29    2   27 1
    30    3   28 1
    31    6   29 1
    32    9   30 1
    33   12   31 1
    34   14   32 1
    35   15   33 1
    36   21   34 1
    37   21   35 1
    38   23   36 1
    39   23   37 1
    40   24   38 1
    41   24   39 1
    42   25   40 1
    43   25   41 1
    44   25   42 1
@<TRIPOS>PROPERTY_DATA
  Total_Score	| 2.6683
  Crash		| -1.1022
  Polar		| 1.0051
  FragIndex	| 1
  FragRMSD	| 0.856

