@<TRIPOS>MOLECULE
BindingDB_10900
 47 48 0 0 0
SMALL
NO_CHARGES


@<TRIPOS>ATOM
1    C        14.9263    4.5454   16.4858  C     
2    C        15.7856    4.2436   15.4099  C     
3    C        16.2048    5.2609   14.5326  C     
4    C        15.7926    6.6013   14.7318  C     
5    C        14.9678    6.9009   15.8380  C     
6    C        14.5230    5.8811   16.6963  C     
7    S        14.3043    3.2737   17.5029  S     
8    O        14.2768    3.7658   19.0147  O     
9    O        12.8020    3.0142   17.0665  O     
10   N        15.1288    1.8147   17.3956  N     
11   C        16.1013    7.6552   13.7296  C     
12   N        17.4378    8.1483   13.8632  N     
13   S        18.7916    7.5907   13.0111  S     
14   O        19.1197    8.6350   11.8512  O     
15   O        20.0381    7.5133   13.9992  O     
16   C        18.4972    6.0434   12.2714  C     
17   C        17.3754    5.9216   11.4351  C     
18   C        19.2365    4.8920   12.5986  C     
19   C        18.7763    3.6247   12.1806  C     
20   C        17.5431    3.4586   11.4907  C     
21   C        16.8986    4.6507   11.0652  C     
22   C        16.9321    2.0729   11.3279  C     
23   C        17.9531    1.1192   10.6308  C     
24   C        16.5541    1.4999   12.7361  C     
25   C        15.6102    2.0478   10.4858  C     
26   H        16.0854    3.2797   15.2346  H     
27   H        16.7725    5.0173   13.7154  H     
28   H        14.6435    7.8580   15.9971  H     
29   H        13.8797    6.1164   17.4499  H     
30   H        14.8029    1.0380   17.8709  H     
31   H        15.8985    1.7300   16.8101  H     
32   H        15.8785    7.2695   12.7253  H     
33   H        15.4279    8.5073   13.8688  H     
34   H        17.6086    8.8008   14.5695  H     
35   H        16.8279    6.7684   11.2076  H     
36   H        20.0693    4.9568   13.1912  H     
37   H        19.3150    2.8104   12.4668  H     
38   H        16.0282    4.6289   10.5389  H     
39   H        18.3052    1.5627    9.6970  H     
40   H        17.5000    0.1505   10.3955  H     
41   H        18.8215    0.9241   11.2622  H     
42   H        17.4185    1.4600   13.4034  H     
43   H        16.1594    0.4836   12.6551  H     
44   H        15.7863    2.1194   13.2080  H     
45   H        14.8478    2.6943   10.9366  H     
46   H        15.1809    1.0455   10.4384  H     
47   H        15.7877    2.3827    9.4599  H     
@<TRIPOS>BOND
     1    1    2 2
     2    1    6 1
     3    1    7 1
     4    2    3 1
     5    3    4 2
     6    4    5 1
     7    4   11 1
     8    5    6 2
     9    7    8 2
    10    7    9 2
    11    7   10 am
    12   11   12 1
    13   12   13 1
    14   13   14 2
    15   13   15 2
    16   13   16 1
    17   16   17 2
    18   16   18 1
    19   17   21 1
    20   18   19 2
    21   19   20 1
    22   20   21 2
    23   20   22 1
    24   22   23 1
    25   22   24 1
    26   22   25 1
    27    2   26 1
    28    3   27 1
    29    5   28 1
    30    6   29 1
    31   10   30 1
    32   10   31 1
    33   11   32 1
    34   11   33 1
    35   12   34 1
    36   17   35 1
    37   18   36 1
    38   19   37 1
    39   21   38 1
    40   23   39 1
    41   23   40 1
    42   23   41 1
    43   24   42 1
    44   24   43 1
    45   24   44 1
    46   25   45 1
    47   25   46 1
    48   25   47 1
@<TRIPOS>PROPERTY_DATA
  Total_Score	| 5.5640
  Crash		| -2.4916
  Polar		| 0.0099
  FragIndex	| 1
  FragRMSD	| 0.501

