@<TRIPOS>MOLECULE
BindingDB_50247721
 35 36 0 0 0
SMALL
NO_CHARGES


@<TRIPOS>ATOM
1    C        18.6970    3.7753   10.9881  C     
2    C        18.7874    2.3705   10.8961  C     
3    C        17.6381    1.5950   10.6817  C     
4    C        16.3765    2.2196   10.5899  C     
5    C        16.2821    3.6232   10.6755  C     
6    C        17.4320    4.4102   10.8757  C     
7    F        17.7322    0.2979   10.5844  F     
8    S        17.2798    6.1464   10.9384  S     
9    N        16.1863    6.7440   12.0758  N     
10   O        18.6586    6.9368   10.9233  O     
11   O        16.6543    6.5675    9.5351  O     
12   C        16.5526    7.2368   13.3619  C     
13   C        16.0048    6.3655   14.4335  C     
14   C        16.4281    5.0224   14.5388  C     
15   C        15.9172    4.1750   15.5434  C     
16   C        14.9893    4.6802   16.4826  C     
17   C        14.5666    6.0144   16.3946  C     
18   C        15.0750    6.8561   15.3872  C     
19   S        14.3703    3.6573   17.7491  S     
20   N        14.2560    4.5320   19.1783  N     
21   O        12.9525    3.0963   17.3038  O     
22   O        15.4205    2.5009   18.0396  O     
23   H        19.5450    4.3262   11.1263  H     
24   H        19.7063    1.9230   10.9532  H     
25   H        15.5347    1.6665   10.4364  H     
26   H        15.3623    4.0636   10.5851  H     
27   H        15.2356    6.6948   11.8619  H     
28   H        17.6372    7.3047   13.4808  H     
29   H        16.1516    8.2469   13.4513  H     
30   H        17.1152    4.6446   13.8776  H     
31   H        16.2329    3.2043   15.5819  H     
32   H        13.8884    6.3931   17.0571  H     
33   H        14.7606    7.8256   15.3510  H     
34   H        14.0846    4.0707   20.0174  H     
35   H        14.4523    5.4830   19.1749  H     
@<TRIPOS>BOND
     1    1    2 2
     2    1    6 1
     3    2    3 1
     4    3    4 2
     5    3    7 1
     6    4    5 1
     7    5    6 2
     8    6    8 1
     9    8    9 1
    10    8   10 2
    11    8   11 2
    12    9   12 1
    13   12   13 1
    14   13   14 2
    15   13   18 1
    16   14   15 1
    17   15   16 2
    18   16   17 1
    19   16   19 1
    20   17   18 2
    21   19   20 am
    22   19   21 2
    23   19   22 2
    24    1   23 1
    25    2   24 1
    26    4   25 1
    27    5   26 1
    28    9   27 1
    29   12   28 1
    30   12   29 1
    31   14   30 1
    32   15   31 1
    33   17   32 1
    34   18   33 1
    35   20   34 1
    36   20   35 1
@<TRIPOS>PROPERTY_DATA
  Total_Score	| 5.0370
  Crash		| -1.2702
  Polar		| 1.6754
  FragIndex	| 1
  FragRMSD	| 0.705

