@<TRIPOS>MOLECULE
BindingDB_10871
 37 38 0 0 0
SMALL
NO_CHARGES


@<TRIPOS>ATOM
1    C        17.3462    4.7025   10.9290  C     
2    C        16.2400    3.8318   10.8049  C     
3    C        16.4215    2.4365   10.8363  C     
4    C        17.7153    1.9022   10.9947  C     
5    C        18.8228    2.7611   11.1287  C     
6    C        18.6373    4.1560   11.0989  C     
7    N        17.8990    0.5711   11.0196  N     
8    O        18.4368    7.2788   10.9653  O     
9    O        16.3712    6.8754    9.6144  O     
10   S        17.0921    6.4231   10.9608  S     
11   N        16.1059    6.8771   12.2508  N     
12   C        16.6036    7.1469   13.5576  C     
13   C        16.0291    6.1972   14.5406  C     
14   C        15.8737    3.9173   15.4374  C     
15   C        16.4161    4.8357   14.5213  C     
16   C        15.0967    6.6248   15.5118  C     
17   C        14.5589    5.7075   16.4327  C     
18   C        14.9446    4.3484   16.4041  C     
19   O        14.4216    3.8253   19.0120  O     
20   S        14.2692    3.2223   17.5490  S     
21   O        12.7218    3.1084   17.2020  O     
22   N        14.9502    1.6855   17.5125  N     
23   H        15.2937    4.2063   10.7058  H     
24   H        15.6091    1.8202   10.7473  H     
25   H        19.7642    2.3791   11.2539  H     
26   H        19.4493    4.7696   11.2154  H     
27   H        18.7943    0.2076   11.1178  H     
28   H        17.1400   -0.0276   10.9357  H     
29   H        15.1453    6.8475   12.1213  H     
30   H        17.6933    7.0784   13.6083  H     
31   H        16.3328    8.1782   13.7932  H     
32   H        16.1666    2.9396   15.3895  H     
33   H        17.1041    4.5013   13.8386  H     
34   H        14.8016    7.6014   15.5497  H     
35   H        13.8785    6.0379   17.1222  H     
36   H        14.5600    0.9720   18.0405  H     
37   H        15.7837    1.5283   17.0411  H     
@<TRIPOS>BOND
     1    1    2 2
     2    1    6 1
     3    1   10 1
     4    2    3 1
     5    3    4 2
     6    4    5 1
     7    4    7 1
     8    5    6 2
     9    8   10 2
    10    9   10 2
    11   10   11 1
    12   11   12 1
    13   12   13 1
    14   13   15 1
    15   13   16 2
    16   14   15 2
    17   14   18 1
    18   16   17 1
    19   17   18 2
    20   18   20 1
    21   19   20 2
    22   20   21 2
    23   20   22 am
    24    2   23 1
    25    3   24 1
    26    5   25 1
    27    6   26 1
    28    7   27 1
    29    7   28 1
    30   11   29 1
    31   12   30 1
    32   12   31 1
    33   14   32 1
    34   15   33 1
    35   16   34 1
    36   17   35 1
    37   22   36 1
    38   22   37 1
@<TRIPOS>PROPERTY_DATA
  Total_Score	| 5.7809
  Crash		| -0.7064
  Polar		| 0.9322
  FragIndex	| 1
  FragRMSD	| 0.459

