@<TRIPOS>MOLECULE
BindingDB_12155
 43 44 0 0 0
SMALL
NO_CHARGES


@<TRIPOS>ATOM
1    C        15.7502    7.0904   14.9068  C     
2    C        14.9993    4.6579   16.1365  C     
3    C        14.7280    5.8983   16.7555  C     
4    C        15.1004    7.1082   16.1471  C     
5    C        16.0047    5.8706   14.2686  C     
6    C        15.6213    4.6366   14.8575  C     
7    O        14.3576    1.9077   16.1165  O     
8    O        15.5770    2.8404   18.0854  O     
9    S        14.4855    3.2233   16.9949  S     
10   N        13.0274    3.3605   17.8117  N     
11   C        15.9091    3.4870   14.1366  C     
12   O        16.7417    2.7063   14.5760  O     
13   N        15.4674    3.3960   12.8835  N     
14   N        15.9157    2.5934   11.9493  N     
15   C        17.0867    2.7379   11.3436  C     
16   O        17.2535    2.0948   10.3152  O     
17   N        18.0000    3.5940   11.7869  N     
18   S        19.4399    3.9820   10.9935  S     
19   O        20.4359    4.4112   12.1636  O     
20   O        20.0857    2.6547   10.3930  O     
21   C        19.3223    5.2846    9.8261  C     
22   C        18.0383    5.8431    9.6014  C     
23   C        17.8551    6.8730    8.6639  C     
24   C        18.9509    7.3540    7.9330  C     
25   C        20.2341    6.8275    8.1612  C     
26   C        20.4416    5.7861    9.1000  C     
27   C        21.8212    5.2676    9.3031  C     
28   H        16.0113    7.9671   14.4513  H     
29   H        14.2584    5.9282   17.6620  H     
30   H        14.8921    8.0024   16.5965  H     
31   H        16.4692    5.8999   13.3558  H     
32   H        12.1999    3.2591   17.3038  H     
33   H        13.0233    3.2800   18.7847  H     
34   H        14.7671    4.0183   12.6065  H     
35   H        15.2550    2.0422   11.4963  H     
36   H        17.7983    4.0872   12.5988  H     
37   H        17.2221    5.5167   10.1272  H     
38   H        16.9201    7.2642    8.5108  H     
39   H        18.8211    8.1025    7.2491  H     
40   H        21.0189    7.2147    7.6337  H     
41   H        22.1275    5.4315   10.3388  H     
42   H        22.5419    5.7654    8.6485  H     
43   H        21.8654    4.1998    9.0913  H     
@<TRIPOS>BOND
     1    1    4 2
     2    1    5 1
     3    2    3 2
     4    2    6 1
     5    2    9 1
     6    3    4 1
     7    5    6 2
     8    6   11 1
     9    7    9 2
    10    8    9 2
    11    9   10 am
    12   11   12 2
    13   11   13 am
    14   13   14 1
    15   14   15 am
    16   15   16 2
    17   15   17 am
    18   17   18 1
    19   18   19 2
    20   18   20 2
    21   18   21 1
    22   21   22 2
    23   21   26 1
    24   22   23 1
    25   23   24 2
    26   24   25 1
    27   25   26 2
    28   26   27 1
    29    1   28 1
    30    3   29 1
    31    4   30 1
    32    5   31 1
    33   10   32 1
    34   10   33 1
    35   13   34 1
    36   14   35 1
    37   17   36 1
    38   22   37 1
    39   23   38 1
    40   24   39 1
    41   25   40 1
    42   27   41 1
    43   27   42 1
    44   27   43 1
@<TRIPOS>PROPERTY_DATA
  Total_Score	| 5.3510
  Crash		| -2.9243
  Polar		| 3.9453
  FragIndex	| 1
  FragRMSD	| 1.191

