@<TRIPOS>MOLECULE
BindingDB_29278
 17 18 0 0 0
SMALL
NO_CHARGES


@<TRIPOS>ATOM
1    S        14.1712    3.2952   17.3510  S     
2    O        12.6498    3.3154   16.8876  O     
3    O        14.5316    3.6710   18.8532  O     
4    O        16.8016    2.0446   15.0828  O     
5    N        15.1868    2.1926   16.5893  N     
6    C        14.8883    4.5792   16.4532  C     
7    C        15.8819    4.0896   15.5960  C     
8    C        15.9998    2.7255   15.7014  C     
9    C        14.5977    5.9531   16.5267  C     
10   C        16.6189    4.9814   14.7919  C     
11   C        15.3328    6.8472   15.7237  C     
12   C        16.3392    6.3628   14.8591  C     
13   H        15.2307    1.2543   16.8428  H     
14   H        13.8666    6.2971   17.1540  H     
15   H        17.3451    4.6401   14.1606  H     
16   H        15.1359    7.8534   15.7708  H     
17   H        16.8631    7.0209   14.2719  H     
@<TRIPOS>BOND
     1    1    2 2
     2    1    3 2
     3    1    5 1
     4    1    6 1
     5    4    8 2
     6    5    8 1
     7    6    7 1
     8    6    9 2
     9    7    8 1
    10    7   10 2
    11    9   11 1
    12   10   12 1
    13   11   12 2
    14    5   13 1
    15    9   14 1
    16   10   15 1
    17   11   16 1
    18   12   17 1
@<TRIPOS>PROPERTY_DATA
  Total_Score	| 4.3681
  Crash		| -0.3693
  Polar		| 1.3145
  FragIndex	| 1
  FragRMSD	| 0.241

