@<TRIPOS>MOLECULE
BindingDB_16659
 35 36 0 0 0
SMALL
NO_CHARGES


@<TRIPOS>ATOM
1    C        14.9027    4.7325   16.2261  C     
2    C        15.8696    4.3862   15.2651  C     
3    C        16.5181    5.3799   14.5084  C     
4    C        16.2132    6.7541   14.7014  C     
5    C        15.2703    7.0909   15.6989  C     
6    C        14.6065    6.0939   16.4393  C     
7    S        14.0865    3.5217   17.1748  S     
8    O        12.5131    3.7067   17.0001  O     
9    O        14.5004    2.0523   16.7242  O     
10   N        14.4526    3.7610   18.7931  N     
11   C        16.8355    7.8484   13.9076  C     
12   N        17.4861    7.4525   12.7071  N     
13   C        19.6130    5.9741   11.6083  C     
14   C        19.9232    6.0535   10.2303  C     
15   C        19.6161    4.7141   12.2430  C     
16   C        19.8928    3.5457   11.5109  C     
17   C        20.1988    3.6304   10.1391  C     
18   C        20.2128    4.8853    9.5019  C     
19   S        19.1583    7.3967   12.5040  S     
20   O        19.6763    8.7349   11.8089  O     
21   O        19.8409    7.2967   13.9420  O     
22   H        16.1120    3.4024   15.1079  H     
23   H        17.2030    5.0971   13.8102  H     
24   H        15.0443    8.0731   15.8744  H     
25   H        13.9139    6.3838   17.1358  H     
26   H        14.0181    3.2050   19.4621  H     
27   H        14.7940    4.6304   19.0643  H     
28   H        16.0400    8.5270   13.5973  H     
29   H        17.5136    8.4146   14.5430  H     
30   H        16.9381    7.1390   11.9680  H     
31   H        19.9219    6.9573    9.7538  H     
32   H        19.4061    4.6326   13.2386  H     
33   H        19.8757    2.6314   11.9720  H     
34   H        20.4051    2.7821    9.6069  H     
35   H        20.4293    4.9468    8.5025  H     
@<TRIPOS>BOND
     1    1    2 1
     2    1    6 2
     3    1    7 1
     4    2    3 2
     5    3    4 1
     6    4    5 2
     7    4   11 1
     8    5    6 1
     9    7    8 2
    10    7    9 2
    11    7   10 am
    12   11   12 1
    13   12   19 1
    14   13   14 1
    15   13   15 2
    16   13   19 1
    17   14   18 2
    18   15   16 1
    19   16   17 2
    20   17   18 1
    21   19   20 2
    22   19   21 2
    23    2   22 1
    24    3   23 1
    25    5   24 1
    26    6   25 1
    27   10   26 1
    28   10   27 1
    29   11   28 1
    30   11   29 1
    31   12   30 1
    32   14   31 1
    33   15   32 1
    34   16   33 1
    35   17   34 1
    36   18   35 1
@<TRIPOS>PROPERTY_DATA
  Total_Score	| 4.8517
  Crash		| -1.7818
  Polar		| 1.5434
  FragIndex	| 1
  FragRMSD	| 0.870

