@<TRIPOS>MOLECULE
BindingDB_12153
 23 23 0 0 0
SMALL
NO_CHARGES


@<TRIPOS>ATOM
1    C        16.3281    6.6862   14.7366  C     
2    C        15.0119    4.6253   16.1687  C     
3    C        14.8108    5.9915   16.4908  C     
4    C        15.4491    7.0141   15.7739  C     
5    C        16.5201    5.3410   14.3854  C     
6    C        15.8403    4.2768   15.0470  C     
7    O        12.5949    3.6608   17.2540  O     
8    O        14.2988    2.0079   16.6276  O     
9    S        14.1774    3.4827   17.2125  S     
10   N        14.6433    3.3870   18.8262  N     
11   C        16.0087    2.9682   14.5417  C     
12   O        15.7042    1.9860   15.2042  O     
13   N        16.4073    2.7378   13.2908  N     
14   N        16.5536    1.5924   12.7692  N     
15   H        16.8202    7.4276   14.2305  H     
16   H        14.1983    6.2695   17.2617  H     
17   H        15.2903    7.9941   16.0226  H     
18   H        17.1782    5.1594   13.6232  H     
19   H        14.2938    4.0344   19.4571  H     
20   H        15.0532    2.5704   19.1609  H     
21   H        16.5856    3.4949   12.7146  H     
22   H        16.8335    1.5179   11.8822  H     
23   H        16.3892    0.8185   13.2697  H     
@<TRIPOS>BOND
     1    1    4 2
     2    1    5 1
     3    2    3 2
     4    2    6 1
     5    2    9 1
     6    3    4 1
     7    5    6 2
     8    6   11 1
     9    7    9 2
    10    8    9 2
    11    9   10 am
    12   11   12 2
    13   11   13 am
    14   13   14 1
    15    1   15 1
    16    3   16 1
    17    4   17 1
    18    5   18 1
    19   10   19 1
    20   10   20 1
    21   13   21 1
    22   14   22 1
    23   14   23 1
@<TRIPOS>PROPERTY_DATA
  Total_Score	| 5.0891
  Crash		| -2.2785
  Polar		| 3.7214
  FragIndex	| 1
  FragRMSD	| 0.919

