@<TRIPOS>MOLECULE
BindingDB_31153
 19 20 0 0 0
SMALL
NO_CHARGES


@<TRIPOS>ATOM
1    C        11.7130  -35.5215   35.4844  C     
2    C        10.5246  -34.9297   35.9508  C     
3    C         9.4268  -34.7713   35.0881  C     
4    C         9.5058  -35.1967   33.7480  C     
5    C        10.6967  -35.7907   33.2709  C     
6    C        11.8084  -35.9530   34.1443  C     
7    C        12.9633  -36.5479   33.6236  C     
8    N        10.8231  -36.2299   31.9766  N     
9    C        11.9396  -36.7921   31.5093  C     
10   C        13.0175  -36.9609   32.3441  C     
11   O        14.1262  -37.5258   31.8742  O     
12   O        11.9715  -37.1476   30.3407  O     
13   Cl        8.1491  -34.9809   32.7565  Cl    
14   H        12.5028  -35.6309   36.1312  H     
15   H        10.4551  -34.6155   36.9181  H     
16   H         8.5676  -34.3429   35.4445  H     
17   H        13.7598  -36.6830   34.2118  H     
18   H        10.0813  -36.1143   31.3679  H     
19   H        14.8078  -36.8213   31.8739  H     
@<TRIPOS>BOND
     1    1    2 1
     2    1    6 2
     3    2    3 2
     4    3    4 1
     5    4    5 2
     6    4   13 1
     7    5    6 1
     8    5    8 1
     9    6    7 1
    10    7   10 2
    11    8    9 1
    12    9   10 1
    13    9   12 2
    14   10   11 1
    15    1   14 1
    16    2   15 1
    17    3   16 1
    18    7   17 1
    19    8   18 1
    20   11   19 1
@<TRIPOS>PROPERTY_DATA
  Total_Score	| 5.9659
  Crash		| -0.4782
  Polar		| 4.4176
  FragIndex	| 1
  FragRMSD	| 0.135

