@<TRIPOS>MOLECULE
BindingDB_31151
 19 20 0 0 0
SMALL
NO_CHARGES


@<TRIPOS>ATOM
1    C        11.5534  -35.4327   35.3752  C     
2    C        10.3442  -34.7995   35.7272  C     
3    C         9.3206  -34.6370   34.7721  C     
4    C         9.5022  -35.1031   33.4568  C     
5    C        10.7081  -35.7346   33.0978  C     
6    C        11.7439  -35.9038   34.0570  C     
7    C        12.9193  -36.5337   33.6349  C     
8    N        10.9116  -36.1955   31.8226  N     
9    C        12.0467  -36.7908   31.4614  C     
10   C        13.0609  -36.9628   32.3625  C     
11   O        14.1938  -37.5374   31.9749  O     
12   O        12.1580  -37.1702   30.3049  O     
13   F        10.1671  -34.3562   36.9401  F     
14   H        12.2899  -35.5439   36.0789  H     
15   H         8.4465  -34.1711   35.0283  H     
16   H         8.7551  -34.9770   32.7676  H     
17   H        13.6611  -36.6678   34.2828  H     
18   H        10.2131  -36.0775   31.1615  H     
19   H        14.8694  -36.8266   32.0120  H     
@<TRIPOS>BOND
     1    1    2 1
     2    1    6 2
     3    2    3 2
     4    2   13 1
     5    3    4 1
     6    4    5 2
     7    5    6 1
     8    5    8 1
     9    6    7 1
    10    7   10 2
    11    8    9 1
    12    9   10 1
    13    9   12 2
    14   10   11 1
    15    1   14 1
    16    3   15 1
    17    4   16 1
    18    7   17 1
    19    8   18 1
    20   11   19 1
@<TRIPOS>PROPERTY_DATA
  Total_Score	| 6.4068
  Crash		| -0.3407
  Polar		| 4.3867
  FragIndex	| 1
  FragRMSD	| 0.081

