@<TRIPOS>MOLECULE
BindingDB_31171
 22 23 0 0 0
SMALL
NO_CHARGES


@<TRIPOS>ATOM
1    C        11.9376  -35.2738   35.3581  C     
2    C        10.7281  -34.7988   35.8970  C     
3    C         9.5347  -34.9522   35.1801  C     
4    C         9.5379  -35.5873   33.9273  C     
5    C        10.7443  -36.0805   33.3497  C     
6    C        11.9520  -35.9113   34.0904  C     
7    C        13.1357  -36.3967   33.5476  C     
8    N        10.8103  -36.7441   32.1088  N     
9    C        12.0040  -37.1668   31.6355  C     
10   C        13.1568  -37.0087   32.3451  C     
11   O        14.3012  -37.4640   31.8416  O     
12   O        12.1195  -37.6922   30.5308  O     
13   C         9.6031  -36.9664   31.3377  C     
14   H        12.8003  -35.1573   35.8938  H     
15   H        10.7128  -34.3446   36.8115  H     
16   H         8.6585  -34.6060   35.5790  H     
17   H         8.6408  -35.6984   33.4512  H     
18   H        13.9898  -36.2714   34.0465  H     
19   H        14.8838  -36.6758   31.7643  H     
20   H         8.8994  -37.5775   31.9114  H     
21   H         9.7545  -37.4623   30.3710  H     
22   H         9.1410  -36.0000   31.1329  H     
@<TRIPOS>BOND
     1    1    2 1
     2    1    6 2
     3    2    3 2
     4    3    4 1
     5    4    5 2
     6    5    6 1
     7    5    8 1
     8    6    7 1
     9    7   10 2
    10    8    9 1
    11    8   13 1
    12    9   10 1
    13    9   12 2
    14   10   11 1
    15    1   14 1
    16    2   15 1
    17    3   16 1
    18    4   17 1
    19    7   18 1
    20   11   19 1
    21   13   20 1
    22   13   21 1
    23   13   22 1
@<TRIPOS>PROPERTY_DATA
  Total_Score	| 2.5870
  Crash		| -2.5408
  Polar		| 3.1971
  FragIndex	| 1
  FragRMSD	| 0.405

