@<TRIPOS>MOLECULE
BindingDB_31160
 22 23 0 0 0
SMALL
NO_CHARGES


@<TRIPOS>ATOM
1    C        11.3428  -35.5131   35.2494  C     
2    C        10.1223  -34.8545   35.5271  C     
3    C         9.1679  -34.6404   34.5209  C     
4    C         9.4127  -35.0968   33.2182  C     
5    C        10.6182  -35.7554   32.9189  C     
6    C        11.6083  -35.9682   33.9232  C     
7    C        12.7886  -36.6133   33.4984  C     
8    N        10.8573  -36.1915   31.6428  N     
9    C        11.9831  -36.8018   31.3025  C     
10   C        12.9672  -37.0100   32.2211  C     
11   O        14.1092  -37.5944   31.8652  O     
12   O        12.1213  -37.1490   30.1387  O     
13   C        12.2672  -35.6631   36.3951  C     
14   H         9.9107  -34.5219   36.4733  H     
15   H         8.2971  -34.1476   34.7392  H     
16   H         8.7081  -34.9437   32.4951  H     
17   H        13.5316  -36.7887   34.1305  H     
18   H        10.1868  -36.0401   30.9700  H     
19   H        14.7919  -36.8940   31.9289  H     
20   H        12.5283  -34.6832   36.7600  H     
21   H        13.1939  -36.1787   36.1722  H     
22   H        11.7642  -36.1976   37.1996  H     
@<TRIPOS>BOND
     1    1    2 1
     2    1    6 2
     3    1   13 1
     4    2    3 2
     5    3    4 1
     6    4    5 2
     7    5    6 1
     8    5    8 1
     9    6    7 1
    10    7   10 2
    11    8    9 1
    12    9   10 1
    13    9   12 2
    14   10   11 1
    15    2   14 1
    16    3   15 1
    17    4   16 1
    18    7   17 1
    19    8   18 1
    20   11   19 1
    21   13   20 1
    22   13   21 1
    23   13   22 1
@<TRIPOS>PROPERTY_DATA
  Total_Score	| 4.3405
  Crash		| -2.5794
  Polar		| 4.2059
  FragIndex	| 1
  FragRMSD	| 0.284

