@<TRIPOS>MOLECULE
BindingDB_31150
 19 20 0 0 0
SMALL
NO_CHARGES


@<TRIPOS>ATOM
1    C        11.6835  -35.5065   35.4295  C     
2    C        10.4791  -34.9007   35.8317  C     
3    C         9.4291  -34.7256   34.9143  C     
4    C         9.5687  -35.1480   33.5810  C     
5    C        10.7676  -35.7571   33.1697  C     
6    C        11.8374  -35.9415   34.0936  C     
7    C        12.9962  -36.5650   33.6187  C     
8    N        10.9285  -36.1898   31.8809  N     
9    C        12.0466  -36.7824   31.4683  C     
10   C        13.0811  -36.9771   32.3361  C     
11   O        14.2000  -37.5370   31.8856  O     
12   O        12.1284  -37.1289   30.2976  O     
13   F         8.3174  -34.1618   35.2973  F     
14   H        12.4391  -35.6295   36.1125  H     
15   H        10.3667  -34.5865   36.7993  H     
16   H         8.7998  -35.0145   32.9160  H     
17   H        13.7655  -36.7122   34.2328  H     
18   H        10.2114  -36.0531   31.2443  H     
19   H        14.8847  -36.8368   31.9398  H     
@<TRIPOS>BOND
     1    1    2 1
     2    1    6 2
     3    2    3 2
     4    3    4 1
     5    3   13 1
     6    4    5 2
     7    5    6 1
     8    5    8 1
     9    6    7 1
    10    7   10 2
    11    8    9 1
    12    9   10 1
    13    9   12 2
    14   10   11 1
    15    1   14 1
    16    2   15 1
    17    4   16 1
    18    7   17 1
    19    8   18 1
    20   11   19 1
@<TRIPOS>PROPERTY_DATA
  Total_Score	| 6.2246
  Crash		| -0.5167
  Polar		| 4.4190
  FragIndex	| 1
  FragRMSD	| 0.050

