@<TRIPOS>MOLECULE
BindingDB_31149
 19 20 0 0 0
SMALL
NO_CHARGES


@<TRIPOS>ATOM
1    C        11.6562  -35.4798   35.4507  C     
2    C        10.4529  -34.8658   35.8519  C     
3    C         9.4012  -34.6883   34.9336  C     
4    C         9.5422  -35.1149   33.6011  C     
5    C        10.7426  -35.7315   33.1871  C     
6    C        11.8110  -35.9190   34.1122  C     
7    C        12.9687  -36.5430   33.6480  C     
8    N        10.9183  -36.1720   31.8991  N     
9    C        12.0353  -36.7644   31.4945  C     
10   C        13.0711  -36.9638   32.3670  C     
11   O        14.1814  -37.5437   31.9314  O     
12   O        12.1217  -37.1189   30.3262  O     
13   F         8.5549  -34.9365   32.7677  F     
14   H        12.4077  -35.6032   36.1322  H     
15   H        10.3412  -34.5496   36.8145  H     
16   H         8.5340  -34.2397   35.2396  H     
17   H        13.7341  -36.6938   34.2705  H     
18   H        10.2014  -36.0390   31.2568  H     
19   H        14.8606  -36.8325   31.9010  H     
@<TRIPOS>BOND
     1    1    2 1
     2    1    6 2
     3    2    3 2
     4    3    4 1
     5    4    5 2
     6    4   13 1
     7    5    6 1
     8    5    8 1
     9    6    7 1
    10    7   10 2
    11    8    9 1
    12    9   10 1
    13    9   12 2
    14   10   11 1
    15    1   14 1
    16    2   15 1
    17    3   16 1
    18    7   17 1
    19    8   18 1
    20   11   19 1
@<TRIPOS>PROPERTY_DATA
  Total_Score	| 6.5348
  Crash		| -0.2439
  Polar		| 4.4237
  FragIndex	| 1
  FragRMSD	| 0.031

