@<TRIPOS>MOLECULE
BindingDB_31148
 19 20 0 0 0
SMALL
NO_CHARGES


@<TRIPOS>ATOM
1    C        11.6340  -35.5010   35.4421  C     
2    C        10.4326  -34.8779   35.8341  C     
3    C         9.3908  -34.6868   34.9010  C     
4    C         9.5485  -35.1122   33.5689  C     
5    C        10.7474  -35.7355   33.1707  C     
6    C        11.7982  -35.9331   34.1054  C     
7    C        12.9641  -36.5606   33.6470  C     
8    N        10.9247  -36.1664   31.8797  N     
9    C        12.0478  -36.7607   31.4825  C     
10   C        13.0730  -36.9659   32.3638  C     
11   O        14.1908  -37.5437   31.9334  O     
12   O        12.1386  -37.1064   30.3130  O     
13   H        12.3762  -35.6328   36.1314  H     
14   H        10.3106  -34.5637   36.7968  H     
15   H         8.5251  -34.2329   35.1916  H     
16   H         8.7913  -34.9675   32.9000  H     
17   H        13.7209  -36.7189   34.2735  H     
18   H        10.2163  -36.0270   31.2369  H     
19   H        14.8660  -36.8323   31.9084  H     
@<TRIPOS>BOND
     1    1    2 1
     2    1    6 2
     3    2    3 2
     4    3    4 1
     5    4    5 2
     6    5    6 1
     7    5    8 1
     8    6    7 1
     9    7   10 2
    10    8    9 1
    11    9   10 1
    12    9   12 2
    13   10   11 1
    14    1   13 1
    15    2   14 1
    16    3   15 1
    17    4   16 1
    18    7   17 1
    19    8   18 1
    20   11   19 1
@<TRIPOS>PROPERTY_DATA
  Total_Score	| 6.5222
  Crash		| -0.2285
  Polar		| 4.4193
  FragIndex	| 1
  FragRMSD	| 0.022

