@<TRIPOS>MOLECULE
BindingDB_31169
 22 23 0 0 0
SMALL
NO_CHARGES


@<TRIPOS>ATOM
1    C        11.3738  -35.2353   35.3720  C     
2    C        10.1334  -34.6530   35.6886  C     
3    C         9.1244  -34.5804   34.7158  C     
4    C         9.3412  -35.1084   33.4331  C     
5    C        10.5820  -35.7005   33.1161  C     
6    C        11.6268  -35.7705   34.0785  C     
7    C        12.8526  -36.3626   33.6675  C     
8    N        10.7941  -36.2020   31.8646  N     
9    C        11.9403  -36.7709   31.5177  C     
10   C        12.9775  -36.8595   32.4044  C     
11   O        14.0937  -37.4572   31.9712  O     
12   O        12.0477  -37.1675   30.3635  O     
13   C        13.9569  -36.4201   34.6153  C     
14   H        12.0857  -35.2461   36.1054  H     
15   H         9.9690  -34.2729   36.6255  H     
16   H         8.2302  -34.1338   34.9378  H     
17   H         8.6018  -35.0564   32.7293  H     
18   H        10.0971  -36.1144   31.1979  H     
19   H        14.7979  -36.7742   32.0193  H     
20   H        14.2051  -35.4165   34.9584  H     
21   H        14.8618  -36.8419   34.1993  H     
22   H        13.6762  -37.0304   35.4736  H     
@<TRIPOS>BOND
     1    1    2 1
     2    1    6 2
     3    2    3 2
     4    3    4 1
     5    4    5 2
     6    5    6 1
     7    5    8 1
     8    6    7 1
     9    7   10 2
    10    7   13 1
    11    8    9 1
    12    9   10 1
    13    9   12 2
    14   10   11 1
    15    1   14 1
    16    2   15 1
    17    3   16 1
    18    4   17 1
    19    8   18 1
    20   11   19 1
    21   13   20 1
    22   13   21 1
    23   13   22 1
@<TRIPOS>PROPERTY_DATA
  Total_Score	| 5.2125
  Crash		| -1.7861
  Polar		| 4.2903
  FragIndex	| 1
  FragRMSD	| 0.228

