@<TRIPOS>MOLECULE
BindingDB_31159
 22 23 0 0 0
SMALL
NO_CHARGES


@<TRIPOS>ATOM
1    C        11.4840  -35.2566   35.1526  C     
2    C        10.2390  -34.6753   35.4840  C     
3    C         9.2058  -34.6475   34.5138  C     
4    C         9.4083  -35.1881   33.2378  C     
5    C        10.6483  -35.7694   32.9176  C     
6    C        11.6974  -35.8154   33.8724  C     
7    C        12.9041  -36.4130   33.4865  C     
8    N        10.8704  -36.3008   31.6716  N     
9    C        12.0260  -36.8731   31.3455  C     
10   C        13.0652  -36.9245   32.2455  C     
11   O        14.2146  -37.4970   31.9063  O     
12   O        12.1495  -37.3122   30.2110  O     
13   C        10.0280  -34.1065   36.8356  C     
14   H        12.2339  -35.2820   35.8480  H     
15   H         8.3023  -34.2193   34.7352  H     
16   H         8.6549  -35.1555   32.5465  H     
17   H        13.6565  -36.4650   34.1345  H     
18   H        10.1622  -36.2564   31.0071  H     
19   H        14.8758  -36.7776   31.9772  H     
20   H        10.3192  -34.8426   37.5890  H     
21   H         8.9752  -33.8311   36.9995  H     
22   H        10.6459  -33.2048   36.9433  H     
@<TRIPOS>BOND
     1    1    2 1
     2    1    6 2
     3    2    3 2
     4    2   13 1
     5    3    4 1
     6    4    5 2
     7    5    6 1
     8    5    8 1
     9    6    7 1
    10    7   10 2
    11    8    9 1
    12    9   10 1
    13    9   12 2
    14   10   11 1
    15    1   14 1
    16    3   15 1
    17    4   16 1
    18    7   17 1
    19    8   18 1
    20   11   19 1
    21   13   20 1
    22   13   21 1
    23   13   22 1
@<TRIPOS>PROPERTY_DATA
  Total_Score	| 4.1989
  Crash		| -2.8897
  Polar		| 4.1717
  FragIndex	| 1
  FragRMSD	| 0.283

