@<TRIPOS>MOLECULE
BindingDB_31170
 22 23 0 0 0
SMALL
NO_CHARGES


@<TRIPOS>ATOM
1    C        11.6470  -35.8899   35.3227  C     
2    C        10.6070  -35.0747   35.8116  C     
3    C         9.6138  -34.5994   34.9373  C     
4    C         9.6924  -34.8662   33.5597  C     
5    C        10.7410  -35.6700   33.0659  C     
6    C        11.7016  -36.2295   33.9525  C     
7    C        12.6194  -37.1390   33.4165  C     
8    N        10.8534  -35.9454   31.7232  N     
9    C        11.7767  -36.7752   31.2456  C     
10   C        12.6152  -37.4407   32.1002  C     
11   O        13.4156  -38.4256   31.6572  O     
12   O        11.8792  -36.9308   30.0335  O     
13   C        12.7030  -39.5984   31.1812  C     
14   H        12.3464  -36.2404   35.9717  H     
15   H        10.5563  -34.8474   36.8021  H     
16   H         8.8331  -34.0501   35.2993  H     
17   H         8.9829  -34.4946   32.9246  H     
18   H        13.2405  -37.6225   34.0213  H     
19   H        10.2660  -35.4963   31.0997  H     
20   H        12.0688  -40.0466   31.9695  H     
21   H        13.4518  -40.3486   30.8832  H     
22   H        12.0813  -39.3512   30.3047  H     
@<TRIPOS>BOND
     1    1    2 1
     2    1    6 2
     3    2    3 2
     4    3    4 1
     5    4    5 2
     6    5    6 1
     7    5    8 1
     8    6    7 1
     9    7   10 2
    10    8    9 1
    11    9   10 1
    12    9   12 2
    13   10   11 1
    14   11   13 1
    15    1   14 1
    16    2   15 1
    17    3   16 1
    18    4   17 1
    19    7   18 1
    20    8   19 1
    21   13   20 1
    22   13   21 1
    23   13   22 1
@<TRIPOS>PROPERTY_DATA
  Total_Score	| 3.5512
  Crash		| -1.0244
  Polar		| 3.3290
  FragIndex	| 1
  FragRMSD	| 0.531

