@<TRIPOS>MOLECULE
BindingDB_31158
 22 23 0 0 0
SMALL
NO_CHARGES


@<TRIPOS>ATOM
1    C        11.8530  -35.6211   35.3482  C     
2    C        10.6480  -35.0304   35.7640  C     
3    C         9.5802  -34.8560   34.8538  C     
4    C         9.7291  -35.2744   33.5136  C     
5    C        10.9288  -35.8680   33.0953  C     
6    C        12.0022  -36.0482   34.0108  C     
7    C        13.1622  -36.6521   33.5298  C     
8    N        11.0815  -36.2841   31.8017  N     
9    C        12.2014  -36.8674   31.3877  C     
10   C        13.2530  -37.0525   32.2445  C     
11   O        14.3699  -37.6162   31.8171  O     
12   O        12.2667  -37.2069   30.2158  O     
13   C         8.3355  -34.2256   35.3092  C     
14   H        12.6140  -35.7368   36.0238  H     
15   H        10.5509  -34.7255   36.7361  H     
16   H         8.9662  -35.1506   32.8408  H     
17   H        13.9322  -36.7916   34.1442  H     
18   H        10.3551  -36.1439   31.1716  H     
19   H        15.0252  -36.8866   31.8017  H     
20   H         7.9160  -34.8044   36.1317  H     
21   H         7.5970  -34.1469   34.5062  H     
22   H         8.5628  -33.2298   35.6657  H     
@<TRIPOS>BOND
     1    1    2 1
     2    1    6 2
     3    2    3 2
     4    3    4 1
     5    3   13 1
     6    4    5 2
     7    5    6 1
     8    5    8 1
     9    6    7 1
    10    7   10 2
    11    8    9 1
    12    9   10 1
    13    9   12 2
    14   10   11 1
    15    1   14 1
    16    2   15 1
    17    4   16 1
    18    7   17 1
    19    8   18 1
    20   11   19 1
    21   13   20 1
    22   13   21 1
    23   13   22 1
@<TRIPOS>PROPERTY_DATA
  Total_Score	| 1.7193
  Crash		| -5.1180
  Polar		| 4.1035
  FragIndex	| 1
  FragRMSD	| 0.247

