@<TRIPOS>MOLECULE
BindingDB_31154
 19 20 0 0 0
SMALL
NO_CHARGES


@<TRIPOS>ATOM
1    C        11.5689  -35.5316   35.2840  C     
2    C        10.3346  -34.9435   35.6058  C     
3    C         9.3379  -34.8014   34.6184  C     
4    C         9.5619  -35.2388   33.3008  C     
5    C        10.7898  -35.8291   32.9794  C     
6    C        11.8058  -35.9830   33.9616  C     
7    C        12.9993  -36.5826   33.5625  C     
8    N        11.0193  -36.2646   31.7044  N     
9    C        12.1640  -36.8389   31.3685  C     
10   C        13.1677  -36.9966   32.2859  C     
11   O        14.3055  -37.5520   31.9032  O     
12   O        12.3056  -37.1938   30.2099  O     
13   Cl        7.8532  -34.1032   34.9998  Cl    
14   H        12.2848  -35.6341   36.0083  H     
15   H        10.1623  -34.6207   36.5638  H     
16   H         8.8454  -35.1285   32.5756  H     
17   H        13.7333  -36.7078   34.2227  H     
18   H        10.3336  -36.1418   31.0261  H     
19   H        14.9651  -36.8290   31.9588  H     
@<TRIPOS>BOND
     1    1    2 1
     2    1    6 2
     3    2    3 2
     4    3    4 1
     5    3   13 1
     6    4    5 2
     7    5    6 1
     8    5    8 1
     9    6    7 1
    10    7   10 2
    11    8    9 1
    12    9   10 1
    13    9   12 2
    14   10   11 1
    15    1   14 1
    16    2   15 1
    17    4   16 1
    18    7   17 1
    19    8   18 1
    20   11   19 1
@<TRIPOS>PROPERTY_DATA
  Total_Score	| 3.4566
  Crash		| -2.8270
  Polar		| 4.5909
  FragIndex	| 1
  FragRMSD	| 0.205

