@<TRIPOS>MOLECULE
BindingDB_31165
 18 19 0 0 0
SMALL
NO_CHARGES


@<TRIPOS>ATOM
1    C        11.6371  -35.5230   35.4448  C     
2    N        10.4691  -34.9356   35.8147  N     
3    C         9.4396  -34.7321   34.9538  C     
4    C         9.5562  -35.1378   33.6118  C     
5    C        10.7494  -35.7543   33.1916  C     
6    C        11.8142  -35.9568   34.1102  C     
7    C        12.9717  -36.5837   33.6378  C     
8    N        10.9106  -36.1767   31.8971  N     
9    C        12.0272  -36.7740   31.4862  C     
10   C        13.0699  -36.9814   32.3487  C     
11   O        14.1791  -37.5616   31.9022  O     
12   O        12.1096  -37.1096   30.3117  O     
13   H        12.3755  -35.6461   36.1431  H     
14   H         8.5852  -34.2809   35.2816  H     
15   H         8.7815  -34.9864   32.9576  H     
16   H        13.7335  -36.7389   34.2586  H     
17   H        10.1954  -36.0362   31.2578  H     
18   H        14.8506  -36.8502   31.8886  H     
@<TRIPOS>BOND
     1    1    2 1
     2    1    6 2
     3    2    3 2
     4    3    4 1
     5    4    5 2
     6    5    6 1
     7    5    8 1
     8    6    7 1
     9    7   10 2
    10    8    9 1
    11    9   10 1
    12    9   12 2
    13   10   11 1
    14    1   13 1
    15    3   14 1
    16    4   15 1
    17    7   16 1
    18    8   17 1
    19   11   18 1
@<TRIPOS>PROPERTY_DATA
  Total_Score	| 6.1551
  Crash		| -0.1790
  Polar		| 4.4244
  FragIndex	| 1
  FragRMSD	| 0.047

