@<TRIPOS>MOLECULE
BindingDB_31155
 19 20 0 0 0
SMALL
NO_CHARGES


@<TRIPOS>ATOM
1    C        11.6435  -35.2917   35.3000  C     
2    C        10.4277  -34.6708   35.6599  C     
3    C         9.3670  -34.5870   34.7375  C     
4    C         9.5160  -35.1154   33.4462  C     
5    C        10.7246  -35.7358   33.0793  C     
6    C        11.8004  -35.8286   34.0046  C     
7    C        12.9724  -36.4632   33.5723  C     
8    N        10.8874  -36.2632   31.8279  N     
9    C        12.0161  -36.8627   31.4567  C     
10   C        13.0680  -36.9693   32.3215  C     
11   O        14.1876  -37.5532   31.9079  O     
12   O        12.0936  -37.2957   30.3177  O     
13   Cl       10.2418  -33.9961   37.1987  Cl    
14   H        12.4077  -35.3458   35.9828  H     
15   H         8.4873  -34.1383   35.0008  H     
16   H         8.7422  -35.0468   32.7802  H     
17   H        13.7456  -36.5436   34.1987  H     
18   H        10.1653  -36.1882   31.1842  H     
19   H        14.8552  -36.8357   31.8711  H     
@<TRIPOS>BOND
     1    1    2 1
     2    1    6 2
     3    2    3 2
     4    2   13 1
     5    3    4 1
     6    4    5 2
     7    5    6 1
     8    5    8 1
     9    6    7 1
    10    7   10 2
    11    8    9 1
    12    9   10 1
    13    9   12 2
    14   10   11 1
    15    1   14 1
    16    3   15 1
    17    4   16 1
    18    7   17 1
    19    8   18 1
    20   11   19 1
@<TRIPOS>PROPERTY_DATA
  Total_Score	| 4.2093
  Crash		| -2.1134
  Polar		| 4.3819
  FragIndex	| 1
  FragRMSD	| 0.142

