@<TRIPOS>MOLECULE
BindingDB_31157
 22 23 0 0 0
SMALL
NO_CHARGES


@<TRIPOS>ATOM
1    C        11.7324  -35.4989   35.4742  C     
2    C        10.5501  -34.9130   35.9549  C     
3    C         9.4398  -34.7664   35.1062  C     
4    C         9.4868  -35.2004   33.7602  C     
5    C        10.6846  -35.7939   33.2765  C     
6    C        11.8108  -35.9432   34.1376  C     
7    C        12.9701  -36.5340   33.6183  C     
8    N        10.8172  -36.2479   31.9830  N     
9    C        11.9341  -36.8108   31.5266  C     
10   C        13.0256  -36.9533   32.3377  C     
11   O        14.1310  -37.5312   31.8752  O     
12   O        11.9556  -37.1831   30.3627  O     
13   C         8.2678  -35.0060   32.9335  C     
14   H        12.5309  -35.5976   36.1069  H     
15   H        10.4956  -34.5926   36.9250  H     
16   H         8.5898  -34.3371   35.4815  H     
17   H        13.7658  -36.6529   34.2030  H     
18   H        10.0714  -36.1593   31.3716  H     
19   H        14.7967  -36.8146   31.8423  H     
20   H         7.4307  -35.5427   33.3843  H     
21   H         8.3796  -35.3636   31.9116  H     
22   H         8.0212  -33.9434   32.8895  H     
@<TRIPOS>BOND
     1    1    2 1
     2    1    6 2
     3    2    3 2
     4    3    4 1
     5    4    5 2
     6    4   13 1
     7    5    6 1
     8    5    8 1
     9    6    7 1
    10    7   10 2
    11    8    9 1
    12    9   10 1
    13    9   12 2
    14   10   11 1
    15    1   14 1
    16    2   15 1
    17    3   16 1
    18    7   17 1
    19    8   18 1
    20   11   19 1
    21   13   20 1
    22   13   21 1
    23   13   22 1
@<TRIPOS>PROPERTY_DATA
  Total_Score	| 6.2638
  Crash		| -0.9021
  Polar		| 4.3546
  FragIndex	| 1
  FragRMSD	| 0.146

