@<TRIPOS>MOLECULE
BindingDB_31156
 19 20 0 0 0
SMALL
NO_CHARGES


@<TRIPOS>ATOM
1    C        11.3933  -35.5049   35.2423  C     
2    C        10.1817  -34.8578   35.5636  C     
3    C         9.2017  -34.6513   34.5766  C     
4    C         9.4201  -35.0986   33.2634  C     
5    C        10.6281  -35.7435   32.9323  C     
6    C        11.6346  -35.9476   33.9181  C     
7    C        12.8136  -36.5855   33.4962  C     
8    N        10.8565  -36.1845   31.6567  N     
9    C        11.9861  -36.7875   31.3041  C     
10   C        12.9797  -36.9900   32.2193  C     
11   O        14.1218  -37.5601   31.8541  O     
12   O        12.1174  -37.1337   30.1417  O     
13   Cl       12.5154  -35.7349   36.4810  Cl    
14   H        10.0015  -34.5380   36.5174  H     
15   H         8.3274  -34.1758   34.8154  H     
16   H         8.6985  -34.9526   32.5558  H     
17   H        13.5559  -36.7502   34.1392  H     
18   H        10.1769  -36.0464   30.9851  H     
19   H        14.8051  -36.8576   31.9364  H     
@<TRIPOS>BOND
     1    1    2 1
     2    1    6 2
     3    1   13 1
     4    2    3 2
     5    3    4 1
     6    4    5 2
     7    5    6 1
     8    5    8 1
     9    6    7 1
    10    7   10 2
    11    8    9 1
    12    9   10 1
    13    9   12 2
    14   10   11 1
    15    2   14 1
    16    3   15 1
    17    4   16 1
    18    7   17 1
    19    8   18 1
    20   11   19 1
@<TRIPOS>PROPERTY_DATA
  Total_Score	| 4.3762
  Crash		| -1.8389
  Polar		| 4.2168
  FragIndex	| 1
  FragRMSD	| 0.253

