@<TRIPOS>MOLECULE
BindingDB_12019
 34 35 0 0 0
SMALL
NO_CHARGES


@<TRIPOS>ATOM
1    C        -2.1785    7.9582   15.2540  C     
2    C        -1.2089    8.6119   16.0291  C     
3    C        -1.0013    9.9973   15.8932  C     
4    C        -1.8028   10.7315   15.0022  C     
5    C        -2.7967   10.0944   14.2376  C     
6    C        -2.9950    8.6865   14.3336  C     
7    C        -3.9637    7.9917   13.4334  C     
8    N        -4.5366    6.8195   14.0318  N     
9    C        -4.0437    5.5857   13.9397  C     
10   O        -2.9856    5.4339   13.3334  O     
11   C        -4.5660    4.5259   14.6833  C     
12   C        -5.9237    4.5007   15.1000  C     
13   C        -3.7394    3.4446   15.0823  C     
14   C        -4.2414    2.3738   15.8388  C     
15   C        -5.5980    2.3498   16.2166  C     
16   C        -6.4361    3.4237   15.8497  C     
17   S        -6.2147    1.0013   17.1249  S     
18   O        -5.9698   -0.2456   16.1738  O     
19   O        -5.3911    0.7153   18.4489  O     
20   N        -7.8651    0.9974   17.4070  N     
21   F        -3.5122   10.8404   13.4290  F     
22   F        -2.3080    6.6703   15.4421  F     
23   H        -0.6475    8.0787   16.7007  H     
24   H        -0.2823   10.4617   16.4489  H     
25   H        -1.6578   11.7440   14.9188  H     
26   H        -4.8010    8.6198   13.1378  H     
27   H        -3.4334    7.7470   12.5109  H     
28   H        -5.3050    6.9630   14.6208  H     
29   H        -6.5657    5.2514   14.8402  H     
30   H        -2.7454    3.4295   14.8424  H     
31   H        -3.6091    1.6144   16.1011  H     
32   H        -7.4268    3.4322   16.1126  H     
33   H        -8.3749    0.1962   17.2351  H     
34   H        -8.3250    1.8444   17.4663  H     
@<TRIPOS>BOND
     1    1    2 2
     2    1    6 1
     3    1   22 1
     4    2    3 1
     5    3    4 2
     6    4    5 1
     7    5    6 2
     8    5   21 1
     9    6    7 1
    10    7    8 1
    11    8    9 am
    12    9   10 2
    13    9   11 1
    14   11   12 1
    15   11   13 2
    16   12   16 2
    17   13   14 1
    18   14   15 2
    19   15   16 1
    20   15   17 1
    21   17   18 2
    22   17   19 2
    23   17   20 am
    24    2   23 1
    25    3   24 1
    26    4   25 1
    27    7   26 1
    28    7   27 1
    29    8   28 1
    30   12   29 1
    31   13   30 1
    32   14   31 1
    33   16   32 1
    34   20   33 1
    35   20   34 1
@<TRIPOS>PROPERTY_DATA
  Total_Score	| 5.2584
  Crash		| -1.5730
  Polar		| 2.9168
  FragIndex	| 1
  FragRMSD	| 1.240

