@<TRIPOS>MOLECULE
BindingDB_12020
 34 35 0 0 0
SMALL
NO_CHARGES


@<TRIPOS>ATOM
1    C        -2.1711    8.0619   15.3549  C     
2    C        -1.1817    8.7522   16.0835  C     
3    C        -0.9433   10.1158   15.8296  C     
4    C        -1.6888   10.7811   14.8383  C     
5    C        -2.6749   10.0870   14.1071  C     
6    C        -2.9515    8.7214   14.3728  C     
7    C        -4.0244    8.0237   13.5986  C     
8    N        -4.5354    6.8089   14.1581  N     
9    C        -3.8902    5.6603   14.2940  C     
10   O        -2.7408    5.6022   13.8917  O     
11   C        -4.4677    4.5618   14.9454  C     
12   C        -3.6506    3.4980   15.4059  C     
13   C        -5.8589    4.4763   15.2033  C     
14   C        -6.4083    3.3780   15.8915  C     
15   C        -5.5800    2.3298   16.3307  C     
16   C        -4.1960    2.4042   16.0936  C     
17   S        -6.2292    0.9329   17.1434  S     
18   O        -5.9630   -0.3013   16.1770  O     
19   O        -5.4465    0.6423   18.4944  O     
20   N        -7.8853    0.9367   17.3963  N     
21   F        -3.3332   10.7328   13.1857  F     
22   F        -0.0050   10.7408   16.4965  F     
23   F        -1.4586   12.0448   14.5964  F     
24   H        -2.3053    7.0533   15.5386  H     
25   H        -0.6387    8.2648   16.7968  H     
26   H        -4.8946    8.6804   13.5288  H     
27   H        -3.6713    7.8330   12.5807  H     
28   H        -5.4583    6.8423   14.4650  H     
29   H        -2.6386    3.5126   15.2575  H     
30   H        -6.4991    5.2046   14.8832  H     
31   H        -7.4132    3.3533   16.0646  H     
32   H        -3.5757    1.6620   16.4195  H     
33   H        -8.3611    0.0925   17.3614  H     
34   H        -8.3805    1.7682   17.3379  H     
@<TRIPOS>BOND
     1    1    2 2
     2    1    6 1
     3    2    3 1
     4    3    4 2
     5    3   22 1
     6    4    5 1
     7    4   23 1
     8    5    6 2
     9    5   21 1
    10    6    7 1
    11    7    8 1
    12    8    9 am
    13    9   10 2
    14    9   11 1
    15   11   12 1
    16   11   13 2
    17   12   16 2
    18   13   14 1
    19   14   15 2
    20   15   16 1
    21   15   17 1
    22   17   18 2
    23   17   19 2
    24   17   20 am
    25    1   24 1
    26    2   25 1
    27    7   26 1
    28    7   27 1
    29    8   28 1
    30   12   29 1
    31   13   30 1
    32   14   31 1
    33   16   32 1
    34   20   33 1
    35   20   34 1
@<TRIPOS>PROPERTY_DATA
  Total_Score	| 5.9826
  Crash		| -1.1790
  Polar		| 2.7617
  FragIndex	| 1
  FragRMSD	| 1.200

