@<TRIPOS>MOLECULE
BindingDB_12022
 34 35 0 0 0
SMALL
NO_CHARGES


@<TRIPOS>ATOM
1    C        -3.0516   10.2299   14.2458  C     
2    C        -1.9476   10.8797   14.8353  C     
3    C        -1.0965   10.1740   15.7034  C     
4    C        -1.3661    8.8250   16.0051  C     
5    C        -2.4890    8.1879   15.4409  C     
6    C        -3.3366    8.8727   14.5367  C     
7    C        -4.5230    8.2488   13.8855  C     
8    N        -4.9378    6.9874   14.4140  N     
9    C        -4.2765    5.8399   14.3814  C     
10   O        -3.2230    5.7894   13.7584  O     
11   C        -4.7492    4.6964   15.0499  C     
12   C        -6.0762    4.6050   15.5481  C     
13   C        -3.8930    3.5864   15.2774  C     
14   C        -4.3505    2.4267   15.9261  C     
15   C        -5.6850    2.3375   16.3699  C     
16   C        -6.5396    3.4457   16.1931  C     
17   S        -6.2534    0.8872   17.1465  S     
18   O        -5.9477   -0.3202   16.1614  O     
19   O        -5.4696    0.6484   18.5063  O     
20   N        -7.9130    0.8763   17.4077  N     
21   F        -0.0546   10.7694   16.2174  F     
22   F        -0.5908    8.1560   16.8084  F     
23   F        -1.7306   12.1399   14.5685  F     
24   H        -3.6542   10.7645   13.6110  H     
25   H        -2.6813    7.2173   15.6878  H     
26   H        -5.3727    8.9278   13.9908  H     
27   H        -4.3198    8.1388   12.8179  H     
28   H        -5.7939    6.9844   14.8688  H     
29   H        -6.7389    5.3720   15.4286  H     
30   H        -2.9185    3.6072   14.9729  H     
31   H        -3.7083    1.6439   16.0730  H     
32   H        -7.5041    3.4134   16.5308  H     
33   H        -8.3858    0.0333   17.4461  H     
34   H        -8.4099    1.7090   17.3826  H     
@<TRIPOS>BOND
     1    1    2 2
     2    1    6 1
     3    2    3 1
     4    2   23 1
     5    3    4 2
     6    3   21 1
     7    4    5 1
     8    4   22 1
     9    5    6 2
    10    6    7 1
    11    7    8 1
    12    8    9 am
    13    9   10 2
    14    9   11 1
    15   11   12 1
    16   11   13 2
    17   12   16 2
    18   13   14 1
    19   14   15 2
    20   15   16 1
    21   15   17 1
    22   17   18 2
    23   17   19 2
    24   17   20 am
    25    1   24 1
    26    5   25 1
    27    7   26 1
    28    7   27 1
    29    8   28 1
    30   12   29 1
    31   13   30 1
    32   14   31 1
    33   16   32 1
    34   20   33 1
    35   20   34 1
@<TRIPOS>PROPERTY_DATA
  Total_Score	| 5.3685
  Crash		| -1.4166
  Polar		| 2.6403
  FragIndex	| 1
  FragRMSD	| 1.244

