@<TRIPOS>MOLECULE
BindingDB_12023
 34 35 0 0 0
SMALL
NO_CHARGES


@<TRIPOS>ATOM
1    C        -2.9394   10.1387   14.0935  C     
2    C        -1.9392   10.7963   14.8401  C     
3    C        -1.1425   10.0715   15.7461  C     
4    C        -1.3282    8.6856   15.8818  C     
5    C        -2.2803    8.0141   15.0910  C     
6    C        -3.1321    8.7371   14.2136  C     
7    C        -4.1677    8.0267   13.4065  C     
8    N        -4.6819    6.8763   14.0985  N     
9    C        -4.2790    5.6218   13.9310  C     
10   O        -3.4434    5.3691   13.0727  O     
11   C        -4.7306    4.5823   14.7404  C     
12   C        -6.0366    4.5729   15.2896  C     
13   C        -3.8885    3.4727   15.0081  C     
14   C        -4.3416    2.3793   15.7623  C     
15   C        -5.6602    2.3572   16.2527  C     
16   C        -6.5011    3.4671   16.0270  C     
17   S        -6.2230    0.9547   17.1128  S     
18   O        -5.9534   -0.2982   16.1738  O     
19   O        -5.4034    0.7191   18.4519  O     
20   N        -7.8776    0.9219   17.3769  N     
21   F        -2.3483    6.7106   15.1882  F     
22   F        -3.6606   10.8532   13.2678  F     
23   F        -0.6163    8.0232   16.7481  F     
24   F        -0.2226   10.6745   16.4531  F     
25   F        -1.7573   12.0836   14.7020  F     
26   H        -5.0280    8.6632   13.1931  H     
27   H        -3.7170    7.7769   12.4422  H     
28   H        -5.3133    7.0470   14.8147  H     
29   H        -6.6807    5.3502   15.1192  H     
30   H        -2.9282    3.4454   14.6535  H     
31   H        -3.7073    1.5931   15.9297  H     
32   H        -7.4596    3.4756   16.3826  H     
33   H        -8.3567    0.0945   17.2250  H     
34   H        -8.3695    1.7561   17.4205  H     
@<TRIPOS>BOND
     1    1    2 2
     2    1    6 1
     3    1   22 1
     4    2    3 1
     5    2   25 1
     6    3    4 2
     7    3   24 1
     8    4    5 1
     9    4   23 1
    10    5    6 2
    11    5   21 1
    12    6    7 1
    13    7    8 1
    14    8    9 am
    15    9   10 2
    16    9   11 1
    17   11   12 1
    18   11   13 2
    19   12   16 2
    20   13   14 1
    21   14   15 2
    22   15   16 1
    23   15   17 1
    24   17   18 2
    25   17   19 2
    26   17   20 am
    27    7   26 1
    28    7   27 1
    29    8   28 1
    30   12   29 1
    31   13   30 1
    32   14   31 1
    33   16   32 1
    34   20   33 1
    35   20   34 1
@<TRIPOS>PROPERTY_DATA
  Total_Score	| 5.0264
  Crash		| -1.4533
  Polar		| 2.8217
  FragIndex	| 1
  FragRMSD	| 1.208

