@<TRIPOS>MOLECULE
BindingDB_50220966
 61 65 0 0 0
SMALL
NO_CHARGES


@<TRIPOS>ATOM
1    C        23.0732   15.2109  106.4285  C     
2    C        22.4455   16.4542  106.6326  C     
3    C        21.2475   16.5250  107.3643  C     
4    C        22.5090   14.0423  106.9677  C     
5    C        21.3275   14.1089  107.7276  C     
6    C        20.6707   15.3549  107.9123  C     
7    C        19.9848   13.0998  109.4386  C     
8    O        20.8432   12.9393  108.2816  O     
9    C        18.8953   14.1661  109.1186  C     
10   N        19.5404   15.3623  108.6786  N     
11   N        18.9925   16.3985  109.1427  N     
12   C        18.0488   16.1598  109.9769  C     
13   C        17.8578   14.7073  110.1726  C     
14   C        16.3772   14.3132  109.7475  C     
15   C        17.4103   17.1852  110.6312  C     
16   O        16.5029   16.9306  111.4150  O     
17   C        18.2409   14.2453  111.5804  C     
18   C        17.8309   12.9760  112.0809  C     
19   C        18.2193   12.5135  113.3510  C     
20   C        19.0698   13.2915  114.1511  C     
21   C        19.5409   14.5186  113.6753  C     
22   C        19.1368   14.9858  112.4082  C     
23   C        15.9284   14.5570  108.2575  C     
24   C        14.8880   15.6826  108.0053  C     
25   C        17.7608   18.5864  110.4516  C     
26   F        22.9805   17.5397  106.1450  F     
27   N        13.4387   15.4906  108.3774  N     
28   C        12.9754   14.0938  108.6530  C     
29   C        11.4348   14.0639  108.9022  C     
30   O        11.0773   14.9975  109.9444  O     
31   C        11.4478   16.3534  109.6400  C     
32   C        12.9769   16.4650  109.4113  C     
33   H        23.9448   15.1564  105.8995  H     
34   H        20.7966   17.4324  107.5003  H     
35   H        22.9696   13.1423  106.8184  H     
36   H        19.5140   12.1361  109.6508  H     
37   H        20.5858   13.3963  110.3028  H     
38   H        18.3752   13.7488  108.2499  H     
39   H        16.2633   13.2352  109.9063  H     
40   H        15.6619   14.8102  110.4159  H     
41   H        17.2534   12.3514  111.5205  H     
42   H        17.8933   11.6059  113.6851  H     
43   H        19.3615   12.9473  115.0695  H     
44   H        20.1866   15.0716  114.2403  H     
45   H        19.5312   15.8725  112.0963  H     
46   H        16.8195   14.8044  107.6629  H     
47   H        15.5245   13.6275  107.8324  H     
48   H        15.2907   16.5994  108.4627  H     
49   H        14.8902   15.8746  106.9299  H     
50   H        18.7748   18.7676  110.8162  H     
51   H        17.0823   19.2535  110.9945  H     
52   H        17.7168   18.8520  109.3919  H     
53   H        12.9244   15.7577  107.5307  H     
54   H        13.2053   13.4485  107.8036  H     
55   H        13.4805   13.6921  109.5328  H     
56   H        10.8890   14.2937  107.9791  H     
57   H        11.1362   13.0664  109.2279  H     
58   H        10.9065   16.7110  108.7591  H     
59   H        11.1672   16.9813  110.4888  H     
60   H        13.4977   16.2909  110.3556  H     
61   H        13.1908   17.4839  109.0805  H     
@<TRIPOS>BOND
     1    1    2 2
     2    1    4 1
     3    2    3 1
     4    2   26 1
     5    3    6 2
     6    4    5 2
     7    5    6 1
     8    5    8 1
     9    6   10 1
    10    7    8 1
    11    7    9 1
    12    9   10 1
    13    9   13 1
    14   10   11 1
    15   11   12 2
    16   12   13 1
    17   12   15 1
    18   13   14 1
    19   13   17 1
    20   14   23 1
    21   15   16 2
    22   15   25 1
    23   17   18 2
    24   17   22 1
    25   18   19 1
    26   19   20 2
    27   20   21 1
    28   21   22 2
    29   23   24 1
    30   24   27 1
    31   27   28 1
    32   27   32 1
    33   28   29 1
    34   29   30 1
    35   30   31 1
    36   31   32 1
    37    1   33 1
    38    3   34 1
    39    4   35 1
    40    7   36 1
    41    7   37 1
    42    9   38 1
    43   14   39 1
    44   14   40 1
    45   18   41 1
    46   19   42 1
    47   20   43 1
    48   21   44 1
    49   22   45 1
    50   23   46 1
    51   23   47 1
    52   24   48 1
    53   24   49 1
    54   25   50 1
    55   25   51 1
    56   25   52 1
    57   27   53 1
    58   28   54 1
    59   28   55 1
    60   29   56 1
    61   29   57 1
    62   31   58 1
    63   31   59 1
    64   32   60 1
    65   32   61 1
@<TRIPOS>PROPERTY_DATA
  Total_Score	| 9.1035
  Crash		| -1.5244
  Polar		| 0.6815
  FragIndex	| 1
  FragRMSD	| 0.525

