@<TRIPOS>MOLECULE
BindingDB_50220961
 48 51 0 0 0
SMALL
NO_CHARGES


@<TRIPOS>ATOM
1    C        23.0998   15.2355  106.5241  C     
2    C        22.4694   16.4754  106.7190  C     
3    C        21.2547   16.5450  107.4258  C     
4    C        22.5189   14.0620  107.0373  C     
5    C        21.3140   14.1247  107.7649  C     
6    C        20.6632   15.3741  107.9563  C     
7    C        19.9316   13.1061  109.4259  C     
8    O        20.8021   12.9511  108.2803  O     
9    C        18.8552   14.1932  109.1269  C     
10   N        19.5212   15.3818  108.7095  N     
11   N        18.9634   16.4114  109.1833  N     
12   C        18.0210   16.1642  110.0198  C     
13   C        17.8565   14.7110  110.2292  C     
14   C        16.3747   14.2578  109.8878  C     
15   C        17.3525   17.1806  110.6593  C     
16   O        16.4366   16.9166  111.4289  O     
17   C        18.2901   14.2476  111.6205  C     
18   C        17.8812   12.9823  112.1267  C     
19   C        18.2933   12.5138  113.3839  C     
20   C        19.1633   13.2805  114.1692  C     
21   C        19.6283   14.5141  113.6893  C     
22   C        19.1981   14.9874  112.4343  C     
23   C        15.6185   14.9617  108.7194  C     
24   C        14.3484   14.2204  108.2311  C     
25   C        17.7041   18.5817  110.4957  C     
26   F        23.0187   17.5646  106.2555  F     
27   O        14.6557   13.1712  107.3070  O     
28   H        23.9873   15.1806  106.0149  H     
29   H        20.8057   17.4505  107.5574  H     
30   H        22.9845   13.1602  106.8955  H     
31   H        19.4471   12.1465  109.6260  H     
32   H        20.5359   13.3768  110.2974  H     
33   H        18.3063   13.8315  108.2511  H     
34   H        16.4015   13.1881  109.6651  H     
35   H        15.7625   14.3727  110.7848  H     
36   H        17.2811   12.3661  111.5822  H     
37   H        17.9667   11.6055  113.7237  H     
38   H        19.4699   12.9308  115.0784  H     
39   H        20.2842   15.0628  114.2462  H     
40   H        19.5825   15.8805  112.1138  H     
41   H        15.3214   15.9511  109.0555  H     
42   H        16.2711   15.0914  107.8575  H     
43   H        13.7687   13.8244  109.0757  H     
44   H        13.7142   14.9325  107.6951  H     
45   H        18.7245   18.7518  110.8321  H     
46   H        17.0422   19.2383  111.0667  H     
47   H        17.6265   18.8620  109.4417  H     
48   H        14.9756   12.3972  107.8563  H     
@<TRIPOS>BOND
     1    1    2 2
     2    1    4 1
     3    2    3 1
     4    2   26 1
     5    3    6 2
     6    4    5 2
     7    5    6 1
     8    5    8 1
     9    6   10 1
    10    7    8 1
    11    7    9 1
    12    9   10 1
    13    9   13 1
    14   10   11 1
    15   11   12 2
    16   12   13 1
    17   12   15 1
    18   13   14 1
    19   13   17 1
    20   14   23 1
    21   15   16 2
    22   15   25 1
    23   17   18 2
    24   17   22 1
    25   18   19 1
    26   19   20 2
    27   20   21 1
    28   21   22 2
    29   23   24 1
    30   24   27 1
    31    1   28 1
    32    3   29 1
    33    4   30 1
    34    7   31 1
    35    7   32 1
    36    9   33 1
    37   14   34 1
    38   14   35 1
    39   18   36 1
    40   19   37 1
    41   20   38 1
    42   21   39 1
    43   22   40 1
    44   23   41 1
    45   23   42 1
    46   24   43 1
    47   24   44 1
    48   25   45 1
    49   25   46 1
    50   25   47 1
    51   27   48 1
@<TRIPOS>PROPERTY_DATA
  Total_Score	| 9.2289
  Crash		| -1.2770
  Polar		| 1.8393
  FragIndex	| 1
  FragRMSD	| 0.119

