@<TRIPOS>MOLECULE
BindingDB_50220960
 56 59 0 0 0
SMALL
NO_CHARGES


@<TRIPOS>ATOM
1    C        23.0681   15.2034  106.4398  C     
2    C        22.4198   16.4418  106.6092  C     
3    C        21.2261   16.5152  107.3490  C     
4    C        22.5254   14.0401  107.0143  C     
5    C        21.3398   14.1065  107.7671  C     
6    C        20.6741   15.3502  107.9282  C     
7    C        19.9935   13.1245  109.4921  C     
8    O        20.8658   12.9471  108.3521  O     
9    C        18.8893   14.1653  109.1420  C     
10   N        19.5440   15.3558  108.6923  N     
11   N        19.0009   16.3911  109.1653  N     
12   C        18.0587   16.1604  110.0019  C     
13   C        17.8473   14.7128  110.1914  C     
14   C        16.3581   14.3648  109.7604  C     
15   C        17.3908   17.1894  110.6200  C     
16   O        16.4877   16.9366  111.4094  O     
17   C        18.1980   14.2246  111.5951  C     
18   C        17.7065   12.9778  112.0759  C     
19   C        18.0665   12.4725  113.3373  C     
20   C        18.9538   13.1859  114.1580  C     
21   C        19.4979   14.3929  113.7020  C     
22   C        19.1345   14.8953  112.4379  C     
23   C        15.9078   14.7589  108.3033  C     
24   C        14.6408   15.6620  108.1831  C     
25   C        17.7326   18.5938  110.4345  C     
26   F        22.9305   17.5249  106.0860  F     
27   N        13.3069   15.0031  107.9974  N     
28   C        13.2553   13.9614  106.9281  C     
29   C        12.6545   14.5524  109.2616  C     
30   H        23.9386   15.1499  105.9033  H     
31   H        20.7642   17.4180  107.4661  H     
32   H        23.0061   13.1484  106.8955  H     
33   H        19.5388   12.1643  109.7272  H     
34   H        20.5869   13.4496  110.3503  H     
35   H        18.3698   13.7399  108.2754  H     
36   H        16.2140   13.2885  109.8336  H     
37   H        15.6688   14.8054  110.4845  H     
38   H        17.0970   12.4019  111.4951  H     
39   H        17.6947   11.5771  113.6529  H     
40   H        19.2138   12.8144  115.0716  H     
41   H        20.1693   14.8982  114.2816  H     
42   H        19.5920   15.7596  112.1331  H     
43   H        16.7136   15.3034  107.8022  H     
44   H        15.7441   13.8624  107.7057  H     
45   H        14.6072   16.3459  109.0388  H     
46   H        14.7763   16.3097  107.3064  H     
47   H        18.7647   18.7719  110.7538  H     
48   H        17.0786   19.2458  111.0158  H     
49   H        17.6359   18.8649  109.3780  H     
50   H        12.6980   15.7557  107.6516  H     
51   H        13.7929   14.2977  106.0406  H     
52   H        12.2225   13.7848  106.6455  H     
53   H        13.6945   13.0198  107.2701  H     
54   H        13.2293   13.7526  109.7346  H     
55   H        11.6446   14.1812  109.0534  H     
56   H        12.5585   15.3951  109.9532  H     
@<TRIPOS>BOND
     1    1    2 2
     2    1    4 1
     3    2    3 1
     4    2   26 1
     5    3    6 2
     6    4    5 2
     7    5    6 1
     8    5    8 1
     9    6   10 1
    10    7    8 1
    11    7    9 1
    12    9   10 1
    13    9   13 1
    14   10   11 1
    15   11   12 2
    16   12   13 1
    17   12   15 1
    18   13   14 1
    19   13   17 1
    20   14   23 1
    21   15   16 2
    22   15   25 1
    23   17   18 2
    24   17   22 1
    25   18   19 1
    26   19   20 2
    27   20   21 1
    28   21   22 2
    29   23   24 1
    30   24   27 1
    31   27   28 1
    32   27   29 1
    33    1   30 1
    34    3   31 1
    35    4   32 1
    36    7   33 1
    37    7   34 1
    38    9   35 1
    39   14   36 1
    40   14   37 1
    41   18   38 1
    42   19   39 1
    43   20   40 1
    44   21   41 1
    45   22   42 1
    46   23   43 1
    47   23   44 1
    48   24   45 1
    49   24   46 1
    50   25   47 1
    51   25   48 1
    52   25   49 1
    53   27   50 1
    54   28   51 1
    55   28   52 1
    56   28   53 1
    57   29   54 1
    58   29   55 1
    59   29   56 1
@<TRIPOS>PROPERTY_DATA
  Total_Score	| 9.0206
  Crash		| -1.0990
  Polar		| 0.6872
  FragIndex	| 1
  FragRMSD	| 0.537

