@<TRIPOS>MOLECULE
BindingDB_50220967
 56 59 0 0 0
SMALL
NO_CHARGES


@<TRIPOS>ATOM
1    C        23.0656   15.0778  106.5701  C     
2    C        22.4826   16.3450  106.7703  C     
3    C        21.2810   16.4647  107.4961  C     
4    C        22.4518   13.9330  107.1072  C     
5    C        21.2640   14.0437  107.8486  C     
6    C        20.6502   15.3174  108.0333  C     
7    C        19.8625   13.0851  109.5269  C     
8    O        20.7264   12.8932  108.3855  O     
9    C        18.8101   14.1857  109.2005  C     
10   N        19.5094   15.3602  108.7868  N     
11   N        18.9796   16.4049  109.2583  N     
12   C        18.0240   16.1797  110.0796  C     
13   C        17.8105   14.7380  110.2874  C     
14   C        16.3143   14.3572  109.9172  C     
15   C        17.3686   17.2005  110.7132  C     
16   O        16.3843   16.9564  111.4058  O     
17   C        18.2055   14.2557  111.6801  C     
18   C        19.1023   14.9753  112.5208  C     
19   C        19.4523   14.5142  113.8000  C     
20   C        18.9203   13.3119  114.2870  C     
21   C        18.0702   12.5539  113.4697  C     
22   C        17.7302   13.0127  112.1857  C     
23   C        15.5722   15.1330  108.7816  C     
24   C        14.1884   14.5029  108.4012  C     
25   C        17.7451   18.5938  110.5662  C     
26   Cl       23.2470   17.7205  106.1555  Cl    
27   N        13.0670   15.4939  108.2909  N     
28   C        11.9161   14.9826  107.4829  C     
29   C        12.6076   15.9959  109.6239  C     
30   H        23.9364   14.9821  106.0417  H     
31   H        20.8662   17.3938  107.6267  H     
32   H        22.8847   13.0151  106.9711  H     
33   H        19.3598   12.1435  109.7445  H     
34   H        20.4688   13.3673  110.3928  H     
35   H        18.2605   13.8287  108.3207  H     
36   H        16.2955   13.2965  109.6460  H     
37   H        15.6976   14.4662  110.8171  H     
38   H        19.5270   15.8469  112.2017  H     
39   H        20.0949   15.0569  114.3842  H     
40   H        19.1650   12.9745  115.2205  H     
41   H        17.6964   11.6691  113.8083  H     
42   H        17.1282   12.4142  111.6213  H     
43   H        15.4171   16.1635  109.1094  H     
44   H        16.1999   15.1771  107.8858  H     
45   H        14.3324   13.9867  107.4434  H     
46   H        13.9098   13.7307  109.1273  H     
47   H        18.7509   18.7504  110.9577  H     
48   H        17.0627   19.2609  111.1009  H     
49   H        17.7325   18.8712  109.5115  H     
50   H        13.4335   16.2994  107.7760  H     
51   H        12.2424   14.7474  106.4666  H     
52   H        11.1366   15.7423  107.4003  H     
53   H        11.4851   14.0847  107.9305  H     
54   H        12.2448   15.1712  110.2480  H     
55   H        11.8072   16.7318  109.5069  H     
56   H        13.4263   16.4928  110.1495  H     
@<TRIPOS>BOND
     1    1    2 2
     2    1    4 1
     3    2    3 1
     4    2   26 1
     5    3    6 2
     6    4    5 2
     7    5    6 1
     8    5    8 1
     9    6   10 1
    10    7    8 1
    11    7    9 1
    12    9   10 1
    13    9   13 1
    14   10   11 1
    15   11   12 2
    16   12   13 1
    17   12   15 1
    18   13   14 1
    19   13   17 1
    20   14   23 1
    21   15   16 2
    22   15   25 1
    23   17   18 2
    24   17   22 1
    25   18   19 1
    26   19   20 2
    27   20   21 1
    28   21   22 2
    29   23   24 1
    30   24   27 1
    31   27   28 1
    32   27   29 1
    33    1   30 1
    34    3   31 1
    35    4   32 1
    36    7   33 1
    37    7   34 1
    38    9   35 1
    39   14   36 1
    40   14   37 1
    41   18   38 1
    42   19   39 1
    43   20   40 1
    44   21   41 1
    45   22   42 1
    46   23   43 1
    47   23   44 1
    48   24   45 1
    49   24   46 1
    50   25   47 1
    51   25   48 1
    52   25   49 1
    53   27   50 1
    54   28   51 1
    55   28   52 1
    56   28   53 1
    57   29   54 1
    58   29   55 1
    59   29   56 1
@<TRIPOS>PROPERTY_DATA
  Total_Score	| 9.1208
  Crash		| -1.7684
  Polar		| 1.2142
  FragIndex	| 1
  FragRMSD	| 0.339

