@<TRIPOS>MOLECULE
BindingDB_50220968
 38 41 0 0 0
SMALL
NO_CHARGES


@<TRIPOS>ATOM
1    C        23.0610   15.1798  106.2879  C     
2    C        22.4235   16.4239  106.4709  C     
3    C        21.2739   16.5166  107.2715  C     
4    C        22.5281   14.0269  106.8901  C     
5    C        21.3818   14.1143  107.6963  C     
6    C        20.7206   15.3656  107.8699  C     
7    C        20.0894   13.1587  109.4569  C     
8    O        20.9111   12.9565  108.2842  O     
9    C        18.9860   14.2167  109.1637  C     
10   N        19.6237   15.4013  108.6837  N     
11   N        19.0937   16.4518  109.1490  N     
12   C        18.1976   16.2163  110.0330  C     
13   C        18.0558   14.7835  110.2827  C     
14   C        17.4605   17.2039  110.6329  C     
15   O        16.5520   16.9009  111.3982  O     
16   C        17.7459   18.6187  110.4564  C     
17   F        22.9127   17.4923  105.9051  F     
18   C        18.3684   14.2727  111.6579  C     
19   C        17.8136   13.0310  112.0507  C     
20   C        18.1358   12.4547  113.2957  C     
21   C        18.9709   13.1344  114.2109  C     
22   C        19.4751   14.3975  113.8619  C     
23   C        19.1862   14.9626  112.6052  C     
24   H        23.9011   15.1064  105.7117  H     
25   H        20.8218   17.4283  107.3958  H     
26   H        22.9901   13.1257  106.7661  H     
27   H        19.6515   12.2006  109.7348  H     
28   H        20.7221   13.4875  110.2841  H     
29   H        18.3615   13.8282  108.3538  H     
30   H        17.0176   14.5138  110.0597  H     
31   H        18.7870   18.8302  110.7123  H     
32   H        17.1103   19.2413  111.0924  H     
33   H        17.5713   18.9044  109.4189  H     
34   H        17.2366   12.4978  111.3862  H     
35   H        17.7681   11.5424  113.5542  H     
36   H        19.1866   12.7280  115.1257  H     
37   H        20.0784   14.9034  114.5250  H     
38   H        19.5768   15.8843  112.3871  H     
@<TRIPOS>BOND
     1    1    2 2
     2    1    4 1
     3    2    3 1
     4    2   17 1
     5    3    6 2
     6    4    5 2
     7    5    6 1
     8    5    8 1
     9    6   10 1
    10    7    8 1
    11    7    9 1
    12    9   10 1
    13    9   13 1
    14   10   11 1
    15   11   12 2
    16   12   13 1
    17   12   14 1
    18   13   18 1
    19   14   15 2
    20   14   16 1
    21   18   19 2
    22   18   23 1
    23   19   20 1
    24   20   21 2
    25   21   22 1
    26   22   23 2
    27    1   24 1
    28    3   25 1
    29    4   26 1
    30    7   27 1
    31    7   28 1
    32    9   29 1
    33   13   30 1
    34   16   31 1
    35   16   32 1
    36   16   33 1
    37   19   34 1
    38   20   35 1
    39   21   36 1
    40   22   37 1
    41   23   38 1
@<TRIPOS>PROPERTY_DATA
  Total_Score	| 8.5491
  Crash		| -0.6976
  Polar		| 0.5880
  FragIndex	| 1
  FragRMSD	| 0.151

