@<TRIPOS>MOLECULE
BindingDB_50220958
 50 53 0 0 0
SMALL
NO_CHARGES


@<TRIPOS>ATOM
1    C        23.1816   15.1511  106.3822  C     
2    C        22.6259   16.4256  106.5969  C     
3    C        21.4400   16.5616  107.3510  C     
4    C        22.5531   14.0112  106.9157  C     
5    C        21.3759   14.1413  107.6778  C     
6    C        20.7964   15.4254  107.9008  C     
7    C        19.9395   13.1793  109.3351  C     
8    O        20.8128   12.9898  108.1950  O     
9    C        18.9317   14.3270  109.0342  C     
10   N        19.6723   15.4898  108.6787  N     
11   N        19.1513   16.5307  109.1655  N     
12   C        18.1742   16.2936  109.9633  C     
13   C        17.9094   14.8496  110.1081  C     
14   C        16.3792   14.6168  109.7210  C     
15   C        17.5087   17.2961  110.6318  C     
16   O        16.6712   17.0135  111.4872  O     
17   C        18.2812   14.3430  111.5050  C     
18   C        19.2436   14.9988  112.3293  C     
19   C        19.6345   14.4813  113.5752  C     
20   C        19.0790   13.2784  114.0443  C     
21   C        18.1321   12.6064  113.2586  C     
22   C        17.7425   13.1302  112.0116  C     
23   C        16.0217   13.3957  108.8097  C     
24   C        15.6453   13.7767  107.3453  C     
25   C        17.7344   18.6977  110.3606  C     
26   F        23.2108   17.4801  106.0958  F     
27   N        16.1052   12.7972  106.3588  N     
28   H        24.0466   15.0474  105.8450  H     
29   H        21.0435   17.4929  107.4883  H     
30   H        22.9618   13.0861  106.7560  H     
31   H        19.4024   12.2451  109.5236  H     
32   H        20.5586   13.4031  110.2159  H     
33   H        18.4081   14.0366  108.1194  H     
34   H        15.8036   14.5166  110.6463  H     
35   H        15.9552   15.5049  109.2318  H     
36   H        19.6957   15.8568  112.0167  H     
37   H        20.3378   14.9684  114.1405  H     
38   H        19.3722   12.8914  114.9458  H     
39   H        17.7335   11.7219  113.5942  H     
40   H        17.0742   12.5881  111.4674  H     
41   H        16.8469   12.6807  108.8101  H     
42   H        15.1670   12.8795  109.2486  H     
43   H        14.5614   13.8678  107.2659  H     
44   H        16.0804   14.7336  107.0579  H     
45   H        18.7726   18.9424  110.5858  H     
46   H        17.0886   19.3278  110.9728  H     
47   H        17.5281   18.9134  109.3107  H     
48   H        17.1036   12.9406  106.1602  H     
49   H        15.5806   12.9118  105.4862  H     
50   H        15.9596   11.8485  106.7126  H     
@<TRIPOS>BOND
     1    1    2 2
     2    1    4 1
     3    2    3 1
     4    2   26 1
     5    3    6 2
     6    4    5 2
     7    5    6 1
     8    5    8 1
     9    6   10 1
    10    7    8 1
    11    7    9 1
    12    9   10 1
    13    9   13 1
    14   10   11 1
    15   11   12 2
    16   12   13 1
    17   12   15 1
    18   13   14 1
    19   13   17 1
    20   14   23 1
    21   15   16 2
    22   15   25 1
    23   17   18 2
    24   17   22 1
    25   18   19 1
    26   19   20 2
    27   20   21 1
    28   21   22 2
    29   23   24 1
    30   24   27 1
    31    1   28 1
    32    3   29 1
    33    4   30 1
    34    7   31 1
    35    7   32 1
    36    9   33 1
    37   14   34 1
    38   14   35 1
    39   18   36 1
    40   19   37 1
    41   20   38 1
    42   21   39 1
    43   22   40 1
    44   23   41 1
    45   23   42 1
    46   24   43 1
    47   24   44 1
    48   25   45 1
    49   25   46 1
    50   25   47 1
    51   27   48 1
    52   27   49 1
    53   27   50 1
@<TRIPOS>PROPERTY_DATA
  Total_Score	| 10.3091
  Crash		| -1.8986
  Polar		| 3.2830
  FragIndex	| 1
  FragRMSD	| 0.917

