@<TRIPOS>MOLECULE
BindingDB_50220970
 64 68 0 0 0
SMALL
NO_CHARGES


@<TRIPOS>ATOM
1    C        23.0344   15.1051  106.4821  C     
2    C        22.4622   16.3759  106.7166  C     
3    C        21.2654   16.4644  107.4617  C     
4    C        22.4463   13.9518  107.0218  C     
5    C        21.2747   14.0497  107.8007  C     
6    C        20.6496   15.3104  107.9933  C     
7    C        19.8845   13.0792  109.4915  C     
8    O        20.7675   12.8944  108.3631  O     
9    C        18.8185   14.1592  109.1388  C     
10   N        19.5074   15.3464  108.7363  N     
11   N        18.9776   16.3882  109.2051  N     
12   C        18.0149   16.1595  110.0159  C     
13   C        17.7939   14.7115  110.1931  C     
14   C        16.3041   14.3860  109.7408  C     
15   C        17.3633   17.1873  110.6544  C     
16   O        16.4978   16.9369  111.4853  O     
17   C        18.1411   14.2272  111.6025  C     
18   C        17.6740   12.9738  112.0861  C     
19   C        18.0633   12.4603  113.3379  C     
20   C        18.9608   13.1807  114.1412  C     
21   C        19.4712   14.4031  113.6858  C     
22   C        19.0739   14.9120  112.4365  C     
23   C        15.9537   14.6348  108.2345  C     
24   C        14.8855   15.7136  107.8991  C     
25   C        17.6676   18.5835  110.4088  C     
26   N        13.4613   15.5600  108.3565  N     
27   C        13.0068   14.1640  108.6469  C     
28   C        11.4946   14.1234  108.9837  C     
29   O        11.2017   15.0312  110.0604  O     
30   C        11.5574   16.3954  109.7676  C     
31   C        13.0659   16.5155  109.4346  C     
32   C        23.1325   17.5812  106.1818  C     
33   H        23.8926   15.0122  105.9343  H     
34   H        20.8396   17.3822  107.6093  H     
35   H        22.8802   13.0363  106.8712  H     
36   H        19.3922   12.1316  109.7171  H     
37   H        20.4720   13.3803  110.3601  H     
38   H        18.2941   13.7740  108.2547  H     
39   H        16.1002   13.3357  109.9197  H     
40   H        15.6111   14.9300  110.3823  H     
41   H        17.0612   12.3856  111.5158  H     
42   H        17.7034   11.5622  113.6596  H     
43   H        19.2583   12.7985  115.0440  H     
44   H        20.1442   14.9190  114.2580  H     
45   H        19.5068   15.7862  112.1315  H     
46   H        16.8752   14.9249  107.7095  H     
47   H        15.6503   13.6910  107.7769  H     
48   H        15.2957   16.6786  108.2041  H     
49   H        14.8348   15.7541  106.8063  H     
50   H        18.7102   18.7877  110.6691  H     
51   H        17.0353   19.2411  111.0033  H     
52   H        17.5026   18.8315  109.3579  H     
53   H        12.9014   15.8588  107.5556  H     
54   H        13.1871   13.5247  107.7730  H     
55   H        13.5579   13.7572  109.4960  H     
56   H        10.9002   14.3763  108.0959  H     
57   H        11.2245   13.1168  109.2960  H     
58   H        10.9583   16.7647  108.9312  H     
59   H        11.3194   17.0000  110.6433  H     
60   H        13.6430   16.3354  110.3445  H     
61   H        13.2556   17.5458  109.1218  H     
62   H        24.1734   17.6134  106.5137  H     
63   H        22.6466   18.4996  106.5167  H     
64   H        23.1055   17.5595  105.0907  H     
@<TRIPOS>BOND
     1    1    2 2
     2    1    4 1
     3    2    3 1
     4    2   32 1
     5    3    6 2
     6    4    5 2
     7    5    6 1
     8    5    8 1
     9    6   10 1
    10    7    8 1
    11    7    9 1
    12    9   10 1
    13    9   13 1
    14   10   11 1
    15   11   12 2
    16   12   13 1
    17   12   15 1
    18   13   14 1
    19   13   17 1
    20   14   23 1
    21   15   16 2
    22   15   25 1
    23   17   18 2
    24   17   22 1
    25   18   19 1
    26   19   20 2
    27   20   21 1
    28   21   22 2
    29   23   24 1
    30   24   26 1
    31   26   27 1
    32   26   31 1
    33   27   28 1
    34   28   29 1
    35   29   30 1
    36   30   31 1
    37    1   33 1
    38    3   34 1
    39    4   35 1
    40    7   36 1
    41    7   37 1
    42    9   38 1
    43   14   39 1
    44   14   40 1
    45   18   41 1
    46   19   42 1
    47   20   43 1
    48   21   44 1
    49   22   45 1
    50   23   46 1
    51   23   47 1
    52   24   48 1
    53   24   49 1
    54   25   50 1
    55   25   51 1
    56   25   52 1
    57   26   53 1
    58   27   54 1
    59   27   55 1
    60   28   56 1
    61   28   57 1
    62   30   58 1
    63   30   59 1
    64   31   60 1
    65   31   61 1
    66   32   62 1
    67   32   63 1
    68   32   64 1
@<TRIPOS>PROPERTY_DATA
  Total_Score	| 9.4562
  Crash		| -2.1347
  Polar		| 0.7781
  FragIndex	| 1
  FragRMSD	| 0.565

