@<TRIPOS>MOLECULE
BindingDB_24104
 67 71 0 0 0
SMALL
NO_CHARGES


@<TRIPOS>ATOM
1    C        22.5284   14.0476  106.9309  C     
2    C        23.0530   15.2109  106.3416  C     
3    C        22.4118   16.4476  106.5343  C     
4    C        21.2399   16.5197  107.3102  C     
5    C        21.3528   14.1121  107.7068  C     
6    C        20.6838   15.3544  107.8901  C     
7    C        20.0218   13.1153  109.4283  C     
8    F        22.9003   17.5279  105.9871  F     
9    O        20.8763   12.9481  108.2713  O     
10   C        18.9183   14.1700  109.1131  C     
11   C        18.1006   16.1491  110.0080  C     
12   N        19.5643   15.3585  108.6724  N     
13   N        19.0209   16.3900  109.1485  N     
14   C        17.9186   14.7034  110.2104  C     
15   C        16.4183   14.2846  109.8834  C     
16   C        15.6784   14.9032  108.6584  C     
17   C        14.2504   14.2898  108.4810  C     
18   C        11.0266   14.0255  108.2992  C     
19   C        12.0915   14.3275  107.2035  C     
20   C        12.7467   16.3494  108.4485  C     
21   C        11.6850   16.0273  109.5360  C     
22   N        13.2566   15.1270  107.7235  N     
23   N        10.5943   15.2442  108.9657  N     
24   C         9.3073   15.6359  109.0678  C     
25   C         8.1604   14.8870  108.5847  C     
26   O         9.0304   16.6926  109.6288  O     
27   C        18.3079   14.2162  111.5974  C     
28   C        17.8706   12.9437  112.0607  C     
29   C        19.1721   14.9424  112.4714  C     
30   C        19.5066   14.4614  113.7509  C     
31   C        19.0123   13.2233  114.1891  C     
32   C        18.1983   12.4590  113.3358  C     
33   C        17.4363   17.1618  110.6656  C     
34   C        17.7570   18.5642  110.4796  C     
35   O        16.5412   16.8843  111.4572  O     
36   H        23.0020   13.1521  106.7936  H     
37   H        23.9030   15.1549  105.7779  H     
38   H        20.7799   17.4228  107.4364  H     
39   H        19.5735   12.1516  109.6625  H     
40   H        20.6359   13.4266  110.2764  H     
41   H        18.3615   13.7843  108.2541  H     
42   H        16.3888   13.1983  109.7397  H     
43   H        15.7849   14.5139  110.7502  H     
44   H        15.5845   15.9816  108.8287  H     
45   H        16.2530   14.7560  107.7310  H     
46   H        14.3983   13.3430  107.9425  H     
47   H        13.8342   14.0384  109.4647  H     
48   H        10.2185   13.4707  107.8269  H     
49   H        11.4646   13.3570  109.0484  H     
50   H        12.4355   13.3840  106.7680  H     
51   H        11.6187   14.8916  106.3983  H     
52   H        12.2884   17.0162  107.7035  H     
53   H        13.5579   16.9194  108.9069  H     
54   H        12.1554   15.4632  110.3493  H     
55   H        11.3740   16.9840  109.9699  H     
56   H        13.7599   15.4702  106.8957  H     
57   H         8.2205   14.7734  107.4996  H     
58   H         7.2106   15.3857  108.8119  H     
59   H         8.1280   13.8961  109.0485  H     
60   H        17.3044   12.3382  111.4656  H     
61   H        19.5796   15.8312  112.1829  H     
62   H        20.1230   15.0061  114.3626  H     
63   H        19.2583   12.8612  115.1139  H     
64   H        17.8610   11.5448  113.6386  H     
65   H        18.7909   18.7517  110.7849  H     
66   H        17.1021   19.2078  111.0759  H     
67   H        17.6399   18.8428  109.4276  H     
@<TRIPOS>BOND
     1    1    2 2
     2    1    5 1
     3    2    3 1
     4    3    4 2
     5    3    8 1
     6    4    6 1
     7    5    6 2
     8    5    9 1
     9    6   12 1
    10    7    9 1
    11   10    7 1
    12   10   12 1
    13   10   14 1
    14   11   13 2
    15   11   14 1
    16   11   33 1
    17   12   13 1
    18   14   15 1
    19   14   27 1
    20   15   16 1
    21   16   17 1
    22   17   22 1
    23   18   19 1
    24   18   23 1
    25   19   22 1
    26   20   21 1
    27   20   22 1
    28   21   23 1
    29   23   24 am
    30   24   25 1
    31   24   26 2
    32   27   28 2
    33   27   29 1
    34   28   32 1
    35   29   30 2
    36   30   31 1
    37   31   32 2
    38   33   34 1
    39   33   35 2
    40    1   36 1
    41    2   37 1
    42    4   38 1
    43    7   39 1
    44    7   40 1
    45   10   41 1
    46   15   42 1
    47   15   43 1
    48   16   44 1
    49   16   45 1
    50   17   46 1
    51   17   47 1
    52   18   48 1
    53   18   49 1
    54   19   50 1
    55   19   51 1
    56   20   52 1
    57   20   53 1
    58   21   54 1
    59   21   55 1
    60   22   56 1
    61   25   57 1
    62   25   58 1
    63   25   59 1
    64   28   60 1
    65   29   61 1
    66   30   62 1
    67   31   63 1
    68   32   64 1
    69   34   65 1
    70   34   66 1
    71   34   67 1
@<TRIPOS>PROPERTY_DATA
  Total_Score	| 9.0408
  Crash		| -1.0349
  Polar		| 0.6546
  FragIndex	| 1
  FragRMSD	| 0.099

