@<TRIPOS>MOLECULE
BindingDB_50220969
 67 71 0 0 0
SMALL
NO_CHARGES


@<TRIPOS>ATOM
1    C        23.0563   15.1333  106.5068  C     
2    C        22.4791   16.4008  106.7051  C     
3    C        21.2835   16.5274  107.4420  C     
4    C        22.4486   13.9945  107.0595  C     
5    C        21.2666   14.1131  107.8105  C     
6    C        20.6524   15.3887  107.9876  C     
7    C        19.8657   13.1700  109.5011  C     
8    O        20.7374   12.9675  108.3674  O     
9    C        18.8101   14.2611  109.1478  C     
10   N        19.5109   15.4334  108.7380  N     
11   N        18.9859   16.4792  109.2156  N     
12   C        18.0206   16.2548  110.0303  C     
13   C        17.7877   14.8122  110.2064  C     
14   C        16.2970   14.4670  109.7762  C     
15   C        17.3777   17.2677  110.6946  C     
16   O        16.5088   17.0037  111.5202  O     
17   C        18.1386   14.3148  111.6082  C     
18   C        19.1090   14.9648  112.4204  C     
19   C        19.5073   14.4479  113.6670  C     
20   C        18.9576   13.2452  114.1347  C     
21   C        18.0143   12.5678  113.3537  C     
22   C        17.6207   13.0849  112.1059  C     
23   C        15.6732   15.1916  108.5225  C     
24   C        14.7920   14.2861  107.5849  C     
25   C        17.6958   18.6697  110.4979  C     
26   Cl       23.2360   17.7745  106.0758  Cl    
27   N        13.3048   14.2298  107.8207  N     
28   C        12.4984   15.0845  106.8924  C     
29   C        10.9848   14.7810  107.0670  C     
30   N        10.5974   14.9976  108.4532  N     
31   C        11.3467   14.1921  109.4059  C     
32   C        12.8792   14.4092  109.2419  C     
33   C         9.6363   15.8745  108.8154  C     
34   C         9.2375   16.1632  110.1835  C     
35   O         9.0420   16.5184  107.9596  O     
36   H        23.9230   15.0354  105.9721  H     
37   H        20.8782   17.4587  107.5769  H     
38   H        22.8786   13.0762  106.9248  H     
39   H        19.3667   12.2298  109.7354  H     
40   H        20.4719   13.4667  110.3614  H     
41   H        18.2798   13.8881  108.2632  H     
42   H        16.2580   13.3924  109.5864  H     
43   H        15.6325   14.6481  110.6285  H     
44   H        19.5630   15.8227  112.1049  H     
45   H        20.2018   14.9442  114.2255  H     
46   H        19.2500   12.8581  115.0348  H     
47   H        17.6180   11.6887  113.6875  H     
48   H        16.9615   12.5296  111.5647  H     
49   H        15.0324   16.0252  108.8662  H     
50   H        16.4831   15.6227  107.9075  H     
51   H        14.9938   14.5879  106.5517  H     
52   H        15.1518   13.2508  107.6367  H     
53   H        18.7342   18.8634  110.7765  H     
54   H        17.0520   19.3110  111.1080  H     
55   H        17.5498   18.9386  109.4507  H     
56   H        13.0441   13.2692  107.5799  H     
57   H        12.6917   16.1458  107.0784  H     
58   H        12.7619   14.8696  105.8546  H     
59   H        10.4307   15.3895  106.3506  H     
60   H        10.7937   13.7332  106.8015  H     
61   H        11.1189   14.3946  110.4523  H     
62   H        11.1286   13.1362  109.2254  H     
63   H        13.3907   13.6660  109.8590  H     
64   H        13.1623   15.4168  109.5941  H     
65   H         8.8417   15.2622  110.6548  H     
66   H         8.4640   16.9349  110.2341  H     
67   H        10.0991   16.5265  110.7448  H     
@<TRIPOS>BOND
     1    1    2 2
     2    1    4 1
     3    2    3 1
     4    2   26 1
     5    3    6 2
     6    4    5 2
     7    5    6 1
     8    5    8 1
     9    6   10 1
    10    7    8 1
    11    7    9 1
    12    9   10 1
    13    9   13 1
    14   10   11 1
    15   11   12 2
    16   12   13 1
    17   12   15 1
    18   13   14 1
    19   13   17 1
    20   14   23 1
    21   15   16 2
    22   15   25 1
    23   17   18 2
    24   17   22 1
    25   18   19 1
    26   19   20 2
    27   20   21 1
    28   21   22 2
    29   23   24 1
    30   24   27 1
    31   27   28 1
    32   27   32 1
    33   28   29 1
    34   29   30 1
    35   30   31 1
    36   30   33 am
    37   31   32 1
    38   33   34 1
    39   33   35 2
    40    1   36 1
    41    3   37 1
    42    4   38 1
    43    7   39 1
    44    7   40 1
    45    9   41 1
    46   14   42 1
    47   14   43 1
    48   18   44 1
    49   19   45 1
    50   20   46 1
    51   21   47 1
    52   22   48 1
    53   23   49 1
    54   23   50 1
    55   24   51 1
    56   24   52 1
    57   25   53 1
    58   25   54 1
    59   25   55 1
    60   27   56 1
    61   28   57 1
    62   28   58 1
    63   29   59 1
    64   29   60 1
    65   31   61 1
    66   31   62 1
    67   32   63 1
    68   32   64 1
    69   34   65 1
    70   34   66 1
    71   34   67 1
@<TRIPOS>PROPERTY_DATA
  Total_Score	| 9.0694
  Crash		| -2.2107
  Polar		| 1.3789
  FragIndex	| 1
  FragRMSD	| 0.821

