@<TRIPOS>MOLECULE
BindingDB_50220957
 59 62 0 0 0
SMALL
NO_CHARGES


@<TRIPOS>ATOM
1    C        23.0308   15.0818  106.5126  C     
2    C        22.4322   16.3448  106.7064  C     
3    C        21.2272   16.4240  107.4407  C     
4    C        22.4641   13.9242  107.0741  C     
5    C        21.2885   14.0122  107.8433  C     
6    C        20.6385   15.2674  107.9980  C     
7    C        19.9249   13.0855  109.5723  C     
8    O        20.7991   12.8644  108.4393  O     
9    C        18.8343   14.1333  109.1921  C     
10   N        19.4985   15.3100  108.7512  N     
11   N        18.9869   16.3567  109.2373  N     
12   C        18.0168   16.1429  110.0480  C     
13   C        17.7846   14.7010  110.2203  C     
14   C        16.3057   14.3903  109.7334  C     
15   C        17.3943   17.1694  110.7169  C     
16   O        16.4541   16.9470  111.4617  O     
17   C        18.1322   14.2195  111.6355  C     
18   C        17.6311   12.9984  112.1508  C     
19   C        18.0689   12.4842  113.3809  C     
20   C        19.0190   13.1745  114.1496  C     
21   C        19.5418   14.3821  113.6744  C     
22   C        19.1075   14.8999  112.4354  C     
23   C        15.8856   14.8002  108.2702  C     
24   C        14.6016   15.6683  108.0987  C     
25   C        17.8104   18.5522  110.5969  C     
26   N        13.2549   15.0074  107.9593  N     
27   C        13.1590   13.9748  106.8829  C     
28   C        12.6663   14.5468  109.2545  C     
29   C        23.0785   17.5588  106.1744  C     
30   H        23.8963   14.9985  105.9736  H     
31   H        20.7710   17.3314  107.5710  H     
32   H        22.9202   13.0157  106.9420  H     
33   H        19.4650   12.1350  109.8428  H     
34   H        20.5314   13.4270  110.4166  H     
35   H        18.3204   13.7164  108.3184  H     
36   H        16.1268   13.3145  109.7917  H     
37   H        15.6244   14.8392  110.4634  H     
38   H        16.9910   12.4169  111.6077  H     
39   H        17.7025   11.5871  113.7159  H     
40   H        19.3429   12.7869  115.0393  H     
41   H        20.2530   14.8824  114.2078  H     
42   H        19.5748   15.7459  112.1029  H     
43   H        16.6885   15.3630  107.8033  H     
44   H        15.8038   13.8833  107.6727  H     
45   H        14.5517   16.4090  108.9084  H     
46   H        14.7484   16.2620  107.1915  H     
47   H        18.8351   18.6564  110.9427  H     
48   H        17.1789   19.2191  111.1833  H     
49   H        17.7488   18.8493  109.5542  H     
50   H        12.6300   15.7649  107.6473  H     
51   H        13.7314   14.2651  106.0035  H     
52   H        12.1092   13.8710  106.5695  H     
53   H        13.4962   12.9965  107.2229  H     
54   H        13.3028   13.8017  109.7386  H     
55   H        11.6790   14.1059  109.0978  H     
56   H        12.5402   15.3944  109.9265  H     
57   H        24.1204   17.5909  106.4947  H     
58   H        22.5859   18.4632  106.5273  H     
59   H        23.0332   17.5434  105.0877  H     
@<TRIPOS>BOND
     1    1    2 2
     2    1    4 1
     3    2    3 1
     4    2   29 1
     5    3    6 2
     6    4    5 2
     7    5    6 1
     8    5    8 1
     9    6   10 1
    10    7    8 1
    11    7    9 1
    12    9   10 1
    13    9   13 1
    14   10   11 1
    15   11   12 2
    16   12   13 1
    17   12   15 1
    18   13   14 1
    19   13   17 1
    20   14   23 1
    21   15   16 2
    22   15   25 1
    23   17   18 2
    24   17   22 1
    25   18   19 1
    26   19   20 2
    27   20   21 1
    28   21   22 2
    29   23   24 1
    30   24   26 1
    31   26   27 1
    32   26   28 1
    33    1   30 1
    34    3   31 1
    35    4   32 1
    36    7   33 1
    37    7   34 1
    38    9   35 1
    39   14   36 1
    40   14   37 1
    41   18   38 1
    42   19   39 1
    43   20   40 1
    44   21   41 1
    45   22   42 1
    46   23   43 1
    47   23   44 1
    48   24   45 1
    49   24   46 1
    50   25   47 1
    51   25   48 1
    52   25   49 1
    53   26   50 1
    54   27   51 1
    55   27   52 1
    56   27   53 1
    57   28   54 1
    58   28   55 1
    59   28   56 1
    60   29   57 1
    61   29   58 1
    62   29   59 1
@<TRIPOS>PROPERTY_DATA
  Total_Score	| 9.6979
  Crash		| -1.5768
  Polar		| 0.7928
  FragIndex	| 1
  FragRMSD	| 0.552

