@<TRIPOS>MOLECULE
BindingDB_50220964
 67 71 0 0 0
SMALL
NO_CHARGES


@<TRIPOS>ATOM
1    C        23.0645   15.1721  106.4426  C     
2    C        22.4536   16.4237  106.6435  C     
3    C        21.2718   16.5164  107.3995  C     
4    C        22.5042   14.0147  107.0162  C     
5    C        21.3218   14.1026  107.7744  C     
6    C        20.6762   15.3548  107.9536  C     
7    C        19.9385   13.1182  109.4607  C     
8    O        20.8171   12.9390  108.3250  O     
9    N        19.5331   15.3758  108.7031  N     
10   N        18.9848   16.4106  109.1675  N     
11   C        18.0251   16.1697  109.9831  C     
12   C        17.8354   14.7200  110.1882  C     
13   C        16.3401   14.3095  109.8369  C     
14   C        17.3736   17.1912  110.6323  C     
15   O        16.4922   16.9355  111.4475  O     
16   C        18.2462   14.2748  111.5893  C     
17   C        19.1589   15.0175  112.3966  C     
18   C        19.5883   14.5558  113.6556  C     
19   C        19.1232   13.3261  114.1472  C     
20   C        18.2532   12.5527  113.3699  C     
21   C        17.8416   13.0103  112.1074  C     
22   C        15.6517   14.8173  108.5228  C     
23   C        15.7391   13.8765  107.2622  C     
24   C        17.7025   18.5960  110.4442  C     
25   F        22.9874   17.4975  106.1236  F     
26   N        16.3378   14.3519  105.9445  N     
27   C        16.8818   15.7452  105.9626  C     
28   C        17.8549   16.0643  104.7951  C     
29   C        15.4532   14.0652  104.7643  C     
30   C        17.1646   16.3648  103.5450  C     
31   C        16.1506   14.1504  103.3797  C     
32   N        16.3418   15.5103  102.9086  N     
33   O        17.3676   17.4869  103.0873  O     
34   C        15.6361   15.9537  101.7200  C     
35   C        18.8578   14.1886  109.1191  C     
36   H        23.9220   15.1000  105.8899  H     
37   H        20.8356   17.4306  107.5366  H     
38   H        22.9628   13.1110  106.8821  H     
39   H        19.4638   12.1632  109.6878  H     
40   H        20.5340   13.4223  110.3253  H     
41   H        16.2644   13.2197  109.8198  H     
42   H        15.7144   14.6291  110.6769  H     
43   H        19.5515   15.9029  112.0673  H     
44   H        20.2514   15.1076  114.2073  H     
45   H        19.4301   12.9848  115.0587  H     
46   H        17.9315   11.6436  113.7137  H     
47   H        17.2531   12.3787  111.5667  H     
48   H        14.5890   14.9526  108.7443  H     
49   H        16.0175   15.8173  108.2750  H     
50   H        16.3243   12.9879  107.5248  H     
51   H        14.7206   13.4962  107.0968  H     
52   H        18.7391   18.7812  110.7326  H     
53   H        17.0648   19.2459  111.0520  H     
54   H        17.5660   18.8727  109.3972  H     
55   H        17.1637   13.7632  105.7919  H     
56   H        16.0640   16.4735  105.9789  H     
57   H        17.4471   15.8701  106.8902  H     
58   H        18.4750   16.9122  105.1048  H     
59   H        18.5311   15.2210  104.6501  H     
60   H        15.0789   13.0403  104.8502  H     
61   H        14.5867   14.7329  104.7728  H     
62   H        17.1135   13.6393  103.4259  H     
63   H        15.5475   13.5677  102.6799  H     
64   H        15.0193   16.8240  101.9575  H     
65   H        14.9717   15.2007  101.2943  H     
66   H        16.3528   16.2326  100.9445  H     
67   H        18.3284   13.8074  108.2403  H     
@<TRIPOS>BOND
     1    1    2 2
     2    1    4 1
     3    2    3 1
     4    2   25 1
     5    3    6 2
     6    4    5 2
     7    5    6 1
     8    5    8 1
     9    6    9 1
    10    7    8 1
    11    7   35 1
    12    9   10 1
    13    9   35 1
    14   10   11 2
    15   11   12 1
    16   11   14 1
    17   12   13 1
    18   12   16 1
    19   12   35 1
    20   13   22 1
    21   14   15 2
    22   14   24 1
    23   16   17 2
    24   16   21 1
    25   17   18 1
    26   18   19 2
    27   19   20 1
    28   20   21 2
    29   22   23 1
    30   23   26 1
    31   26   27 1
    32   26   29 1
    33   27   28 1
    34   28   30 1
    35   29   31 1
    36   30   32 1
    37   30   33 2
    38   31   32 1
    39   32   34 1
    40    1   36 1
    41    3   37 1
    42    4   38 1
    43    7   39 1
    44    7   40 1
    45   13   41 1
    46   13   42 1
    47   17   43 1
    48   18   44 1
    49   19   45 1
    50   20   46 1
    51   21   47 1
    52   22   48 1
    53   22   49 1
    54   23   50 1
    55   23   51 1
    56   24   52 1
    57   24   53 1
    58   24   54 1
    59   26   55 1
    60   27   56 1
    61   27   57 1
    62   28   58 1
    63   28   59 1
    64   29   60 1
    65   29   61 1
    66   31   62 1
    67   31   63 1
    68   34   64 1
    69   34   65 1
    70   34   66 1
    71   35   67 1
@<TRIPOS>PROPERTY_DATA
  Total_Score	| 11.2258
  Crash		| -1.7755
  Polar		| 2.6732
  FragIndex	| 1
  FragRMSD	| 0.570

