@<TRIPOS>MOLECULE
BindingDB_50220965
 38 41 0 0 0
SMALL
NO_CHARGES


@<TRIPOS>ATOM
1    C        23.1209   15.1841  106.4817  C     
2    C        22.4909   16.4315  106.6558  C     
3    C        21.2793   16.5196  107.3552  C     
4    C        22.5281   14.0226  107.0094  C     
5    C        21.3198   14.1046  107.7220  C     
6    C        20.6702   15.3598  107.8977  C     
7    C        19.9610   13.1171  109.4172  C     
8    O        20.8007   12.9384  108.2548  O     
9    C        18.8873   14.2051  109.1187  C     
10   N        19.5381   15.3901  108.6631  N     
11   N        19.0149   16.4315  109.1590  N     
12   C        18.1132   16.1865  110.0393  C     
13   C        17.9644   14.7545  110.2416  C     
14   C        17.4208   17.1626  110.7016  C     
15   O        16.5168   16.8499  111.4721  O     
16   C        17.7293   18.5769  110.5791  C     
17   C        18.2796   14.2305  111.6097  C     
18   C        17.7319   12.9947  112.0170  C     
19   C        18.0521   12.4429  113.2745  C     
20   C        18.9329   13.1148  114.1346  C     
21   C        19.5010   14.3393  113.7385  C     
22   C        19.1800   14.8893  112.4842  C     
23   H        24.0065   15.1233  105.9837  H     
24   H        22.9259   17.2747  106.2720  H     
25   H        20.8347   17.4335  107.4726  H     
26   H        22.9926   13.1175  106.8871  H     
27   H        19.4824   12.1659  109.6560  H     
28   H        20.5865   13.4108  110.2657  H     
29   H        18.2655   13.8283  108.2954  H     
30   H        16.9275   14.5013  109.9935  H     
31   H        18.7682   18.7594  110.8691  H     
32   H        17.0868   19.1938  111.2177  H     
33   H        17.5866   18.8987  109.5440  H     
34   H        17.1085   12.4751  111.4008  H     
35   H        17.6472   11.5491  113.5521  H     
36   H        19.1697   12.7070  115.0446  H     
37   H        20.1567   14.8278  114.3606  H     
38   H        19.6202   15.7741  112.2137  H     
@<TRIPOS>BOND
     1    1    2 2
     2    1    4 1
     3    2    3 1
     4    3    6 2
     5    4    5 2
     6    5    6 1
     7    5    8 1
     8    6   10 1
     9    7    8 1
    10    7    9 1
    11    9   10 1
    12    9   13 1
    13   10   11 1
    14   11   12 2
    15   12   13 1
    16   12   14 1
    17   13   17 1
    18   14   15 2
    19   14   16 1
    20   17   18 2
    21   17   22 1
    22   18   19 1
    23   19   20 2
    24   20   21 1
    25   21   22 2
    26    1   23 1
    27    2   24 1
    28    3   25 1
    29    4   26 1
    30    7   27 1
    31    7   28 1
    32    9   29 1
    33   13   30 1
    34   16   31 1
    35   16   32 1
    36   16   33 1
    37   18   34 1
    38   19   35 1
    39   20   36 1
    40   21   37 1
    41   22   38 1
@<TRIPOS>PROPERTY_DATA
  Total_Score	| 8.2369
  Crash		| -0.8049
  Polar		| 0.6581
  FragIndex	| 1
  FragRMSD	| 0.104

