@<TRIPOS>MOLECULE
BindingDB_50220963
 64 68 0 0 0
SMALL
NO_CHARGES


@<TRIPOS>ATOM
1    C        22.9881   15.2215  106.3299  C     
2    C        22.3361   16.4533  106.5129  C     
3    C        21.1733   16.5193  107.3059  C     
4    C        22.4766   14.0574  106.9279  C     
5    C        21.3176   14.1166  107.7273  C     
6    C        20.6384   15.3533  107.9076  C     
7    C        20.0016   13.1223  109.4672  C     
8    O        20.8685   12.9553  108.3248  O     
9    C        18.8739   14.1624  109.1535  C     
10   N        19.5236   15.3514  108.6957  N     
11   N        18.9803   16.3784  109.1729  N     
12   C        18.0589   16.1428  110.0327  C     
13   C        17.8744   14.6924  110.2595  C     
14   C        16.3579   14.2413  109.9803  C     
15   C        17.3661   17.1533  110.6335  C     
16   O        16.4760   16.9040  111.4257  O     
17   C        18.3164   14.2295  111.6389  C     
18   C        17.9102   12.9489  112.1106  C     
19   C        18.2916   12.4678  113.3750  C     
20   C        19.1303   13.2374  114.1955  C     
21   C        19.5893   14.4885  113.7429  C     
22   C        19.1797   14.9785  112.4943  C     
23   C        15.5051   14.9296  108.8617  C     
24   C        14.1221   14.2542  108.5635  C     
25   C        17.6999   18.5677  110.4441  C     
26   F        22.8046   17.5312  105.9512  F     
27   N        13.1502   15.1332  107.8073  N     
28   C        11.9754   14.3914  107.2439  C     
29   C        10.8877   13.9181  108.2527  C     
30   C        12.7392   16.4351  108.4491  C     
31   C        10.0340   14.9910  108.7475  C     
32   C        11.8323   16.3502  109.7150  C     
33   N        10.4715   16.0558  109.4068  N     
34   O         8.8270   14.9540  108.5501  O     
35   H        23.8317   15.1701  105.7574  H     
36   H        20.7031   17.4199  107.4295  H     
37   H        22.9588   13.1682  106.7953  H     
38   H        19.5733   12.1503  109.7004  H     
39   H        20.6077   13.4409  110.3169  H     
40   H        18.3264   13.7651  108.2938  H     
41   H        16.3408   13.1574  109.8049  H     
42   H        15.7685   14.3736  110.8984  H     
43   H        17.3155   12.3534  111.5327  H     
44   H        17.9618   11.5532  113.6908  H     
45   H        19.4137   12.8812  115.1114  H     
46   H        20.2066   15.0443  114.3413  H     
47   H        19.5297   15.8959  112.2136  H     
48   H        15.3154   15.9573  109.1884  H     
49   H        16.0820   14.9963  107.9211  H     
50   H        14.3617   13.3720  107.9559  H     
51   H        13.6609   13.9035  109.5010  H     
52   H        18.7113   18.7739  110.8215  H     
53   H        16.9933   19.2176  110.9734  H     
54   H        17.6593   18.8169  109.3793  H     
55   H        13.6733   15.4230  106.9758  H     
56   H        11.4959   15.0213  106.4867  H     
57   H        12.3401   13.5115  106.7052  H     
58   H        10.2726   13.1669  107.7479  H     
59   H        11.3624   13.4270  109.1008  H     
60   H        13.6347   17.0035  108.7333  H     
61   H        12.2038   17.0420  107.6942  H     
62   H        12.2210   15.6221  110.4295  H     
63   H        11.8368   17.3315  110.2012  H     
64   H         9.8011   16.7059  109.6873  H     
@<TRIPOS>BOND
     1    1    2 2
     2    1    4 1
     3    2    3 1
     4    2   26 1
     5    3    6 2
     6    4    5 2
     7    5    6 1
     8    5    8 1
     9    6   10 1
    10    7    8 1
    11    7    9 1
    12    9   10 1
    13    9   13 1
    14   10   11 1
    15   11   12 2
    16   12   13 1
    17   12   15 1
    18   13   14 1
    19   13   17 1
    20   14   23 1
    21   15   16 2
    22   15   25 1
    23   17   18 2
    24   17   22 1
    25   18   19 1
    26   19   20 2
    27   20   21 1
    28   21   22 2
    29   23   24 1
    30   24   27 1
    31   27   28 1
    32   27   30 1
    33   28   29 1
    34   29   31 1
    35   30   32 1
    36   31   33 1
    37   31   34 2
    38   32   33 1
    39    1   35 1
    40    3   36 1
    41    4   37 1
    42    7   38 1
    43    7   39 1
    44    9   40 1
    45   14   41 1
    46   14   42 1
    47   18   43 1
    48   19   44 1
    49   20   45 1
    50   21   46 1
    51   22   47 1
    52   23   48 1
    53   23   49 1
    54   24   50 1
    55   24   51 1
    56   25   52 1
    57   25   53 1
    58   25   54 1
    59   27   55 1
    60   28   56 1
    61   28   57 1
    62   29   58 1
    63   29   59 1
    64   30   60 1
    65   30   61 1
    66   32   62 1
    67   32   63 1
    68   33   64 1
@<TRIPOS>PROPERTY_DATA
  Total_Score	| 9.3076
  Crash		| -1.1205
  Polar		| 0.6841
  FragIndex	| 1
  FragRMSD	| 1.037

