@<TRIPOS>MOLECULE
BindingDB_50220962
 63 67 0 0 0
SMALL
NO_CHARGES


@<TRIPOS>ATOM
1    C        23.1027   15.2157  106.4738  C     
2    C        22.4816   16.4621  106.6695  C     
3    C        21.2824   16.5426  107.4037  C     
4    C        22.5278   14.0496  107.0116  C     
5    C        21.3372   14.1260  107.7585  C     
6    C        20.6900   15.3782  107.9495  C     
7    C        19.9646   13.1214  109.4365  C     
8    O        20.8294   12.9583  108.2905  O     
9    C        18.8864   14.2076  109.1354  C     
10   N        19.5536   15.3933  108.7095  N     
11   N        19.0083   16.4242  109.1821  N     
12   C        18.0761   16.1825  110.0273  C     
13   C        17.8985   14.7356  110.2415  C     
14   C        16.4060   14.2959  109.9307  C     
15   C        17.4146   17.1974  110.6739  C     
16   O        16.4949   16.9343  111.4389  O     
17   C        18.3235   14.2604  111.6288  C     
18   C        19.2022   14.9939  112.4766  C     
19   C        19.5898   14.5117  113.7397  C     
20   C        19.1190   13.2698  114.1970  C     
21   C        18.2771   12.5092  113.3779  C     
22   C        17.9033   12.9918  112.1135  C     
23   C        15.5669   15.0720  108.8673  C     
24   C        14.2101   14.3591  108.5824  C     
25   C        17.7550   18.6002  110.5030  C     
26   F        23.0148   17.5432  106.1674  F     
27   N        13.2108   15.1474  107.7817  N     
28   C        12.0676   14.3015  107.2907  C     
29   C        11.0445   13.9568  108.4112  C     
30   N        10.5957   15.1763  109.1234  N     
31   C        11.6946   16.0422  109.6102  C     
32   C        12.6622   16.3826  108.4448  C     
33   H        23.9730   15.1501  105.9387  H     
34   H        20.8425   17.4559  107.5332  H     
35   H        22.9859   13.1464  106.8682  H     
36   H        19.4833   12.1649  109.6420  H     
37   H        20.5749   13.4005  110.2997  H     
38   H        18.3247   13.8443  108.2682  H     
39   H        16.4235   13.2480  109.6168  H     
40   H        15.8320   14.3323  110.8620  H     
41   H        19.5936   15.8881  112.1745  H     
42   H        20.2233   15.0599  114.3279  H     
43   H        19.3968   12.9121  115.1139  H     
44   H        17.9401   11.5995  113.6970  H     
45   H        17.3187   12.3828  111.5430  H     
46   H        15.3734   16.0793  109.2484  H     
47   H        16.1322   15.1712  107.9338  H     
48   H        14.4505   13.4339  108.0520  H     
49   H        13.7674   14.0658  109.5314  H     
50   H        18.7825   18.7773  110.8286  H     
51   H        17.0974   19.2508  111.0844  H     
52   H        17.6597   18.8771  109.4518  H     
53   H        13.7136   15.4639  106.9487  H     
54   H        11.5408   14.8460  106.5033  H     
55   H        12.4368   13.3776  106.8328  H     
56   H        10.1730   13.4666  107.9685  H     
57   H        11.4881   13.2652  109.1311  H     
58   H        10.0165   15.7259  108.4814  H     
59   H        10.0202   14.9027  109.9230  H     
60   H        11.2596   16.9613  110.0093  H     
61   H        12.2324   15.5455  110.4238  H     
62   H        13.4484   17.0412  108.8135  H     
63   H        12.1132   16.9666  107.6991  H     
@<TRIPOS>BOND
     1    1    2 2
     2    1    4 1
     3    2    3 1
     4    2   26 1
     5    3    6 2
     6    4    5 2
     7    5    6 1
     8    5    8 1
     9    6   10 1
    10    7    8 1
    11    7    9 1
    12    9   10 1
    13    9   13 1
    14   10   11 1
    15   11   12 2
    16   12   13 1
    17   12   15 1
    18   13   14 1
    19   13   17 1
    20   14   23 1
    21   15   16 2
    22   15   25 1
    23   17   18 2
    24   17   22 1
    25   18   19 1
    26   19   20 2
    27   20   21 1
    28   21   22 2
    29   23   24 1
    30   24   27 1
    31   27   28 1
    32   27   32 1
    33   28   29 1
    34   29   30 1
    35   30   31 1
    36   31   32 1
    37    1   33 1
    38    3   34 1
    39    4   35 1
    40    7   36 1
    41    7   37 1
    42    9   38 1
    43   14   39 1
    44   14   40 1
    45   18   41 1
    46   19   42 1
    47   20   43 1
    48   21   44 1
    49   22   45 1
    50   23   46 1
    51   23   47 1
    52   24   48 1
    53   24   49 1
    54   25   50 1
    55   25   51 1
    56   25   52 1
    57   27   53 1
    58   28   54 1
    59   28   55 1
    60   29   56 1
    61   29   57 1
    62   30   58 1
    63   30   59 1
    64   31   60 1
    65   31   61 1
    66   32   62 1
    67   32   63 1
@<TRIPOS>PROPERTY_DATA
  Total_Score	| 9.2342
  Crash		| -1.3171
  Polar		| 0.7185
  FragIndex	| 1
  FragRMSD	| 0.111

