@<TRIPOS>MOLECULE
BindingDB_17151
 37 39 0 0 0
SMALL
NO_CHARGES


@<TRIPOS>ATOM
1    C        15.0707   -7.5610   13.8815  C     
2    C        15.0909   -6.6317   11.8809  C     
3    C        14.0571   -8.2810   13.3093  C     
4    O        15.5452   -7.7151   15.0026  O     
5    N        15.6170   -6.6538   13.1093  N     
6    N        15.4724   -5.7785   10.9158  N     
7    S        13.8850   -7.8493   11.6478  S     
8    C        13.2874   -9.2398   13.9035  C     
9    C        12.3159   -9.9755   13.2119  C     
10   C        11.9501  -11.3065   13.4408  C     
11   C        10.8940  -11.6067   12.6021  C     
12   C        10.6253  -10.4675   11.8428  C     
13   O        11.5029   -9.4996   12.2264  O     
14   C         9.6317  -10.3181   10.8398  C     
15   C         7.6990   -9.9581    8.7685  C     
16   C         7.7634  -11.1753    9.4791  C     
17   C         8.7210  -11.3541   10.4938  C     
18   C         9.5433   -9.0968   10.1308  C     
19   C         8.5957   -8.9200    9.1093  C     
20   S         6.5045   -9.6877    7.5353  S     
21   O         5.8099  -11.0147    6.9917  O     
22   O         5.3944   -8.7929    8.2441  O     
23   N         7.1284   -8.7910    6.2608  N     
24   C        13.4025   -9.5112   15.3442  C     
25   H        16.3300   -6.0540   13.4003  H     
26   H        16.1768   -5.1332   11.0822  H     
27   H        12.3591  -11.9517   14.1167  H     
28   H        10.4051  -12.5066   12.5764  H     
29   H         7.1095  -11.9274    9.2649  H     
30   H         8.7355  -12.2478   10.9824  H     
31   H        10.1715   -8.3194   10.3535  H     
32   H         8.5625   -8.0253    8.6193  H     
33   H         6.5566   -8.1710    5.7731  H     
34   H         7.9925   -9.0387    5.8912  H     
35   H        14.3952   -9.9006   15.5899  H     
36   H        12.6658  -10.2241   15.7245  H     
37   H        13.2154   -8.5835   15.8947  H     
@<TRIPOS>BOND
     1    1    3 1
     2    1    4 2
     3    1    5 1
     4    2    5 1
     5    2    6 2
     6    2    7 1
     7    3    7 1
     8    3    8 2
     9    8    9 1
    10    8   24 1
    11    9   10 2
    12    9   13 1
    13   10   11 1
    14   11   12 2
    15   12   13 1
    16   12   14 1
    17   14   17 1
    18   14   18 2
    19   15   16 1
    20   15   19 2
    21   15   20 1
    22   16   17 2
    23   18   19 1
    24   20   21 2
    25   20   22 2
    26   20   23 am
    27    5   25 1
    28    6   26 1
    29   10   27 1
    30   11   28 1
    31   16   29 1
    32   17   30 1
    33   18   31 1
    34   19   32 1
    35   23   33 1
    36   23   34 1
    37   24   35 1
    38   24   36 1
    39   24   37 1
@<TRIPOS>PROPERTY_DATA
  Total_Score	| 5.6593
  Crash		| -2.4797
  Polar		| 2.7256
  FragIndex	| 1
  FragRMSD	| 0.398

