@<TRIPOS>MOLECULE
BindingDB_17146
 47 50 0 0 0
SMALL
NO_CHARGES


@<TRIPOS>ATOM
1    C        15.2718   -7.5764   13.8199  C     
2    C        14.7066   -6.0553   12.3166  C     
3    C        14.1654   -8.1746   13.3061  C     
4    O        15.9565   -8.0117   14.7425  O     
5    N        15.5701   -6.4160   13.2826  N     
6    N        14.8115   -4.9303   11.5851  N     
7    S        13.4180   -7.1914   12.1020  S     
8    C        13.7809   -9.4397   13.5845  C     
9    C        12.6472  -10.0715   13.1294  C     
10   C        12.0980  -11.2405   13.6776  C     
11   C        10.9740  -11.5490   12.9436  C     
12   C        10.8090  -10.5644   11.9622  C     
13   O        11.8374   -9.6848   12.1057  O     
14   C         9.7925  -10.4657   10.9795  C     
15   C         7.7290  -10.1855    9.0310  C     
16   C         7.9015  -11.4009    9.7103  C     
17   C         8.9147  -11.5415   10.6735  C     
18   C         9.6174   -9.2524   10.2732  C     
19   C         8.5874   -9.1048    9.3249  C     
20   O         5.3845  -11.1216    7.9404  O     
21   O         5.6145   -8.6943    8.2639  O     
22   S         6.4721   -9.9706    7.8497  S     
23   C         9.0214  -10.9978    5.6442  C     
24   C         7.4727  -10.9544    5.5513  C     
25   C         7.4837   -8.5186    5.7802  C     
26   C         9.0363   -8.5004    5.8348  C     
27   N         6.9993   -9.7886    6.2505  N     
28   N         9.6197   -9.7108    5.2073  N     
29   H        16.3378   -5.8741   13.5587  H     
30   H        15.5458   -4.3137   11.7484  H     
31   H        14.3844   -9.9681   14.1891  H     
32   H        12.4518  -11.7549   14.4809  H     
33   H        10.3447  -12.3338   13.1276  H     
34   H         7.3001  -12.2007    9.5052  H     
35   H         9.0145  -12.4411   11.1471  H     
36   H        10.2337   -8.4552   10.4558  H     
37   H         8.4797   -8.2110    8.8580  H     
38   H         9.3313  -11.2025    6.6736  H     
39   H         9.4101  -11.7993    5.0088  H     
40   H         7.1783  -10.8961    4.4974  H     
41   H         7.0634  -11.8887    5.9445  H     
42   H         7.0815   -7.6847    6.3563  H     
43   H         7.1641   -8.3701    4.7440  H     
44   H         9.4114   -7.6160    5.3150  H     
45   H         9.3730   -8.4432    6.8701  H     
46   H        10.6215   -9.7326    5.4248  H     
47   H         9.4987   -9.6327    4.1962  H     
@<TRIPOS>BOND
     1    1    3 1
     2    1    4 2
     3    1    5 1
     4    2    5 1
     5    2    6 2
     6    2    7 1
     7    3    7 1
     8    3    8 2
     9    8    9 1
    10    9   10 2
    11    9   13 1
    12   10   11 1
    13   11   12 2
    14   12   13 1
    15   12   14 1
    16   14   17 1
    17   14   18 2
    18   15   16 1
    19   15   19 2
    20   15   22 1
    21   16   17 2
    22   18   19 1
    23   20   22 2
    24   21   22 2
    25   22   27 1
    26   23   24 1
    27   23   28 1
    28   24   27 1
    29   25   26 1
    30   25   27 1
    31   26   28 1
    32    5   29 1
    33    6   30 1
    34    8   31 1
    35   10   32 1
    36   11   33 1
    37   16   34 1
    38   17   35 1
    39   18   36 1
    40   19   37 1
    41   23   38 1
    42   23   39 1
    43   24   40 1
    44   24   41 1
    45   25   42 1
    46   25   43 1
    47   26   44 1
    48   26   45 1
    49   28   46 1
    50   28   47 1
@<TRIPOS>PROPERTY_DATA
  Total_Score	| 6.8756
  Crash		| -1.6664
  Polar		| 2.8092
  FragIndex	| 1
  FragRMSD	| 0.473

