@<TRIPOS>MOLECULE
BindingDB_17152
 33 35 0 0 0
SMALL
NO_CHARGES


@<TRIPOS>ATOM
1    C        15.4050   -7.6977   13.8577  C     
2    C        14.8687   -6.0509   12.5243  C     
3    C        14.2600   -8.1978   13.3327  C     
4    O        16.0993   -8.2369   14.7090  O     
5    N        15.7288   -6.5202   13.3905  N     
6    S        13.5565   -7.0896   12.2229  S     
7    C        13.7630   -9.4137   13.6434  C     
8    C        12.6170  -10.0140   13.1490  C     
9    C        12.0707  -11.1958   13.6369  C     
10   C        10.9361  -11.4746   12.8930  C     
11   C        10.7926  -10.4585   11.9500  C     
12   O        11.8307   -9.5947   12.1277  O     
13   C         9.8028  -10.3067   10.9427  C     
14   C         7.8770   -9.9760    8.8683  C     
15   C         7.8075  -11.0890    9.7330  C     
16   C         8.7586  -11.2506   10.7614  C     
17   C         9.8427   -9.1885   10.0836  C     
18   C         8.9046   -9.0313    9.0506  C     
19   S         6.6702   -9.7139    7.6372  S     
20   O         5.5519   -8.7735    8.2665  O     
21   O         7.3559   -8.9791    6.4012  O     
22   N         5.9814  -11.1388    7.0688  N     
23   O        14.9752   -4.9496   12.0076  O     
24   H        16.5162   -6.0276   13.6778  H     
25   H        14.2735   -9.9500   14.3106  H     
26   H        12.4292  -11.7684   14.3992  H     
27   H        10.3246  -12.2714   13.0303  H     
28   H         7.0592  -11.7809    9.6281  H     
29   H         8.6685  -12.0711   11.3674  H     
30   H        10.5606   -8.4731   10.1978  H     
31   H         8.9715   -8.2131    8.4429  H     
32   H         5.5094  -11.1442    6.2158  H     
33   H         6.0824  -11.9618    7.5716  H     
@<TRIPOS>BOND
     1    1    3 1
     2    1    4 2
     3    1    5 1
     4    2    5 1
     5    2    6 1
     6    2   23 2
     7    3    6 1
     8    3    7 2
     9    7    8 1
    10    8    9 2
    11    8   12 1
    12    9   10 1
    13   10   11 2
    14   11   12 1
    15   11   13 1
    16   13   16 1
    17   13   17 2
    18   14   15 1
    19   14   18 2
    20   14   19 1
    21   15   16 2
    22   17   18 1
    23   19   20 2
    24   19   21 2
    25   19   22 am
    26    5   24 1
    27    7   25 1
    28    9   26 1
    29   10   27 1
    30   15   28 1
    31   16   29 1
    32   17   30 1
    33   18   31 1
    34   22   32 1
    35   22   33 1
@<TRIPOS>PROPERTY_DATA
  Total_Score	| 6.3242
  Crash		| -0.9809
  Polar		| 1.8955
  FragIndex	| 1
  FragRMSD	| 0.803

