@<TRIPOS>MOLECULE
BindingDB_17149
 37 39 0 0 0
SMALL
NO_CHARGES


@<TRIPOS>ATOM
1    C        15.8398   -7.6180   13.0920  C     
2    C        15.5228   -7.3287   15.2469  C     
3    C        14.7728   -8.4332   13.2762  C     
4    O        16.3898   -7.3822   12.0278  O     
5    N        16.2380   -7.0023   14.1718  N     
6    N        15.7333   -6.7913   16.4571  N     
7    S        14.3089   -8.5152   14.9241  S     
8    C        14.0520   -8.9482   12.2620  C     
9    C        12.8801   -9.6777   12.3121  C     
10   C        12.4184  -10.6833   13.1631  C     
11   C        11.1793  -11.0872   12.6851  C     
12   C        10.8869  -10.3019   11.5707  C     
13   O        11.9369   -9.4770   11.3656  O     
14   C         9.7717  -10.2985   10.6986  C     
15   C         7.6593  -10.2446    8.7779  C     
16   C         8.4537   -9.1019    9.0254  C     
17   C         9.5010   -9.1342    9.9523  C     
18   C         8.9627  -11.4350   10.4808  C     
19   C         7.9191  -11.4474    9.5121  C     
20   S         6.3895  -10.0005    7.5899  S     
21   O         5.5245  -11.2357    7.0962  O     
22   O         5.4104   -8.9848    8.3210  O     
23   N         6.9237   -9.1553    6.2391  N     
24   C         7.1704  -12.7191    9.2602  C     
25   F         7.4849  -13.7710   10.0968  F     
26   F         5.8170  -12.5253    9.4089  F     
27   F         7.4374  -13.1622    7.9862  F     
28   H        16.9506   -6.3438   14.1794  H     
29   H        16.4427   -6.1433   16.5836  H     
30   H        14.3288   -8.6940   11.3402  H     
31   H        12.9061  -11.0804   13.9685  H     
32   H        10.5985  -11.8221   13.0892  H     
33   H         8.2916   -8.2262    8.5221  H     
34   H        10.0519   -8.2755   10.0834  H     
35   H         9.1822  -12.2854   11.0081  H     
36   H         6.3161   -8.5457    5.7879  H     
37   H         7.7531   -9.4196    5.8020  H     
@<TRIPOS>BOND
     1    1    3 1
     2    1    4 2
     3    1    5 1
     4    2    5 1
     5    2    6 2
     6    2    7 1
     7    3    7 1
     8    3    8 2
     9    8    9 1
    10    9   10 2
    11    9   13 1
    12   10   11 1
    13   11   12 2
    14   12   13 1
    15   12   14 1
    16   14   17 1
    17   14   18 2
    18   15   16 1
    19   15   19 2
    20   15   20 1
    21   16   17 2
    22   18   19 1
    23   19   24 1
    24   20   21 2
    25   20   22 2
    26   20   23 am
    27   24   25 1
    28   24   26 1
    29   24   27 1
    30    5   28 1
    31    6   29 1
    32    8   30 1
    33   10   31 1
    34   11   32 1
    35   16   33 1
    36   17   34 1
    37   18   35 1
    38   23   36 1
    39   23   37 1
@<TRIPOS>PROPERTY_DATA
  Total_Score	| 5.8952
  Crash		| -2.3092
  Polar		| 3.1781
  FragIndex	| 1
  FragRMSD	| 1.312

