@<TRIPOS>MOLECULE
BindingDB_17148
 33 35 0 0 0
SMALL
NO_CHARGES


@<TRIPOS>ATOM
1    C        15.2807   -7.6656   13.8447  C     
2    C        14.8041   -6.1074   12.3589  C     
3    C        14.1698   -8.2131   13.2890  C     
4    O        15.9187   -8.1272   14.7833  O     
5    N        15.6275   -6.5155   13.3262  N     
6    N        14.9323   -4.9344   11.7234  N     
7    S        13.5231   -7.2217   12.0438  S     
8    C        13.6501   -9.3982   13.6736  C     
9    C        12.5317  -10.0437   13.1633  C     
10   C        12.0879  -11.2874   13.6043  C     
11   C        10.9656  -11.6157   12.8687  C     
12   C        10.7243  -10.5727   11.9768  C     
13   O        11.6830   -9.6304   12.1832  O     
14   C         9.6720  -10.4909   11.0261  C     
15   C         7.5091  -10.2970    9.1434  C     
16   C         8.2077   -9.1489    9.5860  C     
17   C         9.2809   -9.2438   10.4932  C     
18   C         8.9851  -11.6429   10.5785  C     
19   C         7.9343  -11.5486    9.6487  C     
20   C         6.4423  -10.1941    8.2476  C     
21   O         5.8194   -9.1493    8.1116  O     
22   N         6.0589  -11.1998    7.4893  N     
23   H        16.3857   -5.9949   13.6365  H     
24   H        14.2971   -4.6849   11.0349  H     
25   H        14.1224   -9.8819   14.4059  H     
26   H        12.5060  -11.8619   14.3378  H     
27   H        10.4097  -12.4607   12.9909  H     
28   H         7.9541   -8.2262    9.2310  H     
29   H         9.7648   -8.3868   10.7713  H     
30   H         9.2477  -12.5726   10.9148  H     
31   H         7.4624  -12.4126    9.3692  H     
32   H         5.3251  -11.0871    6.8662  H     
33   H         6.5229  -12.0504    7.5307  H     
@<TRIPOS>BOND
     1    1    3 1
     2    1    4 2
     3    1    5 1
     4    2    5 1
     5    2    6 2
     6    2    7 1
     7    3    7 1
     8    3    8 2
     9    8    9 1
    10    9   10 2
    11    9   13 1
    12   10   11 1
    13   11   12 2
    14   12   13 1
    15   12   14 1
    16   14   17 1
    17   14   18 2
    18   15   16 1
    19   15   19 2
    20   15   20 1
    21   16   17 2
    22   18   19 1
    23   20   21 2
    24   20   22 am
    25    5   23 1
    26    6   24 1
    27    8   25 1
    28   10   26 1
    29   11   27 1
    30   16   28 1
    31   17   29 1
    32   18   30 1
    33   19   31 1
    34   22   32 1
    35   22   33 1
@<TRIPOS>PROPERTY_DATA
  Total_Score	| 5.4704
  Crash		| -1.1845
  Polar		| 1.8843
  FragIndex	| 1
  FragRMSD	| 0.421

