@<TRIPOS>MOLECULE
BindingDB_17144
 37 39 0 0 0
SMALL
NO_CHARGES


@<TRIPOS>ATOM
1    C        15.3965   -7.7191   13.9093  C     
2    C        14.9240   -6.1180   12.4703  C     
3    C        14.2759   -8.2428   13.3528  C     
4    O        16.0678   -8.2412   14.7871  O     
5    N        15.7489   -6.5592   13.4212  N     
6    N        15.0759   -4.9518   11.8248  N     
7    S        13.6299   -7.2073   12.1386  S     
8    C        13.7397   -9.4291   13.7139  C     
9    C        12.6139  -10.0369   13.1799  C     
10   C        12.0313  -11.2062   13.6522  C     
11   C        10.9331  -11.4762   12.8523  C     
12   C        10.8475  -10.4689   11.8944  C     
13   O        11.8767   -9.6147   12.1228  O     
14   C         9.8819  -10.2914   10.8705  C     
15   C         7.9503   -9.8542    8.8040  C     
16   C         9.0079   -8.9488    9.0027  C     
17   C         9.9660   -9.1678   10.0119  C     
18   C         8.8207  -11.2007   10.6609  C     
19   C         7.8651  -10.9793    9.6496  C     
20   S         6.7403   -9.5401    7.5876  S     
21   O         6.0575  -10.8761    7.0629  O     
22   O         5.5670   -8.7407    8.2847  O     
23   N         7.2965   -8.5978    6.3053  N     
24   C         7.0216   -8.9443    4.9595  C     
25   H        16.5239   -6.0602   13.7226  H     
26   H        14.4435   -4.6885   11.1336  H     
27   H        14.1944   -9.9326   14.4396  H     
28   H        12.3463  -11.7637   14.4447  H     
29   H        10.3096  -12.2750   12.9715  H     
30   H         9.0939   -8.1192    8.4137  H     
31   H        10.7249   -8.4780   10.1155  H     
32   H         8.7190  -12.0279   11.2489  H     
33   H         7.0982  -11.6572    9.5388  H     
34   H         7.4983   -7.6697    6.5089  H     
35   H         7.2271  -10.0043    4.7896  H     
36   H         7.6641   -8.3628    4.3134  H     
37   H         5.9882   -8.7367    4.7276  H     
@<TRIPOS>BOND
     1    1    3 1
     2    1    4 2
     3    1    5 1
     4    2    5 1
     5    2    6 2
     6    2    7 1
     7    3    7 1
     8    3    8 2
     9    8    9 1
    10    9   10 2
    11    9   13 1
    12   10   11 1
    13   11   12 2
    14   12   13 1
    15   12   14 1
    16   14   17 1
    17   14   18 2
    18   15   16 1
    19   15   19 2
    20   15   20 1
    21   16   17 2
    22   18   19 1
    23   20   21 2
    24   20   22 2
    25   20   23 1
    26   23   24 1
    27    5   25 1
    28    6   26 1
    29    8   27 1
    30   10   28 1
    31   11   29 1
    32   16   30 1
    33   17   31 1
    34   18   32 1
    35   19   33 1
    36   23   34 1
    37   24   35 1
    38   24   36 1
    39   24   37 1
@<TRIPOS>PROPERTY_DATA
  Total_Score	| 6.7379
  Crash		| -1.0838
  Polar		| 2.6643
  FragIndex	| 1
  FragRMSD	| 0.124

