@<TRIPOS>MOLECULE
BindingDB_17145
 49 51 0 0 0
SMALL
NO_CHARGES


@<TRIPOS>ATOM
1    C        15.3945   -7.7436   13.8661  C     
2    C        14.8878   -6.1337   12.4459  C     
3    C        14.2623   -8.2675   13.3227  C     
4    O        16.0738   -8.2625   14.7403  O     
5    N        15.7311   -6.5777   13.3787  N     
6    N        15.0337   -4.9651   11.8065  N     
7    S        13.5829   -7.2194   12.1378  S     
8    C        13.7393   -9.4474   13.6888  C     
9    C        12.5971  -10.0587   13.1727  C     
10   C        12.0625  -11.2535   13.6351  C     
11   C        10.9391  -11.5227   12.8776  C     
12   C        10.7948  -10.4961   11.9480  C     
13   O        11.8110   -9.6187   12.1573  O     
14   C         9.7809  -10.3496   10.9599  C     
15   C         7.7930  -10.0011    8.9428  C     
16   C         7.8621  -11.1958    9.6781  C     
17   C         8.8484  -11.3715   10.6656  C     
18   C         9.7152   -9.1526   10.2041  C     
19   C         8.7308   -8.9788    9.2073  C     
20   S         6.5432   -9.7666    7.7482  S     
21   O         5.8800  -11.1158    7.2268  O     
22   O         5.3624   -9.0215    8.5091  O     
23   N         6.9036   -8.7464    6.4607  N     
24   C         7.8555   -9.1340    5.4810  C     
25   C         7.9966   -8.0831    4.3532  C     
26   N         8.3585   -6.7196    4.8787  N     
27   C         9.6645   -6.1968    4.3758  C     
28   C         7.2643   -5.7154    4.7058  C     
29   H        16.5094   -6.0769   13.6737  H     
30   H        14.3884   -4.7017   11.1332  H     
31   H        14.2034   -9.9526   14.4114  H     
32   H        12.4174  -11.8241   14.4051  H     
33   H        10.3319  -12.3324   13.0041  H     
34   H         7.1998  -11.9569    9.4967  H     
35   H         8.8784  -12.2683   11.1633  H     
36   H        10.3741   -8.3887   10.3718  H     
37   H         8.7120   -8.1086    8.6800  H     
38   H         6.6858   -7.8053    6.5600  H     
39   H         8.8288   -9.2747    5.9574  H     
40   H         7.5445  -10.0822    5.0404  H     
41   H         8.7498   -8.4691    3.6617  H     
42   H         7.0524   -8.0767    3.7963  H     
43   H         8.4726   -6.7992    5.8917  H     
44   H        10.4662   -6.8946    4.6324  H     
45   H         9.9053   -5.2413    4.8391  H     
46   H         9.6400   -6.0661    3.2893  H     
47   H         7.0308   -5.5669    3.6473  H     
48   H         7.5521   -4.7626    5.1440  H     
49   H         6.3639   -6.0544    5.2234  H     
@<TRIPOS>BOND
     1    1    3 1
     2    1    4 2
     3    1    5 1
     4    2    5 1
     5    2    6 2
     6    2    7 1
     7    3    7 1
     8    3    8 2
     9    8    9 1
    10    9   10 2
    11    9   13 1
    12   10   11 1
    13   11   12 2
    14   12   13 1
    15   12   14 1
    16   14   17 1
    17   14   18 2
    18   15   16 1
    19   15   19 2
    20   15   20 1
    21   16   17 2
    22   18   19 1
    23   20   21 2
    24   20   22 2
    25   20   23 1
    26   23   24 1
    27   24   25 1
    28   25   26 1
    29   26   27 1
    30   26   28 1
    31    5   29 1
    32    6   30 1
    33    8   31 1
    34   10   32 1
    35   11   33 1
    36   16   34 1
    37   17   35 1
    38   18   36 1
    39   19   37 1
    40   23   38 1
    41   24   39 1
    42   24   40 1
    43   25   41 1
    44   25   42 1
    45   26   43 1
    46   27   44 1
    47   27   45 1
    48   27   46 1
    49   28   47 1
    50   28   48 1
    51   28   49 1
@<TRIPOS>PROPERTY_DATA
  Total_Score	| 8.8034
  Crash		| -1.7215
  Polar		| 3.9276
  FragIndex	| 1
  FragRMSD	| 0.225

