@<TRIPOS>MOLECULE
BindingDB_17142
 31 33 0 0 0
SMALL
NO_CHARGES


@<TRIPOS>ATOM
1    C        15.3540   -7.7348   13.9772  C     
2    C        14.9522   -6.0641   12.5911  C     
3    C        14.1881   -8.1675   13.4353  C     
4    O        16.0161   -8.3215   14.8218  O     
5    N        15.7763   -6.5896   13.5009  N     
6    N        15.1612   -4.8939   11.9733  N     
7    S        13.5638   -7.0401   12.2984  S     
8    C        13.6006   -9.3449   13.7476  C     
9    C        12.4969   -9.9254   13.1345  C     
10   C        11.9935  -11.1916   13.4210  C     
11   C        10.9573  -11.4380   12.5361  C     
12   C        10.8307  -10.3283   11.6937  C     
13   O        11.7723   -9.4320   12.0944  O     
14   C         9.8893  -10.1381   10.6249  C     
15   C         7.7880   -9.7661    8.7370  C     
16   C         7.6023  -10.6117    9.8315  C     
17   C         8.6282  -10.7701   10.7746  C     
18   C        10.1183   -9.3407    9.4481  C     
19   C         9.0300   -9.1486    8.5454  C     
20   N        11.3273   -8.8036    9.0799  N     
21   O        11.4666   -8.0737    8.1299  O     
22   O        12.4669   -9.1382    9.6066  O     
23   H        16.5942   -6.1526   13.7826  H     
24   H        14.5221   -4.5512   11.3240  H     
25   H        14.0271   -9.8922   14.4652  H     
26   H        12.3270  -11.8337   14.1394  H     
27   H        10.4228  -12.3059   12.4955  H     
28   H         7.0277   -9.6214    8.0647  H     
29   H         6.7177  -11.1004    9.9502  H     
30   H         8.4202  -11.3492   11.5894  H     
31   H         9.1426   -8.6027    7.6885  H     
@<TRIPOS>BOND
     1    1    3 1
     2    1    4 2
     3    1    5 1
     4    2    5 1
     5    2    6 2
     6    2    7 1
     7    3    7 1
     8    3    8 2
     9    8    9 1
    10    9   10 2
    11    9   13 1
    12   10   11 1
    13   11   12 2
    14   12   13 1
    15   12   14 1
    16   14   17 1
    17   14   18 2
    18   15   16 1
    19   15   19 2
    20   16   17 2
    21   18   19 1
    22   18   20 am
    23   20   21 2
    24   20   22 1
    25    5   23 1
    26    6   24 1
    27    8   25 1
    28   10   26 1
    29   11   27 1
    30   15   28 1
    31   16   29 1
    32   17   30 1
    33   19   31 1
@<TRIPOS>PROPERTY_DATA
  Total_Score	| 4.2676
  Crash		| -1.1016
  Polar		| 1.1422
  FragIndex	| 1
  FragRMSD	| 0.273

