@<TRIPOS>MOLECULE
BindingDB_17143
 31 33 0 0 0
SMALL
NO_CHARGES


@<TRIPOS>ATOM
1    C        15.0145   -7.5554   13.8900  C     
2    C        14.8750   -6.3382   12.0457  C     
3    C        14.0255   -8.2314   13.2403  C     
4    O        15.4686   -7.8329   15.0009  O     
5    N        15.4713   -6.5086   13.2431  N     
6    N        15.1907   -5.3526   11.1766  N     
7    S        13.6213   -7.4930   11.7365  S     
8    C        13.4851   -9.3877   13.6592  C     
9    C        12.4194  -10.0722   13.0906  C     
10   C        12.0109  -11.3475   13.4854  C     
11   C        10.9121  -11.6821   12.7181  C     
12   C        10.6324  -10.5953   11.8749  C     
13   O        11.5600   -9.6368   12.1253  O     
14   C         9.5805  -10.5111   10.9215  C     
15   C         7.3597  -10.2916    9.1155  C     
16   C         8.0544   -9.1436    9.5688  C     
17   C         9.1589   -9.2531   10.4387  C     
18   C         8.9055  -11.6584   10.4389  C     
19   C         7.8233  -11.5522    9.5519  C     
20   C         6.2143  -10.1913    8.2833  C     
21   O         5.5694   -9.0161    8.0887  O     
22   O         5.6943  -11.2671    7.6470  O     
23   H        16.1898   -5.9263   13.5737  H     
24   H        15.8898   -4.7177   11.4077  H     
25   H        13.8858   -9.7946   14.4919  H     
26   H        12.4351  -11.9249   14.2188  H     
27   H        10.3745  -12.5429   12.8045  H     
28   H         7.7591   -8.2144    9.2555  H     
29   H         9.6407   -8.3934   10.7278  H     
30   H         9.2111  -12.5986   10.7304  H     
31   H         7.3599  -12.4174    9.2484  H     
@<TRIPOS>BOND
     1    1    3 1
     2    1    4 2
     3    1    5 1
     4    2    5 1
     5    2    6 2
     6    2    7 1
     7    3    7 1
     8    3    8 2
     9    8    9 1
    10    9   10 2
    11    9   13 1
    12   10   11 1
    13   11   12 2
    14   12   13 1
    15   12   14 1
    16   14   17 1
    17   14   18 2
    18   15   16 1
    19   15   19 2
    20   15   20 1
    21   16   17 2
    22   18   19 1
    23   20   21 2
    24   20   22 1
    25    5   23 1
    26    6   24 1
    27    8   25 1
    28   10   26 1
    29   11   27 1
    30   16   28 1
    31   17   29 1
    32   18   30 1
    33   19   31 1
@<TRIPOS>PROPERTY_DATA
  Total_Score	| 5.6384
  Crash		| -1.3281
  Polar		| 2.2276
  FragIndex	| 1
  FragRMSD	| 0.523

