@<TRIPOS>MOLECULE
BindingDB_17141
 34 36 0 0 0
SMALL
NO_CHARGES


@<TRIPOS>ATOM
1    C        15.4051   -7.7290   13.9152  C     
2    C        14.9209   -6.0814   12.5316  C     
3    C        14.2665   -8.2153   13.3687  C     
4    O        16.0861   -8.2815   14.7689  O     
5    N        15.7674   -6.5621   13.4451  N     
6    N        15.0743   -4.8957   11.9280  N     
7    S        13.6023   -7.1414   12.2029  S     
8    C        13.7374   -9.4152   13.6925  C     
9    C        12.6022   -9.9989   13.1560  C     
10   C        12.0393  -11.1876   13.6077  C     
11   C        10.9246  -11.4441   12.8369  C     
12   C        10.8021  -10.4152   11.9082  C     
13   O        11.8334   -9.5546   12.1241  O     
14   C         9.8049  -10.2523   10.9113  C     
15   C         7.8504   -9.8869    8.8604  C     
16   C         7.7481  -10.9696    9.7579  C     
17   C         8.7188  -11.1598   10.7655  C     
18   C         9.8781   -9.1594   10.0197  C     
19   C         8.9156   -8.9752    9.0099  C     
20   S         6.6344   -9.6672    7.6335  S     
21   O         5.4633   -8.8273    8.3020  O     
22   O         7.2579   -8.8731    6.4075  O     
23   N         6.0322  -11.1132    7.0227  N     
24   H        16.5607   -6.0893   13.7338  H     
25   H        14.4291   -4.5973   11.2677  H     
26   H        14.2137   -9.9541   14.3819  H     
27   H        12.3799  -11.7685   14.3770  H     
28   H        10.3112  -12.2506   12.9443  H     
29   H         6.9815  -11.6327    9.6905  H     
30   H         8.6211  -11.9663   11.3814  H     
31   H        10.6487   -8.4831   10.0875  H     
32   H         9.0049   -8.1747    8.3811  H     
33   H         5.5823  -11.1273    6.1678  H     
34   H         6.1593  -11.9347    7.5142  H     
@<TRIPOS>BOND
     1    1    3 1
     2    1    4 2
     3    1    5 1
     4    2    5 1
     5    2    6 2
     6    2    7 1
     7    3    7 1
     8    3    8 2
     9    8    9 1
    10    9   10 2
    11    9   13 1
    12   10   11 1
    13   11   12 2
    14   12   13 1
    15   12   14 1
    16   14   17 1
    17   14   18 2
    18   15   16 1
    19   15   19 2
    20   15   20 1
    21   16   17 2
    22   18   19 1
    23   20   21 2
    24   20   22 2
    25   20   23 am
    26    5   24 1
    27    6   25 1
    28    8   26 1
    29   10   27 1
    30   11   28 1
    31   16   29 1
    32   17   30 1
    33   18   31 1
    34   19   32 1
    35   23   33 1
    36   23   34 1
@<TRIPOS>PROPERTY_DATA
  Total_Score	| 6.0728
  Crash		| -1.0284
  Polar		| 1.7988
  FragIndex	| 1
  FragRMSD	| 0.811

