@<TRIPOS>MOLECULE
BindingDB_17150
 34 36 0 0 0
SMALL
NO_CHARGES


@<TRIPOS>ATOM
1    C        15.3176   -7.6671   13.7841  C     
2    C        14.7726   -6.0918   12.3364  C     
3    C        14.1985   -8.2237   13.2555  C     
4    O        15.9919   -8.1363   14.6920  O     
5    N        15.6264   -6.4990   13.2793  N     
6    N        14.8272   -4.8997   11.7264  N     
7    S        13.5246   -7.2373   12.0182  S     
8    C        13.6842   -9.4061   13.6579  C     
9    C        12.5518  -10.0384   13.1638  C     
10   C        12.0333  -11.2437   13.6303  C     
11   C        10.9130  -11.5385   12.8720  C     
12   C        10.7498  -10.5125   11.9420  C     
13   O        11.7541   -9.6227   12.1483  O     
14   C         9.7653  -10.3737   10.9267  C     
15   C         7.8475  -10.0548    8.8287  C     
16   C         8.7598   -9.0264    9.1449  C     
17   C         9.7028   -9.1808   10.1739  C     
18   C         8.8527  -11.4072   10.6069  C     
19   C         7.9044  -11.2615    9.5715  C     
20   S         6.6764   -9.7313    7.5677  S     
21   O         5.8499  -10.9564    6.9807  O     
22   O         5.5971   -8.7970    8.2673  O     
23   N         7.2584   -8.7984    6.2961  N     
24   Cl        6.8860  -12.5856    9.2741  Cl    
25   H        16.3809   -5.9674   13.5797  H     
26   H        15.5263   -4.2665   11.9450  H     
27   H        14.1587   -9.8867   14.3896  H     
28   H        12.4054  -11.8150   14.3903  H     
29   H        10.3238  -12.3616   12.9914  H     
30   H         8.7485   -8.1455    8.6295  H     
31   H        10.3403   -8.4040   10.3684  H     
32   H         8.8830  -12.2901   11.1221  H     
33   H         6.8761   -7.9236    6.1190  H     
34   H         7.9620   -9.1440    5.7250  H     
@<TRIPOS>BOND
     1    1    3 1
     2    1    4 2
     3    1    5 1
     4    2    5 1
     5    2    6 2
     6    2    7 1
     7    3    7 1
     8    3    8 2
     9    8    9 1
    10    9   10 2
    11    9   13 1
    12   10   11 1
    13   11   12 2
    14   12   13 1
    15   12   14 1
    16   14   17 1
    17   14   18 2
    18   15   16 1
    19   15   19 2
    20   15   20 1
    21   16   17 2
    22   18   19 1
    23   19   24 1
    24   20   21 2
    25   20   22 2
    26   20   23 am
    27    5   25 1
    28    6   26 1
    29    8   27 1
    30   10   28 1
    31   11   29 1
    32   16   30 1
    33   17   31 1
    34   18   32 1
    35   23   33 1
    36   23   34 1
@<TRIPOS>PROPERTY_DATA
  Total_Score	| 5.4089
  Crash		| -1.7173
  Polar		| 2.0160
  FragIndex	| 1
  FragRMSD	| 0.201

