@<TRIPOS>MOLECULE
BindingDB_17147
 45 48 0 0 0
SMALL
NO_CHARGES


@<TRIPOS>ATOM
1    C        15.4217   -7.7560   13.8965  C     
2    C        14.9306   -6.1257   12.4974  C     
3    C        14.3079   -8.2770   13.3253  C     
4    O        16.0895   -8.2866   14.7769  O     
5    N        15.7597   -6.5798   13.4400  N     
6    N        15.0649   -4.9322   11.9017  N     
7    S        13.6588   -7.2289   12.1272  S     
8    C        13.7612   -9.4597   13.6842  C     
9    C        12.6261  -10.0551   13.1509  C     
10   C        12.0467  -11.2348   13.6159  C     
11   C        10.9274  -11.4832   12.8405  C     
12   C        10.8312  -10.4593   11.8988  C     
13   O        11.8741   -9.6171   12.1113  O     
14   C         9.8658  -10.2780   10.8717  C     
15   C         7.9842   -9.8950    8.7631  C     
16   C         9.1388   -9.0961    8.8444  C     
17   C        10.0680   -9.2865    9.8833  C     
18   C         8.6966  -11.0714   10.7827  C     
19   C         7.7640  -10.8753    9.7483  C     
20   O         6.0009  -10.9504    7.1562  O     
21   O         5.7503   -8.6699    8.1808  O     
22   S         6.8128   -9.6328    7.4989  S     
23   C         7.7817   -7.1027    4.5062  C     
24   C         6.8084   -7.8738    5.4320  C     
25   C         8.3156   -9.8281    5.2971  C     
26   C         9.2419   -9.0080    4.3654  C     
27   N         7.4751   -8.9657    6.0885  N     
28   O         8.4918   -8.0101    3.6397  O     
29   H        16.5248   -6.0793   13.7600  H     
30   H        14.4313   -4.6568   11.2223  H     
31   H        14.2024   -9.9622   14.4224  H     
32   H        12.3786  -11.8117   14.3926  H     
33   H        10.3038  -12.2825   12.9545  H     
34   H         9.3170   -8.3674    8.1479  H     
35   H        10.9012   -8.6940    9.9012  H     
36   H         8.4998  -11.7985   11.4736  H     
37   H         6.9211  -11.4555    9.7194  H     
38   H         7.2186   -6.4083    3.8788  H     
39   H         8.4917   -6.5180    5.0997  H     
40   H         6.3912   -7.1705    6.1555  H     
41   H         5.9913   -8.2762    4.8295  H     
42   H         7.6795  -10.4781    4.6881  H     
43   H         8.9488  -10.4619    5.9270  H     
44   H        10.0359   -8.5289    4.9517  H     
45   H         9.7150   -9.6780    3.6430  H     
@<TRIPOS>BOND
     1    1    3 1
     2    1    4 2
     3    1    5 1
     4    2    5 1
     5    2    6 2
     6    2    7 1
     7    3    7 1
     8    3    8 2
     9    8    9 1
    10    9   10 2
    11    9   13 1
    12   10   11 1
    13   11   12 2
    14   12   13 1
    15   12   14 1
    16   14   17 1
    17   14   18 2
    18   15   16 1
    19   15   19 2
    20   15   22 1
    21   16   17 2
    22   18   19 1
    23   20   22 2
    24   21   22 2
    25   22   27 1
    26   23   24 1
    27   23   28 1
    28   24   27 1
    29   25   26 1
    30   25   27 1
    31   26   28 1
    32    5   29 1
    33    6   30 1
    34    8   31 1
    35   10   32 1
    36   11   33 1
    37   16   34 1
    38   17   35 1
    39   18   36 1
    40   19   37 1
    41   23   38 1
    42   23   39 1
    43   24   40 1
    44   24   41 1
    45   25   42 1
    46   25   43 1
    47   26   44 1
    48   26   45 1
@<TRIPOS>PROPERTY_DATA
  Total_Score	| 6.4536
  Crash		| -1.2646
  Polar		| 1.9461
  FragIndex	| 1
  FragRMSD	| 0.195

