@<TRIPOS>MOLECULE
BindingDB_11425
 43 45 0 0 0
SMALL
NO_CHARGES


@<TRIPOS>ATOM
1    C        -3.2149    3.5710   14.6250  C     
2    C        -3.1876    4.6862   13.8488  C     
3    N        -4.3318    5.3777   13.5381  N     
4    S        -5.7099    5.2883   14.5212  S     
5    O        -5.7213    6.3684   15.6862  O     
6    O        -7.0787    5.2578   13.7137  O     
7    C        -4.3509    3.0499   15.2337  C     
8    C        -5.5591    3.7466   15.2624  C     
9    C        -4.4191    1.8116   15.9076  C     
10   C        -5.6713    1.5145   16.4589  C     
11   S        -6.7179    2.8388   16.1422  S     
12   N        -5.3970   -1.2879   16.7101  N     
13   S        -6.1231    0.0921   17.3355  S     
14   O        -5.6339    0.3265   18.8288  O     
15   O        -7.7061   -0.0453   17.2890  O     
16   C        -1.8808    5.1636   13.3510  C     
17   C        -1.9778    7.1674   14.9053  C     
18   N        -1.5936    6.6006   13.5928  N     
19   C        -4.4914    6.1104   12.3928  C     
20   C        -4.9287    5.4992   11.1948  C     
21   C        -5.1778    6.2766   10.0425  C     
22   C        -4.9603    7.6655   10.0763  C     
23   C        -4.5229    8.2804   11.2613  C     
24   C        -4.3041    7.5080   12.4151  C     
25   O        -5.6558    5.7311    8.8968  O     
26   C        -1.8993    8.5285   14.8603  C     
27   C        -1.8262    9.7196   14.8166  C     
28   H        -2.3700    3.0702   14.7823  H     
29   H        -3.6230    1.1744   15.9844  H     
30   H        -5.5141   -2.1470   17.1545  H     
31   H        -4.7849   -1.2130   15.9591  H     
32   H        -1.0365    4.6015   13.7633  H     
33   H        -1.8507    5.0040   12.2717  H     
34   H        -3.0005    6.8910   15.1637  H     
35   H        -1.3046    6.8121   15.6819  H     
36   H        -0.5842    6.7278   13.4835  H     
37   H        -2.0510    7.1467   12.8638  H     
38   H        -5.1034    4.4921   11.1726  H     
39   H        -5.1381    8.2356    9.2458  H     
40   H        -4.3794    9.2920   11.2905  H     
41   H        -4.0025    7.9639   13.2767  H     
42   H        -5.5967    4.7559    8.9846  H     
43   H        -1.7669   10.6381   14.7813  H     
@<TRIPOS>BOND
     1    1    2 2
     2    1    7 1
     3    2    3 1
     4    2   16 1
     5    3    4 1
     6    3   19 1
     7    4    5 2
     8    4    6 2
     9    4    8 1
    10    7    8 2
    11    7    9 1
    12    8   11 1
    13    9   10 2
    14   10   11 1
    15   10   13 1
    16   12   13 am
    17   13   14 2
    18   13   15 2
    19   16   18 1
    20   17   18 1
    21   17   26 1
    22   19   20 2
    23   19   24 1
    24   20   21 1
    25   21   22 2
    26   21   25 1
    27   22   23 1
    28   23   24 2
    29   26   27 3
    30    1   28 1
    31    9   29 1
    32   12   30 1
    33   12   31 1
    34   16   32 1
    35   16   33 1
    36   17   34 1
    37   17   35 1
    38   18   36 1
    39   18   37 1
    40   20   38 1
    41   22   39 1
    42   23   40 1
    43   24   41 1
    44   25   42 1
    45   27   43 1
@<TRIPOS>PROPERTY_DATA
  Total_Score	| 2.8853
  Crash		| -3.4304
  Polar		| 1.2754
  FragIndex	| 1
  FragRMSD	| 1.256

