@<TRIPOS>MOLECULE
BindingDB_50339802
 69 73 0 0 0
SMALL
NO_CHARGES


@<TRIPOS>ATOM
1    C        26.5445   10.3722  -21.2313  C     
2    C        25.8529    9.9186  -20.0872  C     
3    C        26.6467    8.0896  -22.1072  C     
4    C        26.9359    9.4646  -22.2449  C     
5    C        25.9674    7.6571  -20.9584  C     
6    C        25.5615    8.5455  -19.9613  C     
7    N        24.8846    7.8245  -19.0427  N     
8    C        24.9066    6.5396  -19.4680  C     
9    N        25.5562    6.4267  -20.6375  N     
10   C        24.2601    8.2559  -17.9019  C     
11   C        24.9348    9.0517  -16.9555  C     
12   C        24.3298    9.4332  -15.7379  C     
13   C        23.0170    8.9741  -15.4160  C     
14   C        22.3365    8.2020  -16.3969  C     
15   C        22.9414    7.8522  -17.6131  C     
16   C        22.3778    9.2130  -14.1887  C     
17   O        21.2252    8.8502  -13.9961  O     
18   N        22.9280    9.7686  -13.1316  N     
19   O        25.1224   10.1474  -14.8701  O     
20   C        24.9539   11.5882  -14.8542  C     
21   C        25.2454   12.2876  -16.1602  C     
22   C        25.7413   12.2226  -13.6768  C     
23   C        24.1969   13.1086  -16.6598  C     
24   C        24.3166   13.8252  -17.8566  C     
25   C        25.4909   13.7292  -18.6050  C     
26   C        26.5510   12.9442  -18.1311  C     
27   C        26.4709   12.2154  -16.9119  C     
28   C        27.7166   11.4456  -16.5679  C     
29   F        28.0495   10.5857  -17.5890  F     
30   F        28.7676   12.3175  -16.4114  F     
31   F        27.7073   10.6659  -15.4446  F     
32   O        27.4723    9.9473  -23.4079  O     
33   C        28.3993    9.0925  -24.1180  C     
34   C        28.6617    9.7416  -25.5047  C     
35   C        29.4800   11.0566  -25.3737  C     
36   N        30.7513   10.8958  -24.5966  N     
37   C        30.5204   10.2488  -23.2646  C     
38   C        29.7435    8.9079  -23.3595  C     
39   C        31.8620   10.2802  -25.3823  C     
40   H        26.7511   11.3705  -21.3316  H     
41   H        25.5496   10.5832  -19.3756  H     
42   H        26.8959    7.4225  -22.8406  H     
43   H        24.4838    5.7452  -18.9819  H     
44   H        25.9030    9.3158  -17.1348  H     
45   H        21.3880    7.8527  -16.2309  H     
46   H        22.4183    7.2805  -18.2821  H     
47   H        22.3977    9.8536  -12.3228  H     
48   H        23.8433   10.0801  -13.1365  H     
49   H        23.9080   11.7491  -14.5634  H     
50   H        25.5536   11.6561  -12.7642  H     
51   H        25.4054   13.2488  -13.5141  H     
52   H        26.8141   12.2453  -13.8490  H     
53   H        23.3171   13.2101  -16.1481  H     
54   H        23.5451   14.4115  -18.1818  H     
55   H        25.5806   14.2397  -19.4858  H     
56   H        27.4001   12.9089  -18.7010  H     
57   H        27.9491    8.1085  -24.2904  H     
58   H        29.2051    9.0373  -26.1401  H     
59   H        27.7073    9.9539  -25.9940  H     
60   H        29.6867   11.4518  -26.3720  H     
61   H        28.8629   11.8040  -24.8663  H     
62   H        31.0702   11.8453  -24.3890  H     
63   H        31.4709   10.0785  -22.7518  H     
64   H        29.9462   10.9421  -22.6425  H     
65   H        29.5450    8.5250  -22.3566  H     
66   H        30.3563    8.1637  -23.8754  H     
67   H        31.6360    9.2532  -25.6706  H     
68   H        32.7844   10.2814  -24.7985  H     
69   H        32.0490   10.8609  -26.2865  H     
@<TRIPOS>BOND
     1    1    2 2
     2    1    4 1
     3    2    6 1
     4    3    4 2
     5    3    5 1
     6    4   32 1
     7    5    6 2
     8    5    9 1
     9    6    7 1
    10    7    8 1
    11    7   10 1
    12    8    9 2
    13   10   11 2
    14   10   15 1
    15   11   12 1
    16   12   13 2
    17   12   19 1
    18   13   14 1
    19   13   16 1
    20   14   15 2
    21   16   17 2
    22   16   18 am
    23   20   19 1
    24   20   21 1
    25   20   22 1
    26   21   23 2
    27   21   27 1
    28   23   24 1
    29   24   25 2
    30   25   26 1
    31   26   27 2
    32   27   28 1
    33   28   29 1
    34   28   30 1
    35   28   31 1
    36   32   33 1
    37   33   34 1
    38   33   38 1
    39   34   35 1
    40   35   36 1
    41   36   37 1
    42   36   39 1
    43   37   38 1
    44    1   40 1
    45    2   41 1
    46    3   42 1
    47    8   43 1
    48   11   44 1
    49   14   45 1
    50   15   46 1
    51   18   47 1
    52   18   48 1
    53   20   49 1
    54   22   50 1
    55   22   51 1
    56   22   52 1
    57   23   53 1
    58   24   54 1
    59   25   55 1
    60   26   56 1
    61   33   57 1
    62   34   58 1
    63   34   59 1
    64   35   60 1
    65   35   61 1
    66   36   62 1
    67   37   63 1
    68   37   64 1
    69   38   65 1
    70   38   66 1
    71   39   67 1
    72   39   68 1
    73   39   69 1
@<TRIPOS>PROPERTY_DATA
  Total_Score	| 10.1643
  Crash		| -1.5034
  Polar		| 3.9313
  FragIndex	| 1
  FragRMSD	| 0.658

