@<TRIPOS>MOLECULE
BindingDB_50355500
 68 72 0 0 0
SMALL
NO_CHARGES


@<TRIPOS>ATOM
1    C        25.8767    7.4826  -20.8855  C     
2    C        26.4897    7.8402  -22.0947  C     
3    C        26.7569    9.2008  -22.3375  C     
4    C        26.4170   10.2020  -21.3883  C     
5    C        25.8168    9.7944  -20.1669  C     
6    C        25.5530    8.4320  -19.9186  C     
7    C        26.6035   11.6662  -21.6150  C     
8    N        27.4346   12.1095  -22.7933  N     
9    C        28.9010   11.7975  -22.7032  C     
10   C        29.6923   12.7764  -21.7931  C     
11   N        29.4321   14.1987  -22.1720  N     
12   C        27.9719   14.5169  -22.2099  C     
13   C        27.2397   13.5471  -23.1732  C     
14   C        30.2024   15.1609  -21.3335  C     
15   N        25.4805    6.2785  -20.4575  N     
16   C        24.9268    6.4687  -19.2483  C     
17   N        24.9672    7.7725  -18.8947  N     
18   C        24.5012    8.2742  -17.7141  C     
19   C        25.0863    9.2674  -16.9231  C     
20   C        24.4057    9.6004  -15.7311  C     
21   C        23.2387    8.8413  -15.5180  C     
22   S        23.0920    7.7752  -16.8639  S     
23   C        22.3490    8.8684  -14.4552  C     
24   O        21.3002    8.2411  -14.5097  O     
25   N        22.5911    9.5165  -13.3354  N     
26   O        24.7847   10.5616  -14.8203  O     
27   C        25.9428   11.4124  -14.9897  C     
28   C        25.8662   12.3251  -16.1850  C     
29   C        26.0752   12.2341  -13.6846  C     
30   C        24.5934   12.8741  -16.4945  C     
31   C        24.4019   13.7038  -17.6092  C     
32   C        25.4903   14.0278  -18.4258  C     
33   C        26.7645   13.5248  -18.1238  C     
34   C        26.9886   12.6659  -17.0137  C     
35   C        28.3837   12.1685  -16.7602  C     
36   F        29.3556   12.6865  -17.5844  F     
37   F        28.7938   12.4832  -15.4886  F     
38   F        28.4571   10.8096  -16.9366  F     
39   H        26.7146    7.1277  -22.7927  H     
40   H        27.1919    9.4411  -23.2278  H     
41   H        25.5300   10.4946  -19.4809  H     
42   H        25.5900   12.0660  -21.7350  H     
43   H        27.0079   12.0993  -20.6958  H     
44   H        27.0843   11.5739  -23.5899  H     
45   H        29.0662   10.7863  -22.3419  H     
46   H        29.3238   11.8462  -23.7114  H     
47   H        29.4260   12.6040  -20.7433  H     
48   H        30.7581   12.5574  -21.9059  H     
49   H        29.7747   14.3128  -23.1323  H     
50   H        27.5326   14.4446  -21.2081  H     
51   H        27.8178   15.5350  -22.5765  H     
52   H        27.6263   13.7002  -24.1871  H     
53   H        26.1793   13.8045  -23.2099  H     
54   H        29.9092   15.0993  -20.2800  H     
55   H        30.0361   16.1803  -21.6863  H     
56   H        31.2726   14.9571  -21.4119  H     
57   H        24.5450    5.7094  -18.6822  H     
58   H        25.9705    9.6951  -17.1828  H     
59   H        21.9503    9.4844  -12.6082  H     
60   H        23.4193   10.0034  -13.2142  H     
61   H        26.8110   10.7545  -15.0383  H     
62   H        25.1829   12.8404  -13.5162  H     
63   H        26.9415   12.8959  -13.7262  H     
64   H        26.1999   11.5600  -12.8356  H     
65   H        23.7807   12.6658  -15.9094  H     
66   H        23.4731   14.0748  -17.8255  H     
67   H        25.3583   14.6391  -19.2337  H     
68   H        27.5312   13.8007  -18.7394  H     
@<TRIPOS>BOND
     1    1    2 1
     2    1    6 2
     3    1   15 1
     4    2    3 2
     5    3    4 1
     6    4    5 2
     7    4    7 1
     8    5    6 1
     9    6   17 1
    10    7    8 1
    11    8    9 1
    12    8   13 1
    13    9   10 1
    14   10   11 1
    15   11   12 1
    16   11   14 1
    17   12   13 1
    18   15   16 2
    19   16   17 1
    20   17   18 1
    21   18   19 2
    22   18   22 1
    23   19   20 1
    24   20   21 2
    25   20   26 1
    26   21   22 1
    27   21   23 1
    28   23   24 2
    29   23   25 am
    30   26   27 1
    31   27   28 1
    32   27   29 1
    33   28   30 1
    34   28   34 2
    35   30   31 2
    36   31   32 1
    37   32   33 2
    38   33   34 1
    39   34   35 1
    40   35   36 1
    41   35   37 1
    42   35   38 1
    43    2   39 1
    44    3   40 1
    45    5   41 1
    46    7   42 1
    47    7   43 1
    48    8   44 1
    49    9   45 1
    50    9   46 1
    51   10   47 1
    52   10   48 1
    53   11   49 1
    54   12   50 1
    55   12   51 1
    56   13   52 1
    57   13   53 1
    58   14   54 1
    59   14   55 1
    60   14   56 1
    61   16   57 1
    62   19   58 1
    63   25   59 1
    64   25   60 1
    65   27   61 1
    66   29   62 1
    67   29   63 1
    68   29   64 1
    69   30   65 1
    70   31   66 1
    71   32   67 1
    72   33   68 1
@<TRIPOS>PROPERTY_DATA
  Total_Score	| 8.7809
  Crash		| -0.6816
  Polar		| 2.8755
  FragIndex	| 1
  FragRMSD	| 0.071

