@<TRIPOS>MOLECULE
BindingDB_50339801
 69 73 0 0 0
SMALL
NO_CHARGES


@<TRIPOS>ATOM
1    C        26.3004   11.9372  -13.8169  C     
2    C        25.9873   11.1842  -15.1342  C     
3    O        24.8073   10.3902  -14.8744  O     
4    C        24.2216    9.4755  -15.7281  C     
5    C        24.8306    9.0688  -16.9351  C     
6    C        24.1695    8.2388  -17.8708  C     
7    N        25.5424    6.4892  -20.6382  N     
8    C        24.7416    6.5970  -19.5655  C     
9    N        24.7803    7.8495  -19.0438  N     
10   C        25.6211    8.5614  -19.8304  C     
11   C        26.0635    9.9016  -19.8030  C     
12   C        27.0688   10.3078  -20.7002  C     
13   C        27.5865    9.4038  -21.6665  C     
14   O        28.6555    9.6731  -22.4840  O     
15   C        28.8294   10.9665  -23.1074  C     
16   C        29.9907   10.8136  -24.1284  C     
17   C        29.5664    9.9609  -25.3580  C     
18   N        28.3152   10.4500  -26.0239  N     
19   C        28.5233   11.6358  -26.9040  C     
20   C        27.1885   10.6175  -25.0519  C     
21   C        27.5609   11.5046  -23.8340  C     
22   C        27.0675    8.0953  -21.7397  C     
23   C        26.1010    7.6938  -20.8098  C     
24   C        22.8840    7.7532  -17.5285  C     
25   C        22.2984    8.0845  -16.3012  C     
26   C        22.9404    8.9502  -15.3746  C     
27   C        22.2818    9.2412  -14.1685  C     
28   N        22.8073    9.8753  -13.1454  N     
29   O        21.1399    8.8574  -13.9575  O     
30   C        25.8659   12.1481  -16.2821  C     
31   C        24.5802   12.6882  -16.5465  C     
32   C        24.3601   13.5725  -17.6133  C     
33   C        25.4313   13.9623  -18.4245  C     
34   C        26.7200   13.4782  -18.1574  C     
35   C        26.9757   12.5794  -17.0872  C     
36   C        28.3869   12.1209  -16.8545  C     
37   F        29.3433   12.7284  -17.6379  F     
38   F        28.7688   12.3613  -15.5586  F     
39   F        28.5096   10.7758  -17.1081  F     
40   H        25.4914   12.6362  -13.5556  H     
41   H        27.2394   12.4998  -13.9039  H     
42   H        26.4006   11.2229  -12.9946  H     
43   H        26.8010   10.4778  -15.2937  H     
44   H        25.7791    9.3771  -17.1454  H     
45   H        24.2299    5.8000  -19.1750  H     
46   H        25.6787   10.5497  -19.1116  H     
47   H        27.4555   11.2544  -20.6346  H     
48   H        29.1320   11.6836  -22.3437  H     
49   H        30.3047   11.8019  -24.4691  H     
50   H        30.8470   10.3437  -23.6419  H     
51   H        30.3889    9.9294  -26.0738  H     
52   H        29.4019    8.9302  -25.0313  H     
53   H        28.0101    9.7049  -26.6581  H     
54   H        28.8637   12.5092  -26.3436  H     
55   H        27.5987   11.8932  -27.4193  H     
56   H        29.2696   11.4029  -27.6661  H     
57   H        26.3060   11.0376  -25.5492  H     
58   H        26.8940    9.6275  -24.6905  H     
59   H        26.7262   11.5442  -23.1337  H     
60   H        27.7473   12.5268  -24.1749  H     
61   H        27.4334    7.4235  -22.4197  H     
62   H        22.3695    7.1416  -18.1724  H     
63   H        21.3825    7.6711  -16.0851  H     
64   H        22.2810    9.9930  -12.3401  H     
65   H        23.7219   10.1991  -13.1661  H     
66   H        23.7801   12.4328  -15.9597  H     
67   H        23.4235   13.9454  -17.7961  H     
68   H        25.2775   14.6104  -19.1997  H     
69   H        27.4721   13.8034  -18.7649  H     
@<TRIPOS>BOND
     1    2    1 1
     2    2    3 1
     3    2   30 1
     4    3    4 1
     5    4    5 1
     6    4   26 2
     7    5    6 2
     8    6    9 1
     9    6   24 1
    10    7    8 2
    11    7   23 1
    12    8    9 1
    13    9   10 1
    14   10   11 1
    15   10   23 2
    16   11   12 2
    17   12   13 1
    18   13   14 1
    19   13   22 2
    20   14   15 1
    21   15   16 1
    22   15   21 1
    23   16   17 1
    24   17   18 1
    25   18   19 1
    26   18   20 1
    27   20   21 1
    28   22   23 1
    29   24   25 2
    30   25   26 1
    31   26   27 1
    32   27   28 am
    33   27   29 2
    34   30   31 2
    35   30   35 1
    36   31   32 1
    37   32   33 2
    38   33   34 1
    39   34   35 2
    40   35   36 1
    41   36   37 1
    42   36   38 1
    43   36   39 1
    44    1   40 1
    45    1   41 1
    46    1   42 1
    47    2   43 1
    48    5   44 1
    49    8   45 1
    50   11   46 1
    51   12   47 1
    52   15   48 1
    53   16   49 1
    54   16   50 1
    55   17   51 1
    56   17   52 1
    57   18   53 1
    58   19   54 1
    59   19   55 1
    60   19   56 1
    61   20   57 1
    62   20   58 1
    63   21   59 1
    64   21   60 1
    65   22   61 1
    66   24   62 1
    67   25   63 1
    68   28   64 1
    69   28   65 1
    70   31   66 1
    71   32   67 1
    72   33   68 1
    73   34   69 1
@<TRIPOS>PROPERTY_DATA
  Total_Score	| 9.3574
  Crash		| -1.1793
  Polar		| 3.6213
  FragIndex	| 1
  FragRMSD	| 0.273

