@<TRIPOS>MOLECULE
BindingDB_50339796
 50 53 0 0 0
SMALL
NO_CHARGES


@<TRIPOS>ATOM
1    C        26.6754   13.3893  -22.9914  C     
2    N        27.2935   14.5958  -22.3516  N     
3    C        28.1168   14.2555  -21.1451  C     
4    C        29.1463   13.1178  -21.4052  C     
5    C        28.4637   11.8524  -22.0004  C     
6    C        27.6777   12.2402  -23.2854  C     
7    C        27.9972   15.4962  -23.3127  C     
8    O        27.6028   11.3121  -20.9696  O     
9    C        27.0375   10.0595  -20.9929  C     
10   C        26.1678    9.7760  -19.9149  C     
11   C        26.7170    7.7773  -21.8482  C     
12   C        27.3085    9.0628  -21.9609  C     
13   C        25.9081    7.5089  -20.7305  C     
14   C        25.6528    8.4728  -19.7541  C     
15   N        24.8872    7.8936  -18.8008  N     
16   C        24.6509    6.6268  -19.2310  C     
17   N        25.2654    6.3796  -20.3992  N     
18   C        24.4393    8.4200  -17.6157  C     
19   C        24.9114    9.5350  -16.9065  C     
20   C        24.2264    9.8300  -15.7061  C     
21   C        23.1963    8.9303  -15.3744  C     
22   S        23.1568    7.7818  -16.6566  S     
23   C        22.3537    8.8957  -14.2767  C     
24   N        22.4768    9.7112  -13.2532  N     
25   O        21.4844    8.0298  -14.1902  O     
26   O        24.4732   10.9636  -14.9808  O     
27   C        25.5861   10.8594  -14.0765  C     
28   H        25.9078   13.0132  -22.3121  H     
29   H        26.1680   13.6757  -23.9194  H     
30   H        26.4985   15.1465  -22.0088  H     
31   H        28.6446   15.1444  -20.7756  H     
32   H        27.4337   13.9427  -20.3482  H     
33   H        29.9117   13.4804  -22.0957  H     
34   H        29.6366   12.8546  -20.4595  H     
35   H        29.2339   11.1174  -22.2588  H     
36   H        27.1308   11.3701  -23.6671  H     
37   H        28.3788   12.5587  -24.0655  H     
38   H        28.8799   15.0225  -23.7524  H     
39   H        28.3122   16.4191  -22.8156  H     
40   H        27.3261   15.7851  -24.1264  H     
41   H        25.9152   10.5014  -19.2427  H     
42   H        26.8893    7.0620  -22.5623  H     
43   H        27.9354    9.2597  -22.7484  H     
44   H        24.0976    5.9213  -18.7391  H     
45   H        25.7101   10.1004  -17.2184  H     
46   H        21.8982    9.6171  -12.4855  H     
47   H        23.1397   10.4184  -13.2449  H     
48   H        25.4153   10.0769  -13.3345  H     
49   H        25.6779   11.8111  -13.5525  H     
50   H        26.5207   10.6679  -14.6072  H     
@<TRIPOS>BOND
     1    1    2 1
     2    1    6 1
     3    2    3 1
     4    2    7 1
     5    3    4 1
     6    4    5 1
     7    5    6 1
     8    5    8 1
     9    8    9 1
    10    9   10 2
    11    9   12 1
    12   10   14 1
    13   11   12 2
    14   11   13 1
    15   13   14 2
    16   13   17 1
    17   14   15 1
    18   15   16 1
    19   15   18 1
    20   16   17 2
    21   18   19 2
    22   18   22 1
    23   19   20 1
    24   20   21 2
    25   20   26 1
    26   21   22 1
    27   21   23 1
    28   23   24 am
    29   23   25 2
    30   26   27 1
    31    1   28 1
    32    1   29 1
    33    2   30 1
    34    3   31 1
    35    3   32 1
    36    4   33 1
    37    4   34 1
    38    5   35 1
    39    6   36 1
    40    6   37 1
    41    7   38 1
    42    7   39 1
    43    7   40 1
    44   10   41 1
    45   11   42 1
    46   12   43 1
    47   16   44 1
    48   19   45 1
    49   24   46 1
    50   24   47 1
    51   27   48 1
    52   27   49 1
    53   27   50 1
@<TRIPOS>PROPERTY_DATA
  Total_Score	| 8.4334
  Crash		| -0.7211
  Polar		| 4.7698
  FragIndex	| 1
  FragRMSD	| 1.077

