@<TRIPOS>MOLECULE
BindingDB_50339798
 46 49 0 0 0
SMALL
NO_CHARGES


@<TRIPOS>ATOM
1    C        26.5483   10.1194  -21.3396  C     
2    C        25.8433    9.7825  -20.1652  C     
3    C        26.5343    7.7785  -22.0485  C     
4    C        26.8962    9.1213  -22.2750  C     
5    C        25.8369    7.4619  -20.8711  C     
6    C        25.5047    8.4329  -19.9232  C     
7    N        24.8586    7.7983  -18.9191  N     
8    C        24.7826    6.4951  -19.2725  C     
9    N        25.3805    6.2766  -20.4550  N     
10   C        24.3992    8.3041  -17.7348  C     
11   C        24.9821    9.3069  -16.9544  C     
12   C        24.3384    9.6104  -15.7345  C     
13   C        23.1915    8.8304  -15.4945  C     
14   S        23.0281    7.7700  -16.8432  S     
15   C        22.3302    8.8381  -14.4096  C     
16   N        22.5693    9.5151  -13.3077  N     
17   O        21.3059    8.1716  -14.4311  O     
18   O        24.7273   10.5711  -14.8277  O     
19   C        25.9159   11.3765  -14.9958  C     
20   C        25.8487   12.3112  -16.1733  C     
21   C        26.1044   12.1748  -13.6827  C     
22   C        26.9787   12.6631  -16.9854  C     
23   C        26.7655   13.5444  -18.0801  C     
24   C        25.4944   14.0564  -18.3833  C     
25   C        24.3989   13.7213  -17.5804  C     
26   C        24.5803   12.8723  -16.4784  C     
27   C        28.3633   12.1239  -16.7573  C     
28   F        29.3538   12.7305  -17.4936  F     
29   F        28.7734   12.2643  -15.4549  F     
30   F        28.4074   10.7940  -17.0905  F     
31   H        26.7995   11.0940  -21.5193  H     
32   H        25.5706   10.5199  -19.5163  H     
33   H        26.7688    7.0509  -22.7268  H     
34   H        27.4023    9.3748  -23.1263  H     
35   H        24.3607    5.7486  -18.7154  H     
36   H        25.8424    9.7644  -17.2396  H     
37   H        21.9433    9.4770  -12.5688  H     
38   H        23.3781   10.0392  -13.2140  H     
39   H        26.7571   10.6859  -15.0733  H     
40   H        25.2443   12.8199  -13.4934  H     
41   H        27.0017   12.7943  -13.7284  H     
42   H        26.2085   11.4840  -12.8435  H     
43   H        27.5350   13.8148  -18.6957  H     
44   H        25.3677   14.6785  -19.1856  H     
45   H        23.4713   14.0947  -17.7984  H     
46   H        23.7601   12.6499  -15.9084  H     
@<TRIPOS>BOND
     1    1    2 2
     2    1    4 1
     3    2    6 1
     4    3    4 2
     5    3    5 1
     6    5    6 2
     7    5    9 1
     8    6    7 1
     9    7    8 1
    10    7   10 1
    11    8    9 2
    12   10   11 2
    13   10   14 1
    14   11   12 1
    15   12   13 2
    16   12   18 1
    17   13   14 1
    18   13   15 1
    19   15   16 am
    20   15   17 2
    21   18   19 1
    22   19   20 1
    23   19   21 1
    24   20   22 2
    25   20   26 1
    26   22   23 1
    27   22   27 1
    28   23   24 2
    29   24   25 1
    30   25   26 2
    31   27   28 1
    32   27   29 1
    33   27   30 1
    34    1   31 1
    35    2   32 1
    36    3   33 1
    37    4   34 1
    38    8   35 1
    39   11   36 1
    40   16   37 1
    41   16   38 1
    42   19   39 1
    43   21   40 1
    44   21   41 1
    45   21   42 1
    46   23   43 1
    47   24   44 1
    48   25   45 1
    49   26   46 1
@<TRIPOS>PROPERTY_DATA
  Total_Score	| 7.3330
  Crash		| -0.4714
  Polar		| 2.8788
  FragIndex	| 1
  FragRMSD	| 0.092

