@<TRIPOS>MOLECULE
BindingDB_50339794
 63 67 0 0 0
SMALL
NO_CHARGES


@<TRIPOS>ATOM
1    C        26.6267   13.3466  -23.0278  C     
2    N        27.2739   14.5557  -22.4306  N     
3    C        28.1521   14.2110  -21.2685  C     
4    C        29.1743   13.0849  -21.5729  C     
5    C        28.4752   11.8143  -22.1288  C     
6    C        27.6131   12.1996  -23.3669  C     
7    C        27.9431   15.4447  -23.4289  C     
8    O        27.6987   11.2413  -21.0461  O     
9    C        27.1229    9.9910  -21.0729  C     
10   C        26.2877    9.6902  -19.9709  C     
11   C        26.7257    7.7305  -21.9605  C     
12   C        27.3493    8.9904  -22.0558  C     
13   C        25.9167    7.4669  -20.8464  C     
14   C        25.6999    8.4125  -19.8413  C     
15   N        24.9009    7.8277  -18.9158  N     
16   C        24.6313    6.5845  -19.3804  C     
17   N        25.2476    6.3499  -20.5484  N     
18   C        24.4413    8.3073  -17.7149  C     
19   C        24.9975    9.3008  -16.8974  C     
20   C        24.3217    9.5733  -15.6868  C     
21   C        23.1916    8.7636  -15.4745  C     
22   S        23.0687    7.7315  -16.8486  S     
23   C        22.3227    8.7255  -14.3978  C     
24   N        22.5346    9.3817  -13.2799  N     
25   O        21.3196    8.0309  -14.4435  O     
26   O        24.6842   10.5129  -14.7442  O     
27   C        25.8119   11.4028  -14.9135  C     
28   C        25.7119   12.3401  -16.0767  C     
29   C        26.8828   12.7074  -16.7835  C     
30   C        26.8199   13.5946  -17.8736  C     
31   C        25.5834   14.1084  -18.2939  C     
32   C        24.4111   13.7634  -17.5974  C     
33   C        24.4782   12.9001  -16.4890  C     
34   C        25.9531   12.1998  -13.5960  C     
35   H        25.8910   12.9649  -22.3120  H     
36   H        26.0717   13.6225  -23.9309  H     
37   H        26.4913   15.1000  -22.0574  H     
38   H        28.6880   15.0959  -20.9146  H     
39   H        27.5099   13.8809  -20.4482  H     
40   H        29.9072   13.4458  -22.3018  H     
41   H        29.7170   12.8345  -20.6564  H     
42   H        29.2576   11.1121  -22.4309  H     
43   H        27.0506   11.3306  -23.7153  H     
44   H        28.2634   12.5177  -24.1869  H     
45   H        28.7994   14.9605  -23.8987  H     
46   H        28.2801   16.3658  -22.9484  H     
47   H        27.2373   15.7236  -24.2166  H     
48   H        26.1151   10.4090  -19.2731  H     
49   H        26.8559    7.0182  -22.6813  H     
50   H        27.9662    9.1724  -22.8476  H     
51   H        24.0562    5.8824  -18.9124  H     
52   H        25.8679    9.7695  -17.1321  H     
53   H        21.9074    9.3033  -12.5465  H     
54   H        23.3253    9.9255  -13.1653  H     
55   H        26.7154   10.7899  -15.0115  H     
56   H        27.7940   12.3373  -16.4988  H     
57   H        27.6756   13.8732  -18.3542  H     
58   H        25.5339   14.7400  -19.0958  H     
59   H        23.5122   14.1476  -17.8925  H     
60   H        23.6185   12.6900  -15.9792  H     
61   H        25.0758   12.8302  -13.4371  H     
62   H        26.8450   12.8311  -13.6144  H     
63   H        26.0409   11.5108  -12.7540  H     
@<TRIPOS>BOND
     1    1    2 1
     2    1    6 1
     3    2    3 1
     4    2    7 1
     5    3    4 1
     6    4    5 1
     7    5    6 1
     8    5    8 1
     9    8    9 1
    10    9   10 2
    11    9   12 1
    12   10   14 1
    13   11   12 2
    14   11   13 1
    15   13   14 2
    16   13   17 1
    17   14   15 1
    18   15   16 1
    19   15   18 1
    20   16   17 2
    21   18   19 2
    22   18   22 1
    23   19   20 1
    24   20   21 2
    25   20   26 1
    26   21   22 1
    27   21   23 1
    28   23   24 am
    29   23   25 2
    30   26   27 1
    31   27   28 1
    32   27   34 1
    33   28   29 2
    34   28   33 1
    35   29   30 1
    36   30   31 2
    37   31   32 1
    38   32   33 2
    39    1   35 1
    40    1   36 1
    41    2   37 1
    42    3   38 1
    43    3   39 1
    44    4   40 1
    45    4   41 1
    46    5   42 1
    47    6   43 1
    48    6   44 1
    49    7   45 1
    50    7   46 1
    51    7   47 1
    52   10   48 1
    53   11   49 1
    54   12   50 1
    55   16   51 1
    56   19   52 1
    57   24   53 1
    58   24   54 1
    59   27   55 1
    60   29   56 1
    61   30   57 1
    62   31   58 1
    63   32   59 1
    64   33   60 1
    65   34   61 1
    66   34   62 1
    67   34   63 1
@<TRIPOS>PROPERTY_DATA
  Total_Score	| 9.6709
  Crash		| -0.9734
  Polar		| 4.7539
  FragIndex	| 1
  FragRMSD	| 0.945

