@<TRIPOS>MOLECULE
BindingDB_50339797
 30 32 0 0 0
SMALL
NO_CHARGES


@<TRIPOS>ATOM
1    C        26.5869   10.1505  -21.2823  C     
2    C        25.9618    9.7505  -20.0823  C     
3    C        26.5351    7.8426  -22.1010  C     
4    C        26.8770    9.1950  -22.2864  C     
5    C        25.8932    7.4680  -20.9054  C     
6    C        25.6123    8.4007  -19.9027  C     
7    N        24.9831    7.7397  -18.9083  N     
8    C        24.8743    6.4561  -19.3044  C     
9    N        25.4226    6.2769  -20.5178  N     
10   C        24.5183    8.2408  -17.7299  C     
11   C        25.1288    9.1749  -16.8878  C     
12   C        24.4239    9.4840  -15.7125  C     
13   C        23.2153    8.7855  -15.5480  C     
14   S        23.0663    7.7685  -16.9319  S     
15   C        22.3199    8.8023  -14.4924  C     
16   N        22.5321    9.4751  -13.3816  N     
17   O        21.2842    8.1522  -14.5520  O     
18   O        24.9921   10.2608  -14.7468  O     
19   C        24.6013   11.6458  -14.8086  C     
20   H        26.8271   11.1322  -21.4271  H     
21   H        25.7369   10.4538  -19.3726  H     
22   H        26.7338    7.1512  -22.8249  H     
23   H        27.3262    9.4990  -23.1561  H     
24   H        24.4464    5.7018  -18.7620  H     
25   H        26.0539    9.5721  -17.0778  H     
26   H        21.8997    9.4228  -12.6524  H     
27   H        23.3356   10.0066  -13.2740  H     
28   H        24.8975   12.1027  -15.7575  H     
29   H        25.1114   12.1741  -13.9966  H     
30   H        23.5243   11.7637  -14.6665  H     
@<TRIPOS>BOND
     1    1    2 2
     2    1    4 1
     3    2    6 1
     4    3    4 2
     5    3    5 1
     6    5    6 2
     7    5    9 1
     8    6    7 1
     9    7    8 1
    10    7   10 1
    11    8    9 2
    12   10   11 2
    13   10   14 1
    14   11   12 1
    15   12   13 2
    16   12   18 1
    17   13   14 1
    18   13   15 1
    19   15   16 am
    20   15   17 2
    21   18   19 1
    22    1   20 1
    23    2   21 1
    24    3   22 1
    25    4   23 1
    26    8   24 1
    27   11   25 1
    28   16   26 1
    29   16   27 1
    30   19   28 1
    31   19   29 1
    32   19   30 1
@<TRIPOS>PROPERTY_DATA
  Total_Score	| 5.5224
  Crash		| -0.4377
  Polar		| 3.6301
  FragIndex	| 1
  FragRMSD	| 0.341

