@<TRIPOS>MOLECULE
BindingDB_50339799
 69 73 0 0 0
SMALL
NO_CHARGES


@<TRIPOS>ATOM
1    C        26.6547   13.5142  -23.0053  C     
2    N        27.3137   14.7267  -22.4196  N     
3    C        28.0551   14.3989  -21.1654  C     
4    C        29.0804   13.2412  -21.3477  C     
5    C        28.3974   11.9749  -21.9202  C     
6    C        27.6185   12.3129  -23.2224  C     
7    C        28.1115   15.5509  -23.3836  C     
8    O        27.5320   11.4176  -20.9019  O     
9    C        27.0337   10.1347  -20.9541  C     
10   C        26.1430    9.7740  -19.9097  C     
11   C        26.8481    7.8601  -21.8767  C     
12   C        27.3659    9.1670  -21.9437  C     
13   C        26.0130    7.5242  -20.8026  C     
14   C        25.6510    8.4516  -19.8243  C     
15   N        24.8323    7.8050  -18.9635  N     
16   C        24.7260    6.5300  -19.4124  C     
17   N        25.4378    6.3498  -20.5319  N     
18   C        24.2139    8.2659  -17.8288  C     
19   C        24.8890    9.0697  -16.8871  C     
20   C        24.2792    9.4442  -15.6640  C     
21   C        22.9625    8.9903  -15.3428  C     
22   C        22.2892    8.2085  -16.3164  C     
23   C        22.8957    7.8627  -17.5302  C     
24   C        22.3056    9.2367  -14.1202  C     
25   O        21.2157    8.7398  -13.8673  O     
26   N        22.7618    9.9802  -13.1381  N     
27   O        24.9937   10.1318  -14.7088  O     
28   C        26.1201   10.9984  -14.9814  C     
29   C        25.9296   11.9509  -16.1263  C     
30   C        26.3790   11.7668  -13.6688  C     
31   C        24.6085   12.4326  -16.3471  C     
32   C        24.3214   13.3436  -17.3733  C     
33   C        25.3528   13.7866  -18.2139  C     
34   C        26.6737   13.3513  -17.9922  C     
35   C        26.9972   12.4306  -16.9592  C     
36   C        28.4330   12.0242  -16.7635  C     
37   F        29.3281   12.6577  -17.5887  F     
38   F        28.8516   12.3249  -15.4957  F     
39   F        28.6082   10.6860  -16.9953  F     
40   H        25.8592   13.1942  -22.3192  H     
41   H        26.1684   13.7638  -23.9532  H     
42   H        26.5255   15.3290  -22.1376  H     
43   H        28.5724   15.2747  -20.7734  H     
44   H        27.3195   14.1059  -20.4173  H     
45   H        29.8880   13.5633  -22.0162  H     
46   H        29.5340   13.0024  -20.3855  H     
47   H        29.2054   11.2717  -22.1513  H     
48   H        27.0452   11.4356  -23.5454  H     
49   H        28.3317   12.5686  -24.0122  H     
50   H        28.9545   14.9901  -23.7938  H     
51   H        28.4895   16.4533  -22.8938  H     
52   H        27.4779   15.8778  -24.2076  H     
53   H        25.8698   10.4707  -19.2097  H     
54   H        27.0749    7.1717  -22.5943  H     
55   H        27.9716    9.4039  -22.7353  H     
56   H        24.1948    5.7790  -18.9627  H     
57   H        25.8605    9.3312  -17.0640  H     
58   H        21.3344    7.8725  -16.1562  H     
59   H        22.3647    7.2942  -18.1929  H     
60   H        22.2360   10.0636  -12.3274  H     
61   H        23.6073   10.4407  -13.2058  H     
62   H        26.9838   10.3510  -15.1346  H     
63   H        25.4717   12.2856  -13.3576  H     
64   H        27.1763   12.4985  -13.8006  H     
65   H        26.6782   11.0798  -12.8808  H     
66   H        23.8348   12.1243  -15.7481  H     
67   H        23.3736   13.7042  -17.4799  H     
68   H        25.1511   14.4465  -18.9776  H     
69   H        27.3935   13.7454  -18.5919  H     
@<TRIPOS>BOND
     1    1    2 1
     2    1    6 1
     3    2    3 1
     4    2    7 1
     5    3    4 1
     6    4    5 1
     7    5    6 1
     8    5    8 1
     9    8    9 1
    10    9   10 2
    11    9   12 1
    12   10   14 1
    13   11   12 2
    14   11   13 1
    15   13   14 2
    16   13   17 1
    17   14   15 1
    18   15   16 1
    19   15   18 1
    20   16   17 2
    21   18   19 2
    22   18   23 1
    23   19   20 1
    24   20   21 2
    25   20   27 1
    26   21   22 1
    27   21   24 1
    28   22   23 2
    29   24   25 2
    30   24   26 am
    31   27   28 1
    32   28   29 1
    33   28   30 1
    34   29   31 2
    35   29   35 1
    36   31   32 1
    37   32   33 2
    38   33   34 1
    39   34   35 2
    40   35   36 1
    41   36   37 1
    42   36   38 1
    43   36   39 1
    44    1   40 1
    45    1   41 1
    46    2   42 1
    47    3   43 1
    48    3   44 1
    49    4   45 1
    50    4   46 1
    51    5   47 1
    52    6   48 1
    53    6   49 1
    54    7   50 1
    55    7   51 1
    56    7   52 1
    57   10   53 1
    58   11   54 1
    59   12   55 1
    60   16   56 1
    61   19   57 1
    62   22   58 1
    63   23   59 1
    64   26   60 1
    65   26   61 1
    66   28   62 1
    67   30   63 1
    68   30   64 1
    69   30   65 1
    70   31   66 1
    71   32   67 1
    72   33   68 1
    73   34   69 1
@<TRIPOS>PROPERTY_DATA
  Total_Score	| 9.8939
  Crash		| -1.3882
  Polar		| 4.3484
  FragIndex	| 1
  FragRMSD	| 0.948

