@<TRIPOS>MOLECULE
BindingDB_50339800
 69 73 0 0 0
SMALL
NO_CHARGES


@<TRIPOS>ATOM
1    C        26.9984   10.3586  -20.8171  C     
2    C        25.9884    9.9483  -19.9157  C     
3    C        27.0003    8.1311  -21.8236  C     
4    C        27.5183    9.4419  -21.7571  C     
5    C        26.0342    7.7284  -20.8923  C     
6    C        25.5562    8.6039  -19.9108  C     
7    N        24.7499    7.8698  -19.1076  N     
8    C        24.7234    6.6125  -19.6171  C     
9    N        25.5195    6.5114  -20.6973  N     
10   C        24.1215    8.2385  -17.9418  C     
11   C        24.7792    9.0710  -17.0054  C     
12   C        24.1788    9.4653  -15.7822  C     
13   C        22.9148    8.9180  -15.4211  C     
14   C        22.2664    8.0605  -16.3603  C     
15   C        22.8507    7.7341  -17.5935  C     
16   C        22.2863    9.1661  -14.1758  C     
17   O        21.1393    8.7702  -13.9818  O     
18   N        22.8149    9.7968  -13.1326  N     
19   O        24.8323   10.3240  -14.9092  O     
20   C        26.0371   11.0868  -15.1886  C     
21   C        25.9221   12.1598  -16.2440  C     
22   C        26.4665   11.6987  -13.8354  C     
23   C        24.6158   12.6050  -16.5774  C     
24   C        24.3687   13.5390  -17.5907  C     
25   C        25.4438   14.1017  -18.2839  C     
26   C        26.7510   13.7375  -17.9193  C     
27   C        27.0304   12.7863  -16.9009  C     
28   C        28.4936   12.5570  -16.6227  C     
29   F        29.1063   12.1309  -17.7569  F     
30   F        29.0916   13.7364  -16.2649  F     
31   F        28.8722   11.6771  -15.6405  F     
32   O        28.6526    9.7108  -22.4714  O     
33   C        28.8693   10.9223  -23.2261  C     
34   C        29.9684   10.5470  -24.2468  C     
35   C        29.3677    9.6907  -25.3889  C     
36   N        28.2358   10.3734  -26.1022  N     
37   C        27.1486   10.7769  -25.1613  C     
38   C        27.6571   11.5816  -23.9508  C     
39   C        28.6650   11.4535  -27.0296  C     
40   H        27.3857   11.3058  -20.7635  H     
41   H        25.6184   10.6171  -19.2404  H     
42   H        27.3425    7.4675  -22.5195  H     
43   H        24.2379    5.8093  -19.2050  H     
44   H        25.7326    9.3801  -17.1934  H     
45   H        21.3419    7.6627  -16.1631  H     
46   H        22.3291    7.1339  -18.2368  H     
47   H        22.2930    9.8828  -12.3207  H     
48   H        23.6851   10.2137  -13.1730  H     
49   H        26.7729   10.3310  -15.4719  H     
50   H        25.7100   12.3844  -13.4620  H     
51   H        27.4082   12.2342  -13.9220  H     
52   H        26.6124   10.9046  -13.1100  H     
53   H        23.8022   12.2543  -16.0829  H     
54   H        23.3953   13.7889  -17.8139  H     
55   H        25.2820   14.7751  -19.0367  H     
56   H        27.5141   14.1957  -18.4108  H     
57   H        29.2950   11.6451  -22.5329  H     
58   H        30.4447   11.4139  -24.6677  H     
59   H        30.7446    9.9745  -23.7465  H     
60   H        30.1654    9.4031  -26.0897  H     
61   H        29.0019    8.7720  -24.9233  H     
62   H        27.8231    9.6753  -26.7175  H     
63   H        26.3821   11.3637  -25.6695  H     
64   H        26.6600    9.8814  -24.7992  H     
65   H        26.8358   11.7215  -23.2549  H     
66   H        27.9593   12.5706  -24.2894  H     
67   H        29.1624   12.2516  -26.4889  H     
68   H        27.8049   11.8688  -27.5600  H     
69   H        29.3523   11.0660  -27.7822  H     
@<TRIPOS>BOND
     1    1    2 2
     2    1    4 1
     3    2    6 1
     4    3    4 2
     5    3    5 1
     6    4   32 1
     7    5    6 2
     8    5    9 1
     9    6    7 1
    10    7    8 1
    11    7   10 1
    12    8    9 2
    13   10   11 2
    14   10   15 1
    15   11   12 1
    16   12   13 2
    17   12   19 1
    18   13   14 1
    19   13   16 1
    20   14   15 2
    21   16   17 2
    22   16   18 am
    23   19   20 1
    24   20   21 1
    25   20   22 1
    26   21   23 2
    27   21   27 1
    28   23   24 1
    29   24   25 2
    30   25   26 1
    31   26   27 2
    32   27   28 1
    33   28   29 1
    34   28   30 1
    35   28   31 1
    36   32   33 1
    37   33   34 1
    38   33   38 1
    39   34   35 1
    40   35   36 1
    41   36   37 1
    42   36   39 1
    43   37   38 1
    44    1   40 1
    45    2   41 1
    46    3   42 1
    47    8   43 1
    48   11   44 1
    49   14   45 1
    50   15   46 1
    51   18   47 1
    52   18   48 1
    53   20   49 1
    54   22   50 1
    55   22   51 1
    56   22   52 1
    57   23   53 1
    58   24   54 1
    59   25   55 1
    60   26   56 1
    61   33   57 1
    62   34   58 1
    63   34   59 1
    64   35   60 1
    65   35   61 1
    66   36   62 1
    67   37   63 1
    68   37   64 1
    69   38   65 1
    70   38   66 1
    71   39   67 1
    72   39   68 1
    73   39   69 1
@<TRIPOS>PROPERTY_DATA
  Total_Score	| 9.5099
  Crash		| -1.4321
  Polar		| 4.1708
  FragIndex	| 1
  FragRMSD	| 0.615

