@<TRIPOS>MOLECULE
BindingDB_28216
 66 70 0 0 0
SMALL
NO_CHARGES


@<TRIPOS>ATOM
1    S        22.9042    7.7166  -16.7697  S     
2    C        24.2266    8.3007  -17.6893  C     
3    C        24.8278    9.2672  -16.8838  C     
4    C        24.2148    9.5621  -15.6478  C     
5    C        23.0802    8.7684  -15.4082  C     
6    C        22.2301    8.7688  -14.3226  C     
7    O        21.2979    7.9761  -14.2714  O     
8    N        22.3443    9.6126  -13.3221  N     
9    O        24.7317   10.4362  -14.7253  O     
10   C        25.9591   11.1642  -14.9714  C     
11   C        25.8842   12.0857  -16.1527  C     
12   C        24.6059   12.6291  -16.4419  C     
13   C        27.0115   12.4852  -16.9516  C     
14   C        26.7855   13.4475  -17.9685  C     
15   C        25.5082   13.9670  -18.2452  C     
16   C        24.4137   13.5443  -17.4852  C     
17   N        24.6953    7.8856  -18.8856  N     
18   C        24.5099    6.6388  -19.3633  C     
19   N        25.2128    6.4492  -20.4860  N     
20   C        25.8317    7.6098  -20.7388  C     
21   C        25.5078    8.5465  -19.7522  C     
22   C        26.7273    7.8975  -21.7664  C     
23   C        27.3221    9.1649  -21.8033  C     
24   C        26.9609   10.1752  -20.8569  C     
25   C        26.0434    9.8642  -19.8156  C     
26   O        27.4910   11.4521  -20.8668  O     
27   C        28.4126   11.9589  -16.7606  C     
28   C        26.2977   11.9420  -13.6809  C     
29   C        28.3777   11.9621  -21.8981  C     
30   F        29.3777   12.6792  -17.4409  F     
31   F        28.8317   12.0603  -15.4500  F     
32   F        28.6028   10.6671  -17.2216  F     
33   C        27.6502   12.3166  -23.2303  C     
34   C        26.6695   13.5035  -23.0431  C     
35   N        27.2786   14.7164  -22.4125  N     
36   C        28.0384   14.3860  -21.1696  C     
37   C        29.0676   13.2422  -21.3586  C     
38   C        28.0439   15.5750  -23.3562  C     
39   H        25.7137    9.6915  -17.1698  H     
40   H        21.7053    9.5841  -12.5873  H     
41   H        23.0559   10.2761  -13.3203  H     
42   H        26.7662   10.4306  -15.0743  H     
43   H        23.7888   12.3648  -15.8860  H     
44   H        27.5539   13.8086  -18.5259  H     
45   H        25.3802   14.6500  -18.9898  H     
46   H        23.4782   13.9225  -17.6729  H     
47   H        23.9657    5.8913  -18.9110  H     
48   H        27.0037    7.1820  -22.4327  H     
49   H        28.0126    9.3439  -22.5204  H     
50   H        25.8655   10.5614  -19.0457  H     
51   H        25.5153   12.6577  -13.4374  H     
52   H        27.2467   12.4727  -13.8069  H     
53   H        26.4126   11.2435  -12.8427  H     
54   H        29.1674   11.2333  -22.0933  H     
55   H        28.3934   12.5762  -23.9950  H     
56   H        27.0940   11.4598  -23.6065  H     
57   H        26.2278   13.7579  -24.0122  H     
58   H        25.8498   13.1655  -22.4084  H     
59   H        26.4698   15.2662  -22.1136  H     
60   H        28.5466   15.2693  -20.7777  H     
61   H        27.3035   14.0872  -20.4170  H     
62   H        29.5600   13.0242  -20.4094  H     
63   H        29.8416   13.5610  -22.0571  H     
64   H        28.9143   15.0604  -23.7591  H     
65   H        28.3811   16.4825  -22.8522  H     
66   H        27.4102   15.8853  -24.1858  H     
@<TRIPOS>BOND
     1    1    2 1
     2    1    5 1
     3    2    3 2
     4    2   17 1
     5    3    4 1
     6    4    5 2
     7    4    9 1
     8    5    6 1
     9    6    7 2
    10    6    8 am
    11   10    9 1
    12   10   11 1
    13   10   28 1
    14   11   12 1
    15   11   13 2
    16   12   16 2
    17   13   14 1
    18   13   27 1
    19   14   15 2
    20   15   16 1
    21   17   18 1
    22   17   21 1
    23   18   19 2
    24   19   20 1
    25   20   21 2
    26   20   22 1
    27   21   25 1
    28   22   23 2
    29   23   24 1
    30   24   25 2
    31   24   26 1
    32   26   29 1
    33   27   30 1
    34   27   31 1
    35   27   32 1
    36   29   33 1
    37   29   37 1
    38   33   34 1
    39   34   35 1
    40   35   36 1
    41   35   38 1
    42   36   37 1
    43    3   39 1
    44    8   40 1
    45    8   41 1
    46   10   42 1
    47   12   43 1
    48   14   44 1
    49   15   45 1
    50   16   46 1
    51   18   47 1
    52   22   48 1
    53   23   49 1
    54   25   50 1
    55   28   51 1
    56   28   52 1
    57   28   53 1
    58   29   54 1
    59   33   55 1
    60   33   56 1
    61   34   57 1
    62   34   58 1
    63   35   59 1
    64   36   60 1
    65   36   61 1
    66   37   62 1
    67   37   63 1
    68   38   64 1
    69   38   65 1
    70   38   66 1
@<TRIPOS>PROPERTY_DATA
  Total_Score	| 9.7250
  Crash		| -1.2212
  Polar		| 4.4542
  FragIndex	| 1
  FragRMSD	| 0.919

