@<TRIPOS>MOLECULE
BindingDB_50339803
 68 71 0 0 0
SMALL
NO_CHARGES


@<TRIPOS>ATOM
1    C        26.6915   10.2053  -21.2374  C     
2    C        25.8677    9.8349  -20.1497  C     
3    C        26.7717    7.8852  -21.9976  C     
4    C        27.1439    9.2317  -22.1639  C     
5    C        25.9891    7.5306  -20.8871  C     
6    C        25.5455    8.4733  -19.9499  C     
7    N        24.8367    7.7829  -19.0218  N     
8    C        24.8843    6.4777  -19.3865  C     
9    N        25.5719    6.3106  -20.5282  N     
10   C        24.2014    8.2250  -17.8796  C     
11   C        24.8272    9.0986  -16.9509  C     
12   C        24.1917    9.4822  -15.7376  C     
13   C        22.9157    8.9347  -15.4029  C     
14   C        22.2992    8.0707  -16.3525  C     
15   C        22.9161    7.7351  -17.5633  C     
16   C        22.2391    9.1866  -14.1957  C     
17   O        21.0771    8.8435  -14.0421  O     
18   N        22.7625    9.7404  -13.1184  N     
19   O        24.7749   10.3608  -14.8545  O     
20   C        25.9455   11.1516  -15.1163  C     
21   C        25.8453   12.0929  -16.2810  C     
22   C        26.2610   11.9613  -13.8258  C     
23   C        24.5839   12.6979  -16.5197  C     
24   C        24.3899   13.5890  -17.5897  C     
25   C        25.4670   13.9234  -18.4176  C     
26   C        26.7312   13.3589  -18.1794  C     
27   C        26.9620   12.4518  -17.1097  C     
28   C        28.3469   11.8990  -16.9097  C     
29   F        29.3309   12.5830  -17.5844  F     
30   F        28.7431   11.9285  -15.5950  F     
31   F        28.3797   10.5943  -17.3498  F     
32   O        28.0701    9.5053  -23.1347  O     
33   C        27.5938   10.1490  -24.3287  C     
34   C        28.7303   10.1092  -25.3877  C     
35   C        28.7537   11.2425  -26.4510  C     
36   N        27.7165   11.0891  -27.5298  N     
37   C        26.4626   11.8529  -27.2679  C     
38   C        28.2415   11.3819  -28.8963  C     
39   H        26.9798   11.1778  -21.3432  H     
40   H        25.5481   10.5477  -19.4940  H     
41   H        27.0988    7.1636  -22.6413  H     
42   H        24.4630    5.6997  -18.8761  H     
43   H        25.7770    9.4283  -17.1313  H     
44   H        21.3721    7.6567  -16.1691  H     
45   H        22.4283    7.1194  -18.2079  H     
46   H        22.2106    9.8182  -12.3259  H     
47   H        23.6870   10.0133  -13.0845  H     
48   H        26.7592   10.4360  -15.2666  H     
49   H        25.4164   12.6043  -13.5560  H     
50   H        27.1423   12.5997  -13.9521  H     
51   H        26.4508   11.2747  -12.9949  H     
52   H        23.7815   12.4952  -15.9181  H     
53   H        23.4580   13.9880  -17.7737  H     
54   H        25.3295   14.5740  -19.1977  H     
55   H        27.4901   13.6297  -18.8134  H     
56   H        26.7154    9.6393  -24.7343  H     
57   H        27.3333   11.1845  -24.0928  H     
58   H        29.6982   10.1393  -24.8557  H     
59   H        28.7001    9.1392  -25.9059  H     
60   H        28.6678   12.2089  -25.9515  H     
61   H        29.7603   11.2180  -26.8880  H     
62   H        27.4457   10.1026  -27.5457  H     
63   H        26.0378   11.5836  -26.2992  H     
64   H        25.7045   11.6198  -28.0239  H     
65   H        26.6453   12.9313  -27.2750  H     
66   H        28.6091   12.4100  -28.9626  H     
67   H        27.4703   11.2357  -29.6575  H     
68   H        29.0637   10.7005  -29.1337  H     
@<TRIPOS>BOND
     1    1    2 2
     2    1    4 1
     3    2    6 1
     4    3    4 2
     5    3    5 1
     6    4   32 1
     7    5    6 2
     8    5    9 1
     9    6    7 1
    10    7    8 1
    11    7   10 1
    12    8    9 2
    13   10   11 2
    14   10   15 1
    15   11   12 1
    16   12   13 2
    17   12   19 1
    18   13   14 1
    19   13   16 1
    20   14   15 2
    21   16   17 2
    22   16   18 am
    23   19   20 1
    24   20   21 1
    25   20   22 1
    26   21   23 2
    27   21   27 1
    28   23   24 1
    29   24   25 2
    30   25   26 1
    31   26   27 2
    32   27   28 1
    33   28   29 1
    34   28   30 1
    35   28   31 1
    36   32   33 1
    37   33   34 1
    38   34   35 1
    39   35   36 1
    40   36   37 1
    41   36   38 1
    42    1   39 1
    43    2   40 1
    44    3   41 1
    45    8   42 1
    46   11   43 1
    47   14   44 1
    48   15   45 1
    49   18   46 1
    50   18   47 1
    51   20   48 1
    52   22   49 1
    53   22   50 1
    54   22   51 1
    55   23   52 1
    56   24   53 1
    57   25   54 1
    58   26   55 1
    59   33   56 1
    60   33   57 1
    61   34   58 1
    62   34   59 1
    63   35   60 1
    64   35   61 1
    65   36   62 1
    66   37   63 1
    67   37   64 1
    68   37   65 1
    69   38   66 1
    70   38   67 1
    71   38   68 1
@<TRIPOS>PROPERTY_DATA
  Total_Score	| 10.3937
  Crash		| -0.9846
  Polar		| 4.4499
  FragIndex	| 1
  FragRMSD	| 0.322

