@<TRIPOS>MOLECULE
BindingDB_50339804
 73 78 0 0 0
SMALL
NO_CHARGES


@<TRIPOS>ATOM
1    C        26.4600   10.3300  -21.1601  C     
2    C        25.7535    9.8674  -20.0345  C     
3    C        26.6594    8.0546  -22.0119  C     
4    C        26.9249    9.4426  -22.1506  C     
5    C        25.9586    7.6075  -20.8789  C     
6    C        25.5085    8.4865  -19.9013  C     
7    N        24.8687    7.7502  -18.9564  N     
8    C        24.9655    6.4635  -19.3678  C     
9    N        25.6125    6.3601  -20.5425  N     
10   C        24.2294    8.1639  -17.8077  C     
11   C        24.8195    9.0757  -16.9076  C     
12   C        24.1768    9.4980  -15.7210  C     
13   C        22.9058    8.9396  -15.3730  C     
14   C        22.3111    8.0351  -16.2940  C     
15   C        22.9584    7.6434  -17.4664  C     
16   C        22.2294    9.2291  -14.1793  C     
17   O        21.0745    8.8670  -13.9932  O     
18   N        22.7626    9.8185  -13.1238  N     
19   O        24.7241   10.4462  -14.8760  O     
20   C        25.9366   11.2095  -15.0926  C     
21   C        25.8593   12.1515  -16.2677  C     
22   C        26.2118   11.9943  -13.7830  C     
23   C        24.5932   12.7139  -16.5594  C     
24   C        24.4029   13.5841  -17.6482  C     
25   C        25.4893   13.9214  -18.4642  C     
26   C        26.7616   13.4126  -18.1777  C     
27   C        26.9824   12.5244  -17.0838  C     
28   C        28.3754   12.0203  -16.8398  C     
29   F        29.3585   12.6357  -17.5889  F     
30   F        28.7558   12.2055  -15.5354  F     
31   F        28.4422   10.6852  -17.1586  F     
32   O        27.5693   10.0098  -23.2152  O     
33   C        28.5369    9.3076  -24.0357  C     
34   C        28.6639   10.1685  -25.3205  C     
35   C        29.7844    9.6579  -26.2456  C     
36   N        31.1102    9.6106  -25.5546  N     
37   C        31.0472    8.6828  -24.3759  C     
38   C        29.9307    9.0827  -23.3598  C     
39   C        31.6771   10.9468  -25.1899  C     
40   C        33.1491   10.8879  -24.7673  C     
41   C        32.7466   11.6567  -26.0340  C     
42   H        26.6345   11.3316  -21.2625  H     
43   H        25.3990   10.5278  -19.3442  H     
44   H        26.9494    7.3848  -22.7305  H     
45   H        24.6036    5.6534  -18.8558  H     
46   H        25.7513    9.4283  -17.1258  H     
47   H        21.3939    7.6168  -16.1003  H     
48   H        22.4990    6.9739  -18.0893  H     
49   H        22.2280    9.9126  -12.3210  H     
50   H        23.6896   10.0997  -13.1174  H     
51   H        26.7454   10.4892  -15.2092  H     
52   H        25.3791   12.6685  -13.5446  H     
53   H        27.1250   12.5845  -13.8780  H     
54   H        26.3373   11.2898  -12.9532  H     
55   H        23.7793   12.4949  -15.9785  H     
56   H        23.4772   13.9675  -17.8511  H     
57   H        25.3591   14.5530  -19.2581  H     
58   H        27.5305   13.6845  -18.7991  H     
59   H        28.1138    8.3388  -24.3094  H     
60   H        27.7158   10.1416  -25.8675  H     
61   H        28.8806   11.2068  -25.0566  H     
62   H        29.5342    8.6566  -26.5945  H     
63   H        29.8280   10.2878  -27.1319  H     
64   H        31.7300    9.1878  -26.2466  H     
65   H        30.8717    7.6636  -24.7361  H     
66   H        32.0141    8.6553  -23.8635  H     
67   H        30.2142   10.0020  -22.8442  H     
68   H        29.8326    8.2985  -22.6047  H     
69   H        31.1079   11.6141  -24.5298  H     
70   H        33.4182   11.4836  -23.8926  H     
71   H        33.6923    9.9593  -24.9598  H     
72   H        33.1179   11.1900  -26.9367  H     
73   H        32.8170   12.7374  -25.9390  H     
@<TRIPOS>BOND
     1    1    2 2
     2    1    4 1
     3    2    6 1
     4    3    4 2
     5    3    5 1
     6    4   32 1
     7    5    6 2
     8    5    9 1
     9    6    7 1
    10    7    8 1
    11    7   10 1
    12    8    9 2
    13   10   11 2
    14   10   15 1
    15   11   12 1
    16   12   13 2
    17   12   19 1
    18   13   14 1
    19   13   16 1
    20   14   15 2
    21   16   17 2
    22   16   18 am
    23   19   20 1
    24   20   21 1
    25   20   22 1
    26   21   23 2
    27   21   27 1
    28   23   24 1
    29   24   25 2
    30   25   26 1
    31   26   27 2
    32   27   28 1
    33   28   29 1
    34   28   30 1
    35   28   31 1
    36   32   33 1
    37   33   34 1
    38   33   38 1
    39   34   35 1
    40   35   36 1
    41   36   37 1
    42   36   39 1
    43   37   38 1
    44   39   40 1
    45   39   41 1
    46   40   41 1
    47    1   42 1
    48    2   43 1
    49    3   44 1
    50    8   45 1
    51   11   46 1
    52   14   47 1
    53   15   48 1
    54   18   49 1
    55   18   50 1
    56   20   51 1
    57   22   52 1
    58   22   53 1
    59   22   54 1
    60   23   55 1
    61   24   56 1
    62   25   57 1
    63   26   58 1
    64   33   59 1
    65   34   60 1
    66   34   61 1
    67   35   62 1
    68   35   63 1
    69   36   64 1
    70   37   65 1
    71   37   66 1
    72   38   67 1
    73   38   68 1
    74   39   69 1
    75   40   70 1
    76   40   71 1
    77   41   72 1
    78   41   73 1
@<TRIPOS>PROPERTY_DATA
  Total_Score	| 9.0983
  Crash		| -1.0261
  Polar		| 2.6741
  FragIndex	| 1
  FragRMSD	| 0.307

