@<TRIPOS>MOLECULE
BindingDB_50339795
 63 67 0 0 0
SMALL
NO_CHARGES


@<TRIPOS>ATOM
1    C        27.9132   15.5136  -23.4136  C     
2    N        27.3072   14.6150  -22.3846  N     
3    C        26.6323   13.4047  -22.9522  C     
4    C        27.6117   12.2672  -23.3436  C     
5    C        28.5320   11.8774  -22.1559  C     
6    O        27.8196   11.3075  -21.0261  O     
7    C        27.1754   10.0784  -21.0611  C     
8    C        27.4455    9.0655  -22.0069  C     
9    C        26.7422    7.8248  -21.9519  C     
10   C        25.8905    7.5989  -20.8729  C     
11   N        25.1767    6.4946  -20.6125  N     
12   C        24.5235    6.7249  -19.4777  C     
13   N        24.8109    7.9577  -18.9730  N     
14   C        24.3276    8.3872  -17.7709  C     
15   C        24.8104    9.3995  -16.9193  C     
16   C        24.1239    9.5746  -15.6996  C     
17   O        24.3697   10.5048  -14.7133  O     
18   C        25.4295   11.4786  -14.7446  C     
19   C        25.4999   12.2894  -15.9950  C     
20   C        24.3116   12.9333  -16.4321  C     
21   C        24.2800   13.7073  -17.5996  C     
22   C        25.4522   13.9016  -18.3371  C     
23   C        26.6528   13.3160  -17.8962  C     
24   C        26.7116   12.4861  -16.7481  C     
25   C        28.0311   11.8825  -16.3609  C     
26   F        29.0926   12.1853  -17.1832  F     
27   F        28.4015   12.3078  -15.1069  F     
28   F        27.9726   10.5097  -16.3736  F     
29   C        23.0515    8.6721  -15.5162  C     
30   C        22.1806    8.5345  -14.4545  C     
31   N        22.3542    9.1281  -13.2938  N     
32   O        21.2199    7.7644  -14.5325  O     
33   S        22.9979    7.6924  -16.9238  S     
34   C        25.6482    8.5406  -19.8738  C     
35   C        26.2797    9.8100  -19.9942  C     
36   C        29.2697   13.1572  -21.6601  C     
37   C        28.2565   14.2635  -21.2796  C     
38   H        28.7637   15.0465  -23.9151  H     
39   H        28.2478   16.4409  -22.9429  H     
40   H        27.1699   15.7783  -24.1686  H     
41   H        26.5296   15.1498  -21.9790  H     
42   H        25.9423   13.0166  -22.1923  H     
43   H        26.0263   13.6764  -23.8245  H     
44   H        27.0383   11.4013  -23.6750  H     
45   H        28.2220   12.5911  -24.1908  H     
46   H        29.3066   11.1839  -22.4969  H     
47   H        28.1113    9.1946  -22.7578  H     
48   H        26.8988    7.1079  -22.6508  H     
49   H        23.9141    6.0213  -19.0409  H     
50   H        25.6347    9.9375  -17.1640  H     
51   H        25.2257   12.1744  -13.9213  H     
52   H        26.3596   10.9698  -14.5042  H     
53   H        23.4469   12.8342  -15.9003  H     
54   H        23.4098   14.1478  -17.9070  H     
55   H        25.4401   14.4892  -19.1754  H     
56   H        27.4929   13.5233  -18.4431  H     
57   H        21.7315    8.9692  -12.5739  H     
58   H        23.1198    9.7026  -13.1379  H     
59   H        26.0848   10.5451  -19.3136  H     
60   H        29.8899   12.9196  -20.7916  H     
61   H        29.9326   13.5235  -22.4532  H     
62   H        28.7993   15.1501  -20.9341  H     
63   H        27.6695   13.9158  -20.4271  H     
@<TRIPOS>BOND
     1    1    2 1
     2    2    3 1
     3    2   37 1
     4    3    4 1
     5    4    5 1
     6    5    6 1
     7    5   36 1
     8    6    7 1
     9    7    8 1
    10    7   35 2
    11    8    9 2
    12    9   10 1
    13   10   11 1
    14   10   34 2
    15   11   12 2
    16   12   13 1
    17   13   14 1
    18   13   34 1
    19   14   15 2
    20   14   33 1
    21   15   16 1
    22   16   17 1
    23   16   29 2
    24   17   18 1
    25   18   19 1
    26   19   20 2
    27   19   24 1
    28   20   21 1
    29   21   22 2
    30   22   23 1
    31   23   24 2
    32   24   25 1
    33   25   26 1
    34   25   27 1
    35   25   28 1
    36   29   30 1
    37   29   33 1
    38   30   31 am
    39   30   32 2
    40   34   35 1
    41   36   37 1
    42    1   38 1
    43    1   39 1
    44    1   40 1
    45    2   41 1
    46    3   42 1
    47    3   43 1
    48    4   44 1
    49    4   45 1
    50    5   46 1
    51    8   47 1
    52    9   48 1
    53   12   49 1
    54   15   50 1
    55   18   51 1
    56   18   52 1
    57   20   53 1
    58   21   54 1
    59   22   55 1
    60   23   56 1
    61   31   57 1
    62   31   58 1
    63   35   59 1
    64   36   60 1
    65   36   61 1
    66   37   62 1
    67   37   63 1
@<TRIPOS>PROPERTY_DATA
  Total_Score	| 9.7555
  Crash		| -0.7495
  Polar		| 4.5153
  FragIndex	| 1
  FragRMSD	| 0.951

