@<TRIPOS>MOLECULE
BindingDB_50339793
 60 64 0 0 0
SMALL
NO_CHARGES


@<TRIPOS>ATOM
1    C        28.0115   14.1563  -21.1053  C     
2    N        27.2951   14.6016  -22.3457  N     
3    C        26.7698   13.4533  -23.1592  C     
4    C        27.8324   12.3483  -23.4312  C     
5    C        28.4127   11.8298  -22.0893  C     
6    C        29.0545   13.0249  -21.3358  C     
7    C        28.0767   15.5919  -23.1472  C     
8    O        27.3993   11.3036  -21.2004  O     
9    C        26.8869   10.0334  -21.2287  C     
10   C        26.1207    9.7094  -20.0868  C     
11   C        26.5659    7.7473  -22.0508  C     
12   C        27.0817    9.0451  -22.2274  C     
13   C        25.8448    7.4556  -20.8908  C     
14   C        25.6166    8.4103  -19.8977  C     
15   N        24.8966    7.8076  -18.9276  N     
16   C        24.6920    6.5362  -19.3389  C     
17   N        25.2798    6.3068  -20.5204  N     
18   C        24.4622    8.3049  -17.7298  C     
19   C        25.1021    9.1981  -16.8608  C     
20   C        24.4269    9.4892  -15.6562  C     
21   C        23.2125    8.8093  -15.4956  C     
22   S        23.0109    7.8639  -16.9161  S     
23   C        22.3166    8.8172  -14.4412  C     
24   N        22.5990    9.3219  -13.2628  N     
25   O        21.2187    8.2995  -14.5545  O     
26   O        25.0234   10.2607  -14.6994  O     
27   C        24.6461   11.6557  -14.6810  C     
28   C        24.8673   12.3737  -15.9677  C     
29   C        26.0836   12.2177  -16.6637  C     
30   C        26.3104   12.8889  -17.8829  C     
31   C        25.3221   13.7533  -18.3983  C     
32   C        24.1032   13.9080  -17.7290  C     
33   C        23.8758   13.2290  -16.5128  C     
34   H        28.4902   15.0052  -20.6057  H     
35   H        27.2493   13.7833  -20.4195  H     
36   H        26.4609   15.1083  -22.0239  H     
37   H        25.9340   13.0114  -22.6162  H     
38   H        26.3637   13.8078  -24.1142  H     
39   H        27.4003   11.5069  -23.9655  H     
40   H        28.6261   12.7528  -24.0679  H     
41   H        29.1767   11.0729  -22.2974  H     
42   H        29.8978   13.4194  -21.9052  H     
43   H        29.4270   12.6808  -20.3641  H     
44   H        28.3716   16.4380  -22.5199  H     
45   H        27.4573   15.9901  -23.9525  H     
46   H        28.9780   15.1431  -23.5759  H     
47   H        25.9412   10.4232  -19.3890  H     
48   H        26.7451    7.0271  -22.7512  H     
49   H        27.6606    9.2059  -23.0378  H     
50   H        24.1882    5.8102  -18.8164  H     
51   H        26.0298    9.5751  -17.0399  H     
52   H        21.9386    9.3112  -12.5547  H     
53   H        23.4681    9.6917  -13.0724  H     
54   H        23.6060   11.7543  -14.3432  H     
55   H        25.2651   12.1397  -13.9215  H     
56   H        26.8161   11.6019  -16.3019  H     
57   H        27.1887   12.7632  -18.3877  H     
58   H        25.4873   14.2666  -19.2680  H     
59   H        23.3733   14.5185  -18.1161  H     
60   H        22.9937   13.3716  -16.0243  H     
@<TRIPOS>BOND
     1    1    2 1
     2    1    6 1
     3    2    3 1
     4    2    7 1
     5    3    4 1
     6    4    5 1
     7    5    6 1
     8    5    8 1
     9    8    9 1
    10    9   10 2
    11    9   12 1
    12   10   14 1
    13   11   12 2
    14   11   13 1
    15   13   14 2
    16   13   17 1
    17   14   15 1
    18   15   16 1
    19   15   18 1
    20   16   17 2
    21   18   19 2
    22   18   22 1
    23   19   20 1
    24   20   21 2
    25   20   26 1
    26   21   22 1
    27   21   23 1
    28   23   24 am
    29   23   25 2
    30   26   27 1
    31   27   28 1
    32   28   29 2
    33   28   33 1
    34   29   30 1
    35   30   31 2
    36   31   32 1
    37   32   33 2
    38    1   34 1
    39    1   35 1
    40    2   36 1
    41    3   37 1
    42    3   38 1
    43    4   39 1
    44    4   40 1
    45    5   41 1
    46    6   42 1
    47    6   43 1
    48    7   44 1
    49    7   45 1
    50    7   46 1
    51   10   47 1
    52   11   48 1
    53   12   49 1
    54   16   50 1
    55   19   51 1
    56   24   52 1
    57   24   53 1
    58   27   54 1
    59   27   55 1
    60   29   56 1
    61   30   57 1
    62   31   58 1
    63   32   59 1
    64   33   60 1
@<TRIPOS>PROPERTY_DATA
  Total_Score	| 10.2947
  Crash		| -1.1262
  Polar		| 5.7766
  FragIndex	| 1
  FragRMSD	| 0.988

