@<TRIPOS>MOLECULE
BindingDB_50298197
 83 83 0 0 0
SMALL
NO_CHARGES


@<TRIPOS>ATOM
1    C        82.9834   21.5063  -31.6121  C     
2    C        81.7149   21.7784  -31.0392  C     
3    C        80.5719   21.1759  -31.6227  C     
4    C        80.6831   20.3512  -32.7544  C     
5    C        81.9425   20.0855  -33.3329  C     
6    C        83.0858   20.6134  -32.6977  C     
7    C        81.5528   22.7559  -29.9224  C     
8    C        82.7506   22.8484  -28.9432  C     
9    O        84.1001   22.1324  -31.1158  O     
10   C        82.0885   19.3037  -34.4747  C     
11   N        82.7629   19.7011  -35.5764  N     
12   C        83.5863   18.7381  -36.3098  C     
13   C        82.6617   21.0998  -36.0398  C     
14   C        83.8536   21.6568  -36.8911  C     
15   C        81.3026   21.3733  -36.7638  C     
16   C        83.0492   18.3052  -37.7240  C     
17   C        84.1398   18.1584  -38.8705  C     
18   N        82.1439   17.1511  -37.5302  N     
19   C        83.8085   17.1832  -40.0550  C     
20   O        85.4708   17.9532  -38.3949  O     
21   C        84.4325   15.7353  -40.1159  C     
22   C        83.4456   14.7625  -40.6026  C     
23   C        85.1643   15.2055  -38.8468  C     
24   O        82.8747   14.0013  -39.8247  O     
25   N        83.1162   14.7563  -41.8885  N     
26   C        82.1604   13.8981  -42.5168  C     
27   C        82.8141   12.6284  -43.1145  C     
28   C        82.5161   12.4829  -44.6340  C     
29   C        83.4134   11.4340  -45.3071  C     
30   O        81.7223   18.1427  -34.3574  O     
31   C        84.9224   22.8596  -32.0378  C     
32   C        84.2377   23.9402  -32.9303  C     
33   C        84.7299   23.9631  -34.3977  C     
34   O        86.1690   23.8620  -34.4805  O     
35   C        86.7249   24.3600  -35.7060  C     
36   H        79.6440   21.3368  -31.2250  H     
37   H        79.8285   19.9638  -33.1760  H     
38   H        84.0089   20.3878  -33.0598  H     
39   H        81.3887   23.7468  -30.3560  H     
40   H        80.6580   22.5199  -29.3349  H     
41   H        83.0115   21.8605  -28.5613  H     
42   H        82.4706   23.4877  -28.1046  H     
43   H        83.6266   23.2834  -29.4128  H     
44   H        84.5803   19.1812  -36.3812  H     
45   H        83.7715   17.8216  -35.7350  H     
46   H        82.6461   21.7600  -35.1786  H     
47   H        84.7850   21.5510  -36.3250  H     
48   H        83.7059   22.7168  -37.1220  H     
49   H        83.9413   21.1169  -37.8354  H     
50   H        81.3686   21.1739  -37.8366  H     
51   H        81.0249   22.4254  -36.6574  H     
52   H        80.4819   20.7629  -36.3566  H     
53   H        82.3576   19.0791  -38.0690  H     
54   H        84.2089   19.1533  -39.3243  H     
55   H        82.6730   16.3290  -37.2193  H     
56   H        81.6680   16.9491  -38.4112  H     
57   H        81.4486   17.3851  -36.8115  H     
58   H        82.7181   17.1309  -40.1495  H     
59   H        84.1408   17.6822  -40.9726  H     
60   H        86.0946   18.1565  -39.1277  H     
61   H        85.2176   15.7632  -40.8827  H     
62   H        86.0087   15.8293  -38.5729  H     
63   H        85.5656   14.2072  -39.0478  H     
64   H        84.4800   15.1416  -37.9998  H     
65   H        83.5541   15.4127  -42.4569  H     
66   H        81.3676   13.6419  -41.8056  H     
67   H        81.7023   14.4624  -43.3352  H     
68   H        83.8954   12.6946  -42.9629  H     
69   H        82.4460   11.7403  -42.5899  H     
70   H        81.4674   12.1946  -44.7630  H     
71   H        82.6644   13.4431  -45.1315  H     
72   H        84.4600   11.7353  -45.2402  H     
73   H        83.1529   11.3316  -46.3591  H     
74   H        83.2992   10.4621  -44.8255  H     
75   H        85.6596   23.3575  -31.4205  H     
76   H        85.4632   22.1405  -32.6527  H     
77   H        83.1566   23.7920  -32.9594  H     
78   H        84.4102   24.9226  -32.4945  H     
79   H        84.2882   23.1077  -34.9125  H     
80   H        84.3665   24.8743  -34.8754  H     
81   H        86.2926   23.8590  -36.5764  H     
82   H        87.7983   24.1679  -35.7042  H     
83   H        86.5688   25.4344  -35.7929  H     
@<TRIPOS>BOND
     1    1    2 2
     2    1    6 1
     3    1    9 1
     4    2    3 1
     5    2    7 1
     6    3    4 2
     7    4    5 1
     8    5    6 2
     9    5   10 1
    10    7    8 1
    11    9   31 1
    12   10   11 am
    13   10   30 2
    14   11   12 1
    15   11   13 1
    16   12   16 1
    17   13   14 1
    18   13   15 1
    19   16   17 1
    20   16   18 1
    21   17   19 1
    22   17   20 1
    23   19   21 1
    24   21   22 1
    25   21   23 1
    26   22   24 2
    27   22   25 am
    28   25   26 1
    29   26   27 1
    30   27   28 1
    31   28   29 1
    32   31   32 1
    33   32   33 1
    34   33   34 1
    35   34   35 1
    36    3   36 1
    37    4   37 1
    38    6   38 1
    39    7   39 1
    40    7   40 1
    41    8   41 1
    42    8   42 1
    43    8   43 1
    44   12   44 1
    45   12   45 1
    46   13   46 1
    47   14   47 1
    48   14   48 1
    49   14   49 1
    50   15   50 1
    51   15   51 1
    52   15   52 1
    53   16   53 1
    54   17   54 1
    55   18   55 1
    56   18   56 1
    57   18   57 1
    58   19   58 1
    59   19   59 1
    60   20   60 1
    61   21   61 1
    62   23   62 1
    63   23   63 1
    64   23   64 1
    65   25   65 1
    66   26   66 1
    67   26   67 1
    68   27   68 1
    69   27   69 1
    70   28   70 1
    71   28   71 1
    72   29   72 1
    73   29   73 1
    74   29   74 1
    75   31   75 1
    76   31   76 1
    77   32   77 1
    78   32   78 1
    79   33   79 1
    80   33   80 1
    81   35   81 1
    82   35   82 1
    83   35   83 1
@<TRIPOS>PROPERTY_DATA
  Total_Score	| 9.7365
  Crash		| -4.3567
  Polar		| 4.7714
  FragIndex	| 1
  FragRMSD	| 1.163

