@<TRIPOS>MOLECULE
BindingDB_50298196
 80 80 0 0 0
SMALL
NO_CHARGES


@<TRIPOS>ATOM
1    C        83.3744   22.0503  -35.0761  C     
2    C        83.4707   21.7392  -33.6993  C     
3    C        83.4296   20.3840  -33.3118  C     
4    C        83.3021   19.3665  -34.2731  C     
5    C        83.2003   19.6613  -35.6553  C     
6    C        83.2487   21.0220  -36.0383  C     
7    O        83.4088   23.3551  -35.4708  O     
8    C        83.1174   18.6469  -36.6155  C     
9    N        82.3930   18.6522  -37.7593  N     
10   C        82.5777   17.5880  -38.7519  C     
11   C        81.2102   19.5169  -37.9045  C     
12   C        81.1898   20.3521  -39.2231  C     
13   C        79.9008   18.6904  -37.7239  C     
14   C        84.0178   17.0659  -39.0781  C     
15   C        83.9804   15.9903  -40.2190  C     
16   N        84.9563   18.1543  -39.3997  N     
17   C        85.0818   14.8957  -40.0762  C     
18   O        84.0426   16.6044  -41.5044  O     
19   C        85.0847   13.7979  -41.1888  C     
20   C        83.7485   13.2513  -41.4333  C     
21   C        86.0962   12.6640  -40.8422  C     
22   O        83.1511   12.7304  -40.4973  O     
23   N        83.1555   13.4337  -42.6119  N     
24   C        81.8125   13.0625  -42.9492  C     
25   C        80.7551   13.8027  -42.0888  C     
26   C        79.4041   13.0531  -41.9294  C     
27   C        78.4296   13.2070  -43.1113  C     
28   O        83.7973   17.6598  -36.3349  O     
29   C        84.6614   23.7652  -36.0532  C     
30   C        85.6510   24.0012  -34.8926  C     
31   C        86.9707   24.6605  -35.3502  C     
32   O        86.6644   25.7953  -36.1777  O     
33   C        87.7185   26.1556  -37.0794  C     
34   C        83.6460   22.8042  -32.6832  C     
35   H        83.5158   20.1198  -32.3316  H     
36   H        83.2920   18.3926  -33.9608  H     
37   H        83.2197   21.2851  -37.0282  H     
38   H        81.9950   16.7326  -38.3914  H     
39   H        82.1313   17.8764  -39.7040  H     
40   H        81.1524   20.2650  -37.1050  H     
41   H        82.1836   20.7568  -39.4236  H     
42   H        80.4886   21.1846  -39.1373  H     
43   H        80.8805   19.7462  -40.0739  H     
44   H        79.7305   18.0330  -38.5735  H     
45   H        79.0372   19.3504  -37.6207  H     
46   H        79.9722   18.0806  -36.8199  H     
47   H        84.4112   16.5873  -38.1833  H     
48   H        83.0233   15.4665  -40.1843  H     
49   H        84.6628   18.6283  -40.2555  H     
50   H        85.9036   17.7865  -39.5362  H     
51   H        84.9922   18.8322  -38.6397  H     
52   H        86.0622   15.3795  -40.0594  H     
53   H        84.9450   14.4000  -39.1059  H     
54   H        83.4089   17.3544  -41.4706  H     
55   H        85.4590   14.2705  -42.1043  H     
56   H        87.1102   13.0674  -40.7758  H     
57   H        86.0913   11.8906  -41.6116  H     
58   H        85.8425   12.2040  -39.8836  H     
59   H        83.6737   13.8695  -43.3077  H     
60   H        81.6527   13.3169  -43.9999  H     
61   H        81.7118   11.9817  -42.8473  H     
62   H        81.1586   13.9440  -41.0861  H     
63   H        80.5735   14.7953  -42.5091  H     
64   H        79.6080   11.9917  -41.7774  H     
65   H        78.9017   13.4231  -41.0307  H     
66   H        78.1586   14.2549  -43.2476  H     
67   H        77.5187   12.6385  -42.8982  H     
68   H        78.8704   12.8245  -44.0305  H     
69   H        85.0826   23.0062  -36.7272  H     
70   H        84.5098   24.6904  -36.6158  H     
71   H        85.1816   24.6250  -34.1275  H     
72   H        85.8791   23.0256  -34.4486  H     
73   H        87.5382   24.9823  -34.4697  H     
74   H        87.5664   23.9220  -35.8974  H     
75   H        88.6213   26.4411  -36.5346  H     
76   H        87.3917   26.9980  -37.6764  H     
77   H        87.9391   25.3320  -37.7601  H     
78   H        84.5714   23.3485  -32.8756  H     
79   H        83.6978   22.4064  -31.6689  H     
80   H        82.8099   23.5021  -32.7306  H     
@<TRIPOS>BOND
     1    1    2 2
     2    1    6 1
     3    1    7 1
     4    2    3 1
     5    2   34 1
     6    3    4 2
     7    4    5 1
     8    5    6 2
     9    5    8 1
    10    7   29 1
    11    8    9 am
    12    8   28 2
    13    9   10 1
    14    9   11 1
    15   10   14 1
    16   11   12 1
    17   11   13 1
    18   14   15 1
    19   14   16 1
    20   15   17 1
    21   15   18 1
    22   17   19 1
    23   19   20 1
    24   19   21 1
    25   20   22 2
    26   20   23 am
    27   23   24 1
    28   24   25 1
    29   25   26 1
    30   26   27 1
    31   29   30 1
    32   30   31 1
    33   31   32 1
    34   32   33 1
    35    3   35 1
    36    4   36 1
    37    6   37 1
    38   10   38 1
    39   10   39 1
    40   11   40 1
    41   12   41 1
    42   12   42 1
    43   12   43 1
    44   13   44 1
    45   13   45 1
    46   13   46 1
    47   14   47 1
    48   15   48 1
    49   16   49 1
    50   16   50 1
    51   16   51 1
    52   17   52 1
    53   17   53 1
    54   18   54 1
    55   19   55 1
    56   21   56 1
    57   21   57 1
    58   21   58 1
    59   23   59 1
    60   24   60 1
    61   24   61 1
    62   25   62 1
    63   25   63 1
    64   26   64 1
    65   26   65 1
    66   27   66 1
    67   27   67 1
    68   27   68 1
    69   29   69 1
    70   29   70 1
    71   30   71 1
    72   30   72 1
    73   31   73 1
    74   31   74 1
    75   33   75 1
    76   33   76 1
    77   33   77 1
    78   34   78 1
    79   34   79 1
    80   34   80 1
@<TRIPOS>PROPERTY_DATA
  Total_Score	| 14.3771
  Crash		| -3.3250
  Polar		| 8.2757
  FragIndex	| 1
  FragRMSD	| 0.459

