@<TRIPOS>MOLECULE
BindingDB_50298198
 77 77 0 0 0
SMALL
NO_CHARGES


@<TRIPOS>ATOM
1    C        83.8790   21.0998  -34.1709  C     
2    C        82.6885   21.2694  -33.4082  C     
3    C        81.5805   20.4405  -33.6431  C     
4    C        81.5950   19.4999  -34.6767  C     
5    C        82.7717   19.3104  -35.4465  C     
6    C        83.9015   20.0992  -35.1705  C     
7    Br       82.5748   22.4928  -32.0077  Br    
8    O        84.9877   21.8758  -33.9381  O     
9    C        82.7831   18.4197  -36.4904  C     
10   N        82.6188   18.6947  -37.8107  N     
11   C        82.6617   17.5821  -38.7711  C     
12   C        82.3651   20.0264  -38.4074  C     
13   C        80.8545   20.2154  -38.7138  C     
14   C        82.8726   21.3487  -37.7521  C     
15   C        84.0742   16.9997  -39.0884  C     
16   C        84.0205   15.9092  -40.2123  C     
17   N        85.0293   18.0588  -39.4497  N     
18   C        85.2122   14.9188  -40.1412  C     
19   O        83.9467   16.5056  -41.5041  O     
20   C        85.2137   13.7726  -41.1939  C     
21   C        83.8791   13.2353  -41.4520  C     
22   C        86.1784   12.6253  -40.7799  C     
23   O        83.2549   12.7135  -40.5364  O     
24   N        83.3352   13.3909  -42.6532  N     
25   C        82.0578   12.9236  -43.0910  C     
26   C        80.8724   13.5690  -42.3276  C     
27   C        79.5611   12.7724  -42.5462  C     
28   C        78.3137   13.4923  -41.9900  C     
29   O        82.9386   17.2704  -36.0829  O     
30   C        85.4103   22.6981  -35.0456  C     
31   C        84.5575   23.9767  -35.2447  C     
32   C        84.9749   24.8504  -36.4426  C     
33   O        86.0778   25.7285  -36.1790  O     
34   C        87.4045   25.2494  -36.4371  C     
35   H        80.7364   20.5538  -33.0742  H     
36   H        80.7780   18.9103  -34.8146  H     
37   H        84.7734   19.9429  -35.6870  H     
38   H        82.0210   16.7819  -38.3823  H     
39   H        82.2177   17.8611  -39.7341  H     
40   H        82.8929   20.0197  -39.3773  H     
41   H        80.4043   19.3332  -39.1771  H     
42   H        80.7254   21.0477  -39.4041  H     
43   H        80.2864   20.4253  -37.8074  H     
44   H        82.2262   21.6584  -36.9086  H     
45   H        82.8504   22.1592  -38.4838  H     
46   H        83.8949   21.2449  -37.3915  H     
47   H        84.4609   16.5441  -38.1770  H     
48   H        83.1099   15.3291  -40.0817  H     
49   H        84.7623   18.5101  -40.3246  H     
50   H        85.9735   17.6750  -39.5449  H     
51   H        85.0553   18.7702  -38.7186  H     
52   H        86.1410   15.4816  -40.2570  H     
53   H        85.2221   14.4758  -39.1426  H     
54   H        83.3603   17.2902  -41.4347  H     
55   H        85.6207   14.1859  -42.1237  H     
56   H        87.1941   13.0020  -40.6727  H     
57   H        86.1865   11.8333  -41.5313  H     
58   H        85.8733   12.1868  -39.8256  H     
59   H        83.8733   13.8345  -43.3305  H     
60   H        81.9632   13.1731  -44.1460  H     
61   H        82.0132   11.8330  -42.9939  H     
62   H        81.0958   13.5959  -41.2590  H     
63   H        80.7348   14.5994  -42.6716  H     
64   H        79.4106   12.6044  -43.6200  H     
65   H        79.6370   11.7959  -42.0580  H     
66   H        78.4080   13.6328  -40.9098  H     
67   H        77.4266   12.8850  -42.1894  H     
68   H        78.1902   14.4665  -42.4676  H     
69   H        86.4350   22.9912  -34.8263  H     
70   H        85.4289   22.1470  -35.9802  H     
71   H        83.5313   23.6621  -35.4100  H     
72   H        84.5979   24.5618  -34.3143  H     
73   H        85.1512   24.2361  -37.3290  H     
74   H        84.1423   25.5126  -36.6852  H     
75   H        87.7461   24.5916  -35.6421  H     
76   H        88.0825   26.1119  -36.4595  H     
77   H        87.4847   24.7316  -37.3935  H     
@<TRIPOS>BOND
     1    1    2 2
     2    1    6 1
     3    1    8 1
     4    2    3 1
     5    2    7 1
     6    3    4 2
     7    4    5 1
     8    5    6 2
     9    5    9 1
    10    8   30 1
    11    9   10 am
    12    9   29 2
    13   10   11 1
    14   10   12 1
    15   11   15 1
    16   12   13 1
    17   12   14 1
    18   15   16 1
    19   15   17 1
    20   16   18 1
    21   16   19 1
    22   18   20 1
    23   20   21 1
    24   20   22 1
    25   21   23 2
    26   21   24 am
    27   24   25 1
    28   25   26 1
    29   26   27 1
    30   27   28 1
    31   30   31 1
    32   31   32 1
    33   32   33 1
    34   33   34 1
    35    3   35 1
    36    4   36 1
    37    6   37 1
    38   11   38 1
    39   11   39 1
    40   12   40 1
    41   13   41 1
    42   13   42 1
    43   13   43 1
    44   14   44 1
    45   14   45 1
    46   14   46 1
    47   15   47 1
    48   16   48 1
    49   17   49 1
    50   17   50 1
    51   17   51 1
    52   18   52 1
    53   18   53 1
    54   19   54 1
    55   20   55 1
    56   22   56 1
    57   22   57 1
    58   22   58 1
    59   24   59 1
    60   25   60 1
    61   25   61 1
    62   26   62 1
    63   26   63 1
    64   27   64 1
    65   27   65 1
    66   28   66 1
    67   28   67 1
    68   28   68 1
    69   30   69 1
    70   30   70 1
    71   31   71 1
    72   31   72 1
    73   32   73 1
    74   32   74 1
    75   34   75 1
    76   34   76 1
    77   34   77 1
@<TRIPOS>PROPERTY_DATA
  Total_Score	| 14.5198
  Crash		| -2.4393
  Polar		| 8.5924
  FragIndex	| 1
  FragRMSD	| 0.494

