@<TRIPOS>MOLECULE
BindingDB_50298188
 81 81 0 0 0
SMALL
NO_CHARGES


@<TRIPOS>ATOM
1    C        83.7220   22.3016  -31.2520  C     
2    C        82.6626   21.4670  -30.8364  C     
3    C        82.1842   20.4564  -31.6948  C     
4    C        82.7526   20.2445  -32.9775  C     
5    C        83.8171   21.1011  -33.3568  C     
6    C        84.2665   22.1479  -32.5405  C     
7    O        85.2613   22.9530  -33.0186  O     
8    C        84.8371   23.8317  -34.0840  C     
9    C        86.0196   24.0979  -35.0426  C     
10   C        85.6274   24.9518  -36.2784  C     
11   O        86.5158   26.0407  -36.5317  O     
12   O        84.1926   23.2919  -30.4277  O     
13   C        85.3514   22.8888  -29.6818  C     
14   C        82.2970   19.2515  -33.8542  C     
15   O        81.3513   18.5326  -33.5114  O     
16   N        82.8294   19.0764  -35.0651  N     
17   C        82.4929   18.0725  -36.0285  C     
18   C        83.6069   18.0004  -37.1422  C     
19   C        81.0368   18.2756  -36.5813  C     
20   N        80.9264   19.0470  -37.8520  N     
21   C        80.9859   20.5376  -37.8671  C     
22   C        81.8627   21.2015  -36.7762  C     
23   C        81.4962   20.9721  -39.2744  C     
24   C        83.6118   16.6208  -37.8952  C     
25   O        84.8932   18.1956  -36.5416  O     
26   C        83.7395   16.6595  -39.4615  C     
27   C        83.3172   15.4197  -40.1105  C     
28   C        85.1832   17.0541  -39.9113  C     
29   O        83.0257   14.4274  -39.4468  O     
30   N        83.2147   15.3782  -41.4336  N     
31   C        82.7940   14.2554  -42.2178  C     
32   C        83.8369   13.1135  -42.3222  C     
33   C        85.3326   13.5581  -42.2532  C     
34   C        86.1531   12.7902  -41.1903  C     
35   C        87.8867   25.7115  -36.8047  C     
36   H        82.2376   21.5965  -29.9151  H     
37   H        81.4120   19.8676  -31.3584  H     
38   H        84.2780   20.9990  -34.2591  H     
39   H        84.0185   23.4131  -34.6842  H     
40   H        84.4922   24.7788  -33.6507  H     
41   H        86.8153   24.6038  -34.4874  H     
42   H        86.4188   23.1368  -35.3885  H     
43   H        85.5313   24.3118  -37.1639  H     
44   H        84.6446   25.4044  -36.1090  H     
45   H        85.1431   22.0218  -29.0476  H     
46   H        85.6275   23.7229  -29.0390  H     
47   H        86.2000   22.6669  -30.3356  H     
48   H        83.5636   19.6487  -35.3138  H     
49   H        82.5418   17.1156  -35.5021  H     
50   H        83.4346   18.8208  -37.8337  H     
51   H        80.6357   17.2795  -36.7902  H     
52   H        80.3847   18.7043  -35.8143  H     
53   H        81.6349   18.6920  -38.4939  H     
54   H        79.9994   18.8053  -38.2426  H     
55   H        79.9638   20.9199  -37.7497  H     
56   H        81.4418   21.0081  -35.7908  H     
57   H        81.8973   22.2909  -36.9188  H     
58   H        82.8882   20.8185  -36.8113  H     
59   H        82.5539   20.7176  -39.4008  H     
60   H        81.3797   22.0503  -39.4097  H     
61   H        80.9275   20.4625  -40.0571  H     
62   H        84.4138   15.9917  -37.4942  H     
63   H        82.6860   16.1038  -37.6700  H     
64   H        85.4310   18.6347  -37.2383  H     
65   H        83.0593   17.4345  -39.8133  H     
66   H        85.5115   17.9796  -39.4261  H     
67   H        85.2214   17.2222  -40.9912  H     
68   H        85.8995   16.2631  -39.6548  H     
69   H        83.4419   16.1893  -41.9178  H     
70   H        81.8593   13.8600  -41.8044  H     
71   H        82.5714   14.6206  -43.2277  H     
72   H        83.6258   12.3843  -41.5295  H     
73   H        83.6728   12.5778  -43.2677  H     
74   H        85.7969   13.4117  -43.2392  H     
75   H        85.4162   14.6250  -42.0215  H     
76   H        85.7599   12.9899  -40.1933  H     
77   H        87.1938   13.1173  -41.2191  H     
78   H        86.1129   11.7187  -41.3774  H     
79   H        88.3513   25.2397  -35.9404  H     
80   H        88.4190   26.6417  -37.0192  H     
81   H        87.9704   25.0548  -37.6703  H     
@<TRIPOS>BOND
     1    1    2 2
     2    1    6 1
     3    1   12 1
     4    2    3 1
     5    3    4 2
     6    4    5 1
     7    4   14 1
     8    5    6 2
     9    6    7 1
    10    7    8 1
    11    8    9 1
    12    9   10 1
    13   10   11 1
    14   11   35 1
    15   12   13 1
    16   14   15 2
    17   14   16 am
    18   17   16 1
    19   17   18 1
    20   17   19 1
    21   18   24 1
    22   18   25 1
    23   19   20 1
    24   20   21 1
    25   21   22 1
    26   21   23 1
    27   24   26 1
    28   26   27 1
    29   26   28 1
    30   27   29 2
    31   27   30 am
    32   30   31 1
    33   31   32 1
    34   32   33 1
    35   33   34 1
    36    2   36 1
    37    3   37 1
    38    5   38 1
    39    8   39 1
    40    8   40 1
    41    9   41 1
    42    9   42 1
    43   10   43 1
    44   10   44 1
    45   13   45 1
    46   13   46 1
    47   13   47 1
    48   16   48 1
    49   17   49 1
    50   18   50 1
    51   19   51 1
    52   19   52 1
    53   20   53 1
    54   20   54 1
    55   21   55 1
    56   22   56 1
    57   22   57 1
    58   22   58 1
    59   23   59 1
    60   23   60 1
    61   23   61 1
    62   24   62 1
    63   24   63 1
    64   25   64 1
    65   26   65 1
    66   28   66 1
    67   28   67 1
    68   28   68 1
    69   30   69 1
    70   31   70 1
    71   31   71 1
    72   32   72 1
    73   32   73 1
    74   33   74 1
    75   33   75 1
    76   34   76 1
    77   34   77 1
    78   34   78 1
    79   35   79 1
    80   35   80 1
    81   35   81 1
@<TRIPOS>PROPERTY_DATA
  Total_Score	| 9.7038
  Crash		| -3.2074
  Polar		| 5.0767
  FragIndex	| 1
  FragRMSD	| 0.802

