@<TRIPOS>MOLECULE
BindingDB_50330342
 81 83 0 0 0
SMALL
NO_CHARGES


@<TRIPOS>ATOM
1    C        86.3521   13.9770  -41.3944  C     
2    C        87.2074   15.1626  -40.8619  C     
3    C        84.8224   14.3052  -41.3867  C     
4    C        86.6715   12.6391  -40.6756  C     
5    C        84.2182   14.8716  -40.0545  C     
6    C        83.8923   16.4045  -40.0805  C     
7    O        83.0297   14.1343  -39.7390  O     
8    O        84.8675   17.1221  -40.8388  O     
9    C        83.7426   17.0252  -38.6497  C     
10   N        85.0286   17.1423  -37.9849  N     
11   C        82.9809   18.3854  -38.6634  C     
12   C        82.5500   18.9453  -37.2594  C     
13   C        85.2124   17.1504  -36.6659  C     
14   C        86.4417   17.2914  -36.0475  C     
15   O        84.2511   17.0938  -35.9029  O     
16   C        81.8518   20.3390  -37.3648  C     
17   C        80.3639   20.2686  -37.8208  C     
18   C        79.5386   19.2903  -36.9393  C     
19   C        80.2040   17.8929  -36.8768  C     
20   C        81.6721   17.9833  -36.3780  C     
21   C        87.4265   16.2709  -36.1623  C     
22   C        88.5829   16.3206  -35.3450  C     
23   C        88.7886   17.3867  -34.4563  C     
24   C        87.8370   18.4018  -34.3591  C     
25   C        86.6417   18.3402  -35.1098  C     
26   O        87.2240   15.1768  -36.9739  O     
27   C        88.3576   14.8472  -37.8018  C     
28   O        85.7222   19.3389  -34.9282  O     
29   C        84.9026   19.1950  -33.7484  C     
30   C        84.1428   20.5174  -33.4982  C     
31   C        85.0809   21.7533  -33.3075  C     
32   C        84.7812   22.8555  -34.2591  C     
33   C        85.4992   23.0037  -35.4713  C     
34   C        85.1616   24.0207  -36.3815  C     
35   C        84.1002   24.8882  -36.0693  C     
36   N        83.4201   24.7299  -34.9046  N     
37   C        83.7257   23.7592  -34.0077  C     
38   H        86.6483   13.8246  -42.4409  H     
39   H        87.1142   16.0246  -41.5292  H     
40   H        88.2600   14.8872  -40.8081  H     
41   H        86.8983   15.4560  -39.8570  H     
42   H        84.6375   15.0129  -42.1923  H     
43   H        84.2869   13.3970  -41.6742  H     
44   H        87.7447   12.4409  -40.6809  H     
45   H        86.1748   11.8145  -41.1857  H     
46   H        86.3273   12.6527  -39.6442  H     
47   H        84.8946   14.6716  -39.2220  H     
48   H        82.9506   16.5122  -40.6247  H     
49   H        82.4433   14.2332  -40.5173  H     
50   H        84.4380   17.9607  -41.1150  H     
51   H        83.0960   16.3243  -38.1168  H     
52   H        85.8127   17.2983  -38.5453  H     
53   H        83.6262   19.1230  -39.1550  H     
54   H        82.0863   18.2758  -39.2784  H     
55   H        83.4858   19.1199  -36.7140  H     
56   H        81.8757   20.8234  -36.3812  H     
57   H        82.4035   20.9861  -38.0605  H     
58   H        79.9316   21.2676  -37.7432  H     
59   H        80.3110   19.9519  -38.8702  H     
60   H        79.4616   19.7057  -35.9270  H     
61   H        78.5268   19.1970  -37.3511  H     
62   H        79.6410   17.2582  -36.1832  H     
63   H        80.1670   17.4117  -37.8667  H     
64   H        82.0966   16.9687  -36.3344  H     
65   H        81.6634   18.3773  -35.3533  H     
66   H        89.2736   15.5722  -35.3709  H     
67   H        89.6223   17.4007  -33.8629  H     
68   H        87.9844   19.1648  -33.6975  H     
69   H        88.6080   15.6779  -38.4743  H     
70   H        88.1056   13.9815  -38.4073  H     
71   H        89.2391   14.5703  -37.2194  H     
72   H        84.1801   18.3932  -33.8994  H     
73   H        85.4903   18.9561  -32.8569  H     
74   H        83.4645   20.6679  -34.3407  H     
75   H        83.5170   20.3974  -32.6082  H     
76   H        84.9859   22.1321  -32.2849  H     
77   H        86.1278   21.4558  -33.4121  H     
78   H        86.2621   22.3647  -35.7022  H     
79   H        85.6760   24.1249  -37.2606  H     
80   H        83.8340   25.6326  -36.7156  H     
81   H        83.1759   23.6881  -33.1478  H     
@<TRIPOS>BOND
     1    1    2 1
     2    1    3 1
     3    1    4 1
     4    3    5 1
     5    5    6 1
     6    5    7 1
     7    6    8 1
     8    6    9 1
     9    9   10 1
    10    9   11 1
    11   10   13 am
    12   11   12 1
    13   12   16 1
    14   12   20 1
    15   13   14 1
    16   13   15 2
    17   14   21 2
    18   14   25 1
    19   16   17 1
    20   17   18 1
    21   18   19 1
    22   19   20 1
    23   21   22 1
    24   21   26 1
    25   22   23 2
    26   23   24 1
    27   24   25 2
    28   25   28 1
    29   26   27 1
    30   28   29 1
    31   29   30 1
    32   30   31 1
    33   31   32 1
    34   32   33 2
    35   32   37 1
    36   33   34 1
    37   34   35 2
    38   35   36 1
    39   36   37 2
    40    1   38 1
    41    2   39 1
    42    2   40 1
    43    2   41 1
    44    3   42 1
    45    3   43 1
    46    4   44 1
    47    4   45 1
    48    4   46 1
    49    5   47 1
    50    6   48 1
    51    7   49 1
    52    8   50 1
    53    9   51 1
    54   10   52 1
    55   11   53 1
    56   11   54 1
    57   12   55 1
    58   16   56 1
    59   16   57 1
    60   17   58 1
    61   17   59 1
    62   18   60 1
    63   18   61 1
    64   19   62 1
    65   19   63 1
    66   20   64 1
    67   20   65 1
    68   22   66 1
    69   23   67 1
    70   24   68 1
    71   27   69 1
    72   27   70 1
    73   27   71 1
    74   29   72 1
    75   29   73 1
    76   30   74 1
    77   30   75 1
    78   31   76 1
    79   31   77 1
    80   33   78 1
    81   34   79 1
    82   35   80 1
    83   37   81 1
@<TRIPOS>PROPERTY_DATA
  Total_Score	| 11.2838
  Crash		| -3.3692
  Polar		| 4.4813
  FragIndex	| 1
  FragRMSD	| 0.849

