@<TRIPOS>MOLECULE
BindingDB_50298191
 81 81 0 0 0
SMALL
NO_CHARGES


@<TRIPOS>ATOM
1    C        83.0470   21.5733  -34.1507  C     
2    C        83.0962   21.2473  -32.7760  C     
3    C        83.0870   19.8937  -32.3862  C     
4    C        83.0652   18.8713  -33.3468  C     
5    C        83.1166   19.1854  -34.7243  C     
6    C        83.0882   20.5422  -35.1124  C     
7    O        83.0599   22.2294  -31.8239  O     
8    C        84.2754   22.3258  -31.0608  C     
9    O        82.7360   22.8315  -34.5701  O     
10   C        83.7856   23.8165  -34.6655  C     
11   C        84.5564   23.7944  -36.0188  C     
12   C        86.0424   23.3636  -35.8866  C     
13   O        86.7434   23.9926  -34.7882  O     
14   C        87.5024   25.1726  -35.0980  C     
15   C        83.0206   18.1935  -35.6850  C     
16   N        84.0240   17.6382  -36.4232  N     
17   C        83.6488   16.8542  -37.6192  C     
18   C        85.4733   17.7351  -36.1090  C     
19   C        85.9677   18.4515  -34.8157  C     
20   C        86.1841   16.3407  -36.1332  C     
21   C        84.4281   17.1733  -38.9350  C     
22   C        84.1706   16.1232  -40.0750  C     
23   N        84.0913   18.5361  -39.3703  N     
24   C        85.1529   14.9080  -39.9910  C     
25   O        84.2937   16.7342  -41.3656  O     
26   C        85.0829   13.8699  -41.1571  C     
27   C        83.7303   13.3698  -41.3849  C     
28   C        86.0686   12.6917  -40.9031  C     
29   O        83.1297   12.8321  -40.4619  O     
30   N        83.1771   13.4976  -42.5852  N     
31   C        81.8741   13.0547  -42.9864  C     
32   C        80.7316   13.8763  -42.3358  C     
33   C        79.3530   13.7409  -43.0381  C     
34   C        78.3998   12.7275  -42.3681  C     
35   O        81.8362   17.9402  -35.9001  O     
36   H        83.0683   19.6493  -31.3933  H     
37   H        83.0323   17.9040  -33.0314  H     
38   H        83.0276   20.7950  -36.1085  H     
39   H        84.5039   21.3988  -30.5322  H     
40   H        84.1569   23.1059  -30.3111  H     
41   H        85.1276   22.5908  -31.6908  H     
42   H        83.2800   24.7876  -34.5933  H     
43   H        84.4694   23.7578  -33.8148  H     
44   H        84.0354   23.1104  -36.7031  H     
45   H        84.5168   24.7903  -36.4758  H     
46   H        86.0777   22.2875  -35.6983  H     
47   H        86.5509   23.5434  -36.8392  H     
48   H        88.3162   24.9382  -35.7915  H     
49   H        87.9381   25.5479  -34.1685  H     
50   H        86.8745   25.9620  -35.5238  H     
51   H        83.7769   15.8069  -37.3634  H     
52   H        82.5949   16.9316  -37.8878  H     
53   H        85.9236   18.3275  -36.9071  H     
54   H        85.5851   19.4722  -34.7733  H     
55   H        87.0592   18.5240  -34.7993  H     
56   H        85.6521   17.9023  -33.9299  H     
57   H        85.6370   15.6235  -35.5241  H     
58   H        87.2065   16.3899  -35.7650  H     
59   H        86.2430   15.9549  -37.1494  H     
60   H        85.5043   17.1721  -38.7415  H     
61   H        83.1435   15.7563  -39.9936  H     
62   H        83.0790   18.6329  -39.4690  H     
63   H        84.5479   18.7463  -40.2600  H     
64   H        84.4306   19.2037  -38.6760  H     
65   H        86.1704   15.3062  -39.9584  H     
66   H        84.9796   14.3771  -39.0541  H     
67   H        83.5466   17.3695  -41.4402  H     
68   H        85.4434   14.3746  -42.0595  H     
69   H        87.0920   13.0605  -40.8095  H     
70   H        86.0429   11.9872  -41.7362  H     
71   H        85.8123   12.1539  -39.9870  H     
72   H        83.7100   13.9251  -43.2712  H     
73   H        81.8180   13.1691  -44.0709  H     
74   H        81.7594   11.9914  -42.7532  H     
75   H        80.6279   13.5788  -41.2911  H     
76   H        81.0212   14.9327  -42.3497  H     
77   H        78.8717   14.7200  -43.0319  H     
78   H        79.5055   13.4537  -44.0825  H     
79   H        78.7802   11.7096  -42.4818  H     
80   H        77.4192   12.7888  -42.8411  H     
81   H        78.2905   12.9528  -41.3046  H     
@<TRIPOS>BOND
     1    1    2 2
     2    1    6 1
     3    1    9 1
     4    2    3 1
     5    2    7 1
     6    3    4 2
     7    4    5 1
     8    5    6 2
     9    5   15 1
    10    7    8 1
    11    9   10 1
    12   10   11 1
    13   11   12 1
    14   12   13 1
    15   13   14 1
    16   15   16 am
    17   15   35 2
    18   16   17 1
    19   16   18 1
    20   17   21 1
    21   18   19 1
    22   18   20 1
    23   21   22 1
    24   21   23 1
    25   22   24 1
    26   22   25 1
    27   24   26 1
    28   26   27 1
    29   26   28 1
    30   27   29 2
    31   27   30 am
    32   30   31 1
    33   31   32 1
    34   32   33 1
    35   33   34 1
    36    3   36 1
    37    4   37 1
    38    6   38 1
    39    8   39 1
    40    8   40 1
    41    8   41 1
    42   10   42 1
    43   10   43 1
    44   11   44 1
    45   11   45 1
    46   12   46 1
    47   12   47 1
    48   14   48 1
    49   14   49 1
    50   14   50 1
    51   17   51 1
    52   17   52 1
    53   18   53 1
    54   19   54 1
    55   19   55 1
    56   19   56 1
    57   20   57 1
    58   20   58 1
    59   20   59 1
    60   21   60 1
    61   22   61 1
    62   23   62 1
    63   23   63 1
    64   23   64 1
    65   24   65 1
    66   24   66 1
    67   25   67 1
    68   26   68 1
    69   28   69 1
    70   28   70 1
    71   28   71 1
    72   30   72 1
    73   31   73 1
    74   31   74 1
    75   32   75 1
    76   32   76 1
    77   33   77 1
    78   33   78 1
    79   34   79 1
    80   34   80 1
    81   34   81 1
@<TRIPOS>PROPERTY_DATA
  Total_Score	| 13.3608
  Crash		| -2.0870
  Polar		| 6.9301
  FragIndex	| 1
  FragRMSD	| 0.550

