@<TRIPOS>MOLECULE
BindingDB_17947
 77 77 0 0 0
SMALL
NO_CHARGES


@<TRIPOS>ATOM
1    C        83.4283   21.5183  -33.0027  C     
2    C        83.5550   22.4506  -31.9470  C     
3    C        82.7345   22.3726  -30.8113  C     
4    C        81.7978   21.3353  -30.7130  C     
5    C        81.7010   20.3776  -31.7380  C     
6    C        82.5096   20.4271  -32.9136  C     
7    O        84.2576   21.6846  -34.0769  O     
8    C        83.8318   22.6953  -35.0182  C     
9    C        84.7564   23.9302  -34.9237  C     
10   C        84.4107   25.0300  -35.9639  C     
11   O        85.5680   25.8167  -36.3160  O     
12   C        86.3378   25.3233  -37.4250  C     
13   C        82.3889   19.4080  -33.8870  C     
14   O        81.5361   18.5421  -33.7254  O     
15   N        83.1404   19.3330  -34.9857  N     
16   C        83.1429   18.2972  -35.9886  C     
17   C        82.7295   18.7916  -37.4142  C     
18   C        82.6706   17.6455  -38.4869  C     
19   C        81.3580   19.5331  -37.3590  C     
20   C        84.0319   17.0156  -38.9327  C     
21   C        83.8461   15.8285  -39.9450  C     
22   C        85.0572   14.8472  -39.9538  C     
23   C        85.0988   13.7941  -41.1139  C     
24   C        86.1210   12.6691  -40.7921  C     
25   C        83.7903   13.2334  -41.4265  C     
26   O        83.1401   12.7146  -40.5285  O     
27   N        83.2881   13.3662  -42.6484  N     
28   C        81.9637   13.0324  -43.0767  C     
29   C        80.8882   13.8632  -42.3275  C     
30   C        79.4546   13.7377  -42.9122  C     
31   C        78.5021   12.8547  -42.0744  C     
32   O        83.5718   16.3076  -41.2649  O     
33   N        84.9318   18.0365  -39.4993  N     
34   H        84.2350   23.2075  -32.0071  H     
35   H        82.8166   23.0661  -30.0584  H     
36   H        81.1949   21.2659  -29.8866  H     
37   H        81.0083   19.6358  -31.6006  H     
38   H        83.9535   22.2564  -36.0144  H     
39   H        82.7810   23.0033  -34.9163  H     
40   H        84.6650   24.3725  -33.9254  H     
41   H        85.7909   23.6014  -35.0594  H     
42   H        83.9424   24.5985  -36.8610  H     
43   H        83.6819   25.7152  -35.5202  H     
44   H        86.6655   24.2944  -37.2735  H     
45   H        87.2221   25.9540  -37.5286  H     
46   H        85.7573   25.3858  -38.3447  H     
47   H        83.7852   20.0375  -35.1189  H     
48   H        84.1659   17.9206  -36.0149  H     
49   H        82.5085   17.4525  -35.7100  H     
50   H        83.4729   19.5249  -37.7401  H     
51   H        82.0385   16.8424  -38.0987  H     
52   H        82.1828   18.0342  -39.3869  H     
53   H        80.5779   18.8639  -36.9755  H     
54   H        81.0670   19.8788  -38.3599  H     
55   H        81.4211   20.4138  -36.7052  H     
56   H        84.5100   16.6110  -38.0347  H     
57   H        82.9677   15.2576  -39.6368  H     
58   H        85.9815   15.4347  -39.9958  H     
59   H        85.0589   14.3165  -38.9974  H     
60   H        85.4879   14.3173  -41.9967  H     
61   H        87.1157   13.0900  -40.6229  H     
62   H        86.1887   11.9662  -41.6254  H     
63   H        85.8267   12.1176  -39.8976  H     
64   H        83.8640   13.7826  -43.3129  H     
65   H        81.9014   13.2587  -44.1442  H     
66   H        81.7782   11.9560  -42.9506  H     
67   H        80.8796   13.5789  -41.2709  H     
68   H        81.1830   14.9135  -42.3716  H     
69   H        79.0084   14.7352  -42.9725  H     
70   H        79.5006   13.3467  -43.9315  H     
71   H        78.9575   11.8836  -41.8718  H     
72   H        77.5662   12.6958  -42.6161  H     
73   H        78.2719   13.3465  -41.1270  H     
74   H        84.4141   16.6800  -41.5996  H     
75   H        84.5083   18.4571  -40.3319  H     
76   H        85.8346   17.6234  -39.7496  H     
77   H        85.0967   18.7640  -38.8067  H     
@<TRIPOS>BOND
     1    1    2 2
     2    1    6 1
     3    1    7 1
     4    2    3 1
     5    3    4 2
     6    4    5 1
     7    5    6 2
     8    6   13 1
     9    7    8 1
    10    8    9 1
    11    9   10 1
    12   10   11 1
    13   11   12 1
    14   13   14 2
    15   13   15 am
    16   15   16 1
    17   16   17 1
    18   17   18 1
    19   17   19 1
    20   18   20 1
    21   20   21 1
    22   20   33 1
    23   21   22 1
    24   21   32 1
    25   22   23 1
    26   23   24 1
    27   23   25 1
    28   25   26 2
    29   25   27 am
    30   27   28 1
    31   28   29 1
    32   29   30 1
    33   30   31 1
    34    2   34 1
    35    3   35 1
    36    4   36 1
    37    5   37 1
    38    8   38 1
    39    8   39 1
    40    9   40 1
    41    9   41 1
    42   10   42 1
    43   10   43 1
    44   12   44 1
    45   12   45 1
    46   12   46 1
    47   15   47 1
    48   16   48 1
    49   16   49 1
    50   17   50 1
    51   18   51 1
    52   18   52 1
    53   19   53 1
    54   19   54 1
    55   19   55 1
    56   20   56 1
    57   21   57 1
    58   22   58 1
    59   22   59 1
    60   23   60 1
    61   24   61 1
    62   24   62 1
    63   24   63 1
    64   27   64 1
    65   28   65 1
    66   28   66 1
    67   29   67 1
    68   29   68 1
    69   30   69 1
    70   30   70 1
    71   31   71 1
    72   31   72 1
    73   31   73 1
    74   32   74 1
    75   33   75 1
    76   33   76 1
    77   33   77 1
@<TRIPOS>PROPERTY_DATA
  Total_Score	| 13.6821
  Crash		| -1.3995
  Polar		| 7.9299
  FragIndex	| 1
  FragRMSD	| 0.238

