@<TRIPOS>MOLECULE
BindingDB_50298203
 83 83 0 0 0
SMALL
NO_CHARGES


@<TRIPOS>ATOM
1    C        84.5220   21.8578  -34.8095  C     
2    C        83.9953   21.8012  -33.5003  C     
3    C        83.1344   20.7460  -33.1375  C     
4    C        82.8335   19.7235  -34.0563  C     
5    C        83.4062   19.7202  -35.3447  C     
6    C        84.2559   20.7942  -35.6989  C     
7    O        84.4465   22.6534  -32.5364  O     
8    O        85.4081   22.8518  -35.1337  O     
9    C        83.1728   18.5977  -36.2924  C     
10   N        82.8426   19.0260  -37.6984  N     
11   C        82.7386   17.8576  -38.6497  C     
12   C        81.6928   20.0217  -37.7823  C     
13   C        81.6419   20.7543  -39.1552  C     
14   C        80.2908   19.4540  -37.4090  C     
15   C        84.0809   17.1277  -38.9958  C     
16   C        83.8952   15.9933  -40.0544  C     
17   N        85.0988   18.0891  -39.4491  N     
18   C        85.0045   14.8981  -39.9562  C     
19   O        83.8548   16.5276  -41.3822  O     
20   C        85.0570   13.8479  -41.1175  C     
21   C        83.7416   13.2839  -41.4091  C     
22   C        86.0924   12.7306  -40.8173  C     
23   O        83.1072   12.7562  -40.5038  O     
24   N        83.2242   13.4109  -42.6253  N     
25   C        81.9103   13.0273  -43.0392  C     
26   C        80.8138   13.8504  -42.3141  C     
27   C        79.3875   13.6932  -42.9115  C     
28   C        78.4393   12.8322  -42.0538  C     
29   C        85.3749   23.3968  -36.4770  C     
30   C        85.0545   24.9140  -36.5322  C     
31   C        85.7436   25.6710  -37.7151  C     
32   O        87.1552   25.9834  -37.7325  O     
33   C        88.0064   25.7147  -36.6039  C     
34   C        84.1494   24.0364  -32.7857  C     
35   H        82.7384   20.6978  -32.1915  H     
36   H        82.2256   18.9577  -33.7623  H     
37   H        84.7192   20.7900  -36.6031  H     
38   H        84.1061   18.0350  -36.2792  H     
39   H        82.4031   17.9125  -35.9212  H     
40   H        83.6618   19.5508  -38.0081  H     
41   H        82.0353   17.1190  -38.2456  H     
42   H        82.3102   18.1955  -39.5992  H     
43   H        81.8809   20.8230  -37.0631  H     
44   H        82.6458   21.0386  -39.4780  H     
45   H        81.0468   21.6680  -39.0941  H     
46   H        81.1999   20.1281  -39.9205  H     
47   H        79.9683   18.6970  -38.1255  H     
48   H        79.5485   20.2559  -37.3871  H     
49   H        80.3132   19.0108  -36.4126  H     
50   H        84.4607   16.6684  -38.0825  H     
51   H        82.9374   15.4995  -39.8766  H     
52   H        84.7762   18.5499  -40.3099  H     
53   H        85.9875   17.6100  -39.6165  H     
54   H        85.2490   18.7932  -38.7271  H     
55   H        85.9791   15.3903  -39.9033  H     
56   H        84.8583   14.3608  -39.0147  H     
57   H        83.2748   17.3202  -41.3386  H     
58   H        85.4278   14.3778  -42.0006  H     
59   H        87.0816   13.1670  -40.6566  H     
60   H        86.1599   12.0336  -41.6599  H     
61   H        85.8096   12.1692  -39.9230  H     
62   H        83.7772   13.8475  -43.2945  H     
63   H        81.8481   13.2162  -44.1093  H     
64   H        81.7577   11.9580  -42.8864  H     
65   H        80.7873   13.5727  -41.2611  H     
66   H        81.0865   14.9085  -42.3708  H     
67   H        78.9441   14.6895  -43.0059  H     
68   H        79.4483   13.2612  -43.9106  H     
69   H        78.8421   11.8227  -41.9339  H     
70   H        77.4626   12.7715  -42.5393  H     
71   H        78.3109   13.2831  -41.0708  H     
72   H        86.3988   23.2990  -36.8428  H     
73   H        84.7186   22.8423  -37.1633  H     
74   H        83.9725   25.0249  -36.6641  H     
75   H        85.3448   25.3807  -35.5960  H     
76   H        85.5443   25.0997  -38.6201  H     
77   H        85.2299   26.6250  -37.8289  H     
78   H        87.4699   25.8200  -35.6616  H     
79   H        88.8291   26.4304  -36.6188  H     
80   H        88.4316   24.7062  -36.6826  H     
81   H        84.4965   24.3679  -33.7637  H     
82   H        84.6690   24.6361  -32.0324  H     
83   H        83.0723   24.2245  -32.7032  H     
@<TRIPOS>BOND
     1    1    2 2
     2    1    6 1
     3    1    8 1
     4    2    3 1
     5    2    7 1
     6    3    4 2
     7    4    5 1
     8    5    6 2
     9    5    9 1
    10    7   34 1
    11    8   29 1
    12    9   10 1
    13   10   11 1
    14   10   12 1
    15   11   15 1
    16   12   13 1
    17   12   14 1
    18   15   16 1
    19   15   17 1
    20   16   18 1
    21   16   19 1
    22   18   20 1
    23   20   21 1
    24   20   22 1
    25   21   23 2
    26   21   24 am
    27   24   25 1
    28   25   26 1
    29   26   27 1
    30   27   28 1
    31   29   30 1
    32   30   31 1
    33   31   32 1
    34   32   33 1
    35    3   35 1
    36    4   36 1
    37    6   37 1
    38    9   38 1
    39    9   39 1
    40   10   40 1
    41   11   41 1
    42   11   42 1
    43   12   43 1
    44   13   44 1
    45   13   45 1
    46   13   46 1
    47   14   47 1
    48   14   48 1
    49   14   49 1
    50   15   50 1
    51   16   51 1
    52   17   52 1
    53   17   53 1
    54   17   54 1
    55   18   55 1
    56   18   56 1
    57   19   57 1
    58   20   58 1
    59   22   59 1
    60   22   60 1
    61   22   61 1
    62   24   62 1
    63   25   63 1
    64   25   64 1
    65   26   65 1
    66   26   66 1
    67   27   67 1
    68   27   68 1
    69   28   69 1
    70   28   70 1
    71   28   71 1
    72   29   72 1
    73   29   73 1
    74   30   74 1
    75   30   75 1
    76   31   76 1
    77   31   77 1
    78   33   78 1
    79   33   79 1
    80   33   80 1
    81   34   81 1
    82   34   82 1
    83   34   83 1
@<TRIPOS>PROPERTY_DATA
  Total_Score	| 15.6838
  Crash		| -3.4734
  Polar		| 9.1297
  FragIndex	| 1
  FragRMSD	| 0.193

