@<TRIPOS>MOLECULE
BindingDB_50330360
 106 107 0 0 0
SMALL
NO_CHARGES


@<TRIPOS>ATOM
1    C        82.2075   18.6349  -36.0600  C     
2    C        82.7611   19.0698  -37.4605  C     
3    C        82.6889   17.8821  -38.4956  C     
4    C        83.9976   17.1164  -38.8625  C     
5    C        83.6646   15.9183  -39.8109  C     
6    O        83.1136   16.3927  -41.0443  O     
7    N        84.9485   18.0455  -39.5123  N     
8    C        84.8420   14.9276  -40.0945  C     
9    C        84.6699   13.9923  -41.3542  C     
10   C        83.2714   13.5656  -41.5384  C     
11   C        85.6920   12.7936  -41.4561  C     
12   O        82.7193   13.0081  -40.6034  O     
13   N        82.5926   13.8818  -42.6421  N     
14   C        81.1684   13.8597  -42.8093  C     
15   C        80.3840   12.5905  -42.3548  C     
16   C        80.2967   11.3645  -43.3094  C     
17   C        82.0965   20.3689  -38.0703  C     
18   C        80.6884   20.1703  -38.6946  C     
19   C        82.0617   21.6063  -37.1360  C     
20   N        82.5809   19.5242  -34.9944  N     
21   C        82.2664   19.3944  -33.7056  C     
22   C        82.4931   20.3836  -32.7235  C     
23   O        81.6736   18.3696  -33.3843  O     
24   C        83.0684   21.6608  -33.0043  C     
25   C        83.1254   22.6636  -32.0058  C     
26   C        82.6983   22.4040  -30.6966  C     
27   C        82.1985   21.1340  -30.3765  C     
28   C        82.0980   20.1460  -31.3745  C     
29   O        83.5291   22.0219  -34.2411  O     
30   C        84.9635   21.9926  -34.3886  C     
31   C        85.4076   22.8168  -35.6228  C     
32   C        84.6640   24.1783  -35.7470  C     
33   C        85.2320   25.1464  -36.8181  C     
34   O        86.3532   25.9388  -36.3741  O     
35   C        87.6698   25.4234  -36.6211  C     
36   C        87.0212   13.0620  -40.6872  C     
37   C        85.1585   11.3861  -41.0730  C     
38   C        80.0456   11.7328  -44.8017  C     
39   C        79.8424   10.4525  -45.6529  C     
40   N        80.9606    9.5252  -45.4937  N     
41   C        81.2507    9.1387  -44.1162  C     
42   C        81.4923   10.3770  -43.2125  C     
43   C        81.6406    9.0383  -46.5552  C     
44   O        81.2913    9.3273  -47.6976  O     
45   C        82.7914    8.1532  -46.4792  C     
46   H        81.1179   18.5764  -36.1151  H     
47   H        82.5890   17.6411  -35.8077  H     
48   H        83.8158   19.3094  -37.3109  H     
49   H        81.9479   17.1587  -38.1350  H     
50   H        82.2993   18.2578  -39.4477  H     
51   H        84.4554   16.7340  -37.9489  H     
52   H        82.8767   15.3431  -39.3223  H     
53   H        83.8665   16.7638  -41.5483  H     
54   H        84.5307   18.4405  -40.3636  H     
55   H        85.8322   17.5833  -39.7381  H     
56   H        85.1575   18.8019  -38.8648  H     
57   H        85.7327   15.5373  -40.2646  H     
58   H        85.0317   14.3051  -39.2068  H     
59   H        84.9222   14.6388  -42.2036  H     
60   H        85.9695   12.7143  -42.5098  H     
61   H        83.1019   14.3127  -43.3496  H     
62   H        80.7660   14.7155  -42.2555  H     
63   H        80.9603   14.0515  -43.8635  H     
64   H        80.7944   12.2378  -41.4084  H     
65   H        79.3616   12.9053  -42.1294  H     
66   H        79.4090   10.8121  -42.9763  H     
67   H        82.7531   20.6721  -38.8962  H     
68   H        80.6586   19.3301  -39.3890  H     
69   H        80.4404   21.0677  -39.2646  H     
70   H        79.9265   20.0167  -37.9242  H     
71   H        81.3464   21.4791  -36.3219  H     
72   H        81.7626   22.4952  -37.6962  H     
73   H        83.0548   21.7855  -36.7290  H     
74   H        83.0644   20.3171  -35.2571  H     
75   H        83.4952   23.5915  -32.2326  H     
76   H        82.7477   23.1320  -29.9837  H     
77   H        81.8917   20.9356  -29.4233  H     
78   H        81.7154   19.2420  -31.0887  H     
79   H        85.4628   22.4177  -33.5168  H     
80   H        85.2985   20.9591  -34.5021  H     
81   H        86.4834   22.9855  -35.5496  H     
82   H        85.2380   22.2328  -36.5308  H     
83   H        83.6214   23.9718  -35.9995  H     
84   H        84.6643   24.6818  -34.7790  H     
85   H        85.4612   24.6228  -37.7467  H     
86   H        84.4531   25.8712  -37.0575  H     
87   H        87.8624   24.5413  -36.0057  H     
88   H        88.3933   26.1926  -36.3416  H     
89   H        87.8138   25.1823  -37.6774  H     
90   H        87.4493   14.0086  -41.0184  H     
91   H        87.7465   12.2638  -40.8713  H     
92   H        86.8365   13.1318  -39.6138  H     
93   H        84.8897   11.3382  -40.0175  H     
94   H        85.9170   10.6290  -41.2801  H     
95   H        84.2903   11.1209  -41.6792  H     
96   H        79.1575   12.3643  -44.8785  H     
97   H        80.8934   12.2929  -45.1999  H     
98   H        78.9279    9.9468  -45.3303  H     
99   H        79.6788   10.7744  -46.6857  H     
100  H        80.3962    8.5784  -43.7254  H     
101  H        82.1206    8.4885  -44.0074  H     
102  H        82.4192   10.8696  -43.5229  H     
103  H        81.6136   10.0431  -42.1784  H     
104  H        83.5910    8.6408  -45.9166  H     
105  H        83.1914    7.9008  -47.4692  H     
106  H        82.5161    7.2184  -45.9849  H     
@<TRIPOS>BOND
     1    1    2 1
     2    1   20 1
     3    2    3 1
     4    2   17 1
     5    3    4 1
     6    4    5 1
     7    4    7 1
     8    5    6 1
     9    5    8 1
    10    8    9 1
    11    9   10 1
    12    9   11 1
    13   10   12 2
    14   10   13 am
    15   11   36 1
    16   11   37 1
    17   13   14 1
    18   14   15 1
    19   15   16 1
    20   16   38 1
    21   16   42 1
    22   17   18 1
    23   17   19 1
    24   20   21 am
    25   21   22 1
    26   21   23 2
    27   22   24 2
    28   22   28 1
    29   24   25 1
    30   24   29 1
    31   25   26 2
    32   26   27 1
    33   27   28 2
    34   29   30 1
    35   30   31 1
    36   31   32 1
    37   32   33 1
    38   33   34 1
    39   34   35 1
    40   38   39 1
    41   39   40 1
    42   40   41 1
    43   40   43 am
    44   41   42 1
    45   43   44 2
    46   43   45 1
    47    1   46 1
    48    1   47 1
    49    2   48 1
    50    3   49 1
    51    3   50 1
    52    4   51 1
    53    5   52 1
    54    6   53 1
    55    7   54 1
    56    7   55 1
    57    7   56 1
    58    8   57 1
    59    8   58 1
    60    9   59 1
    61   11   60 1
    62   13   61 1
    63   14   62 1
    64   14   63 1
    65   15   64 1
    66   15   65 1
    67   16   66 1
    68   17   67 1
    69   18   68 1
    70   18   69 1
    71   18   70 1
    72   19   71 1
    73   19   72 1
    74   19   73 1
    75   20   74 1
    76   25   75 1
    77   26   76 1
    78   27   77 1
    79   28   78 1
    80   30   79 1
    81   30   80 1
    82   31   81 1
    83   31   82 1
    84   32   83 1
    85   32   84 1
    86   33   85 1
    87   33   86 1
    88   35   87 1
    89   35   88 1
    90   35   89 1
    91   36   90 1
    92   36   91 1
    93   36   92 1
    94   37   93 1
    95   37   94 1
    96   37   95 1
    97   38   96 1
    98   38   97 1
    99   39   98 1
   100   39   99 1
   101   41  100 1
   102   41  101 1
   103   42  102 1
   104   42  103 1
   105   45  104 1
   106   45  105 1
   107   45  106 1
@<TRIPOS>PROPERTY_DATA
  Total_Score	| 15.8185
  Crash		| -3.4249
  Polar		| 7.8258
  FragIndex	| 1
  FragRMSD	| 0.849

