@<TRIPOS>MOLECULE
BindingDB_50345193
 83 83 0 0 0
SMALL
NO_CHARGES


@<TRIPOS>ATOM
1    C        83.0561   22.6177  -32.5240  C     
2    C        82.8896   22.4661  -31.1368  C     
3    C        82.4035   21.2562  -30.6181  C     
4    C        82.1204   20.1846  -31.4736  C     
5    C        82.2962   20.3008  -32.8774  C     
6    C        82.7445   21.5481  -33.3823  C     
7    O        83.4883   23.8262  -33.0050  O     
8    C        84.5479   23.7996  -33.9844  C     
9    C        84.0937   24.4898  -35.3023  C     
10   C        85.1928   24.5857  -36.4045  C     
11   O        86.1804   25.6154  -36.1390  O     
12   C        87.4705   25.1703  -35.6833  C     
13   C        82.0583   19.2078  -33.7308  C     
14   N        82.5580   19.1536  -34.9629  N     
15   C        82.4026   18.0800  -35.8976  C     
16   C        82.8349   18.4825  -37.3507  C     
17   C        82.9575   17.2118  -38.3001  C     
18   C        84.3618   16.7136  -38.8371  C     
19   C        84.5181   16.6269  -40.3998  C     
20   C        85.5056   15.5078  -40.8978  C     
21   C        85.2007   14.0017  -40.5656  C     
22   C        83.9064   13.5252  -41.0535  C     
23   N        83.5657   13.6567  -42.3377  N     
24   C        82.3664   13.1771  -42.9505  C     
25   O        81.4011   18.2520  -33.3315  O     
26   C        81.9578   19.6703  -37.9170  C     
27   C        82.8318   20.7329  -38.6460  C     
28   C        80.7375   19.2756  -38.8019  C     
29   N        85.5197   17.4604  -38.2810  N     
30   O        83.2890   16.4821  -41.1233  O     
31   C        86.3378   13.0661  -41.0891  C     
32   O        83.1648   12.9195  -40.2796  O     
33   C        81.0681   13.7196  -42.2871  C     
34   C        79.7956   12.9706  -42.7643  C     
35   C        78.4892   13.4656  -42.0976  C     
36   H        83.1042   23.2282  -30.4987  H     
37   H        82.2725   21.1422  -29.6120  H     
38   H        81.7973   19.3020  -31.0667  H     
39   H        82.8303   21.6926  -34.3862  H     
40   H        85.3844   24.3617  -33.5655  H     
41   H        84.9070   22.7859  -34.2025  H     
42   H        83.2579   23.9180  -35.7195  H     
43   H        83.7199   25.4966  -35.0899  H     
44   H        85.6465   23.5983  -36.6094  H     
45   H        84.6989   24.8915  -37.3351  H     
46   H        87.4124   24.7173  -34.6880  H     
47   H        88.1181   26.0459  -35.6258  H     
48   H        87.9227   24.4576  -36.3858  H     
49   H        83.1180   19.8907  -35.2588  H     
50   H        83.0453   17.2622  -35.5641  H     
51   H        81.3661   17.7304  -35.9122  H     
52   H        83.8393   18.8883  -37.2003  H     
53   H        82.5299   16.3432  -37.7687  H     
54   H        82.2829   17.3360  -39.1437  H     
55   H        84.5021   15.6966  -38.4329  H     
56   H        84.9525   17.5764  -40.7404  H     
57   H        85.5858   15.6035  -41.9863  H     
58   H        86.4963   15.7353  -40.4930  H     
59   H        85.2189   13.8958  -39.4765  H     
60   H        84.2019   14.1091  -42.9135  H     
61   H        82.3849   13.4893  -44.0013  H     
62   H        82.3748   12.0826  -42.9344  H     
63   H        81.5306   20.2025  -37.0629  H     
64   H        83.5246   21.1812  -37.9289  H     
65   H        82.2019   21.5366  -39.0558  H     
66   H        83.3986   20.2747  -39.4538  H     
67   H        81.0538   19.0136  -39.8185  H     
68   H        80.0426   20.1166  -38.8614  H     
69   H        80.2097   18.4217  -38.3691  H     
70   H        85.3998   18.4630  -38.4728  H     
71   H        86.3962   17.1340  -38.6958  H     
72   H        85.5420   17.3152  -37.2632  H     
73   H        83.0176   17.4095  -41.3009  H     
74   H        86.4267   13.1280  -42.1795  H     
75   H        86.1378   12.0244  -40.8122  H     
76   H        87.2962   13.3577  -40.6441  H     
77   H        81.1454   13.6115  -41.2084  H     
78   H        80.9773   14.7860  -42.5109  H     
79   H        79.6956   13.0712  -43.8485  H     
80   H        79.9045   11.9051  -42.5285  H     
81   H        78.5682   13.4032  -41.0098  H     
82   H        77.6535   12.8400  -42.4244  H     
83   H        78.2781   14.5005  -42.3809  H     
@<TRIPOS>BOND
     1    1    2 2
     2    1    6 1
     3    1    7 1
     4    2    3 1
     5    3    4 2
     6    4    5 1
     7    5    6 2
     8    5   13 1
     9    7    8 1
    10    8    9 1
    11    9   10 1
    12   10   11 1
    13   11   12 1
    14   13   14 am
    15   13   25 2
    16   14   15 1
    17   15   16 1
    18   16   17 1
    19   16   26 1
    20   17   18 1
    21   18   19 1
    22   18   29 1
    23   19   20 1
    24   19   30 1
    25   20   21 1
    26   21   22 1
    27   21   31 1
    28   22   23 am
    29   22   32 2
    30   23   24 1
    31   24   33 1
    32   26   27 1
    33   26   28 1
    34   33   34 1
    35   34   35 1
    36    2   36 1
    37    3   37 1
    38    4   38 1
    39    6   39 1
    40    8   40 1
    41    8   41 1
    42    9   42 1
    43    9   43 1
    44   10   44 1
    45   10   45 1
    46   12   46 1
    47   12   47 1
    48   12   48 1
    49   14   49 1
    50   15   50 1
    51   15   51 1
    52   16   52 1
    53   17   53 1
    54   17   54 1
    55   18   55 1
    56   19   56 1
    57   20   57 1
    58   20   58 1
    59   21   59 1
    60   23   60 1
    61   24   61 1
    62   24   62 1
    63   26   63 1
    64   27   64 1
    65   27   65 1
    66   27   66 1
    67   28   67 1
    68   28   68 1
    69   28   69 1
    70   29   70 1
    71   29   71 1
    72   29   72 1
    73   30   73 1
    74   31   74 1
    75   31   75 1
    76   31   76 1
    77   33   77 1
    78   33   78 1
    79   34   79 1
    80   34   80 1
    81   35   81 1
    82   35   82 1
    83   35   83 1
@<TRIPOS>PROPERTY_DATA
  Total_Score	| 14.6811
  Crash		| -2.6493
  Polar		| 8.1867
  FragIndex	| 1
  FragRMSD	| 0.702

