@<TRIPOS>MOLECULE
BindingDB_50348992
 106 107 0 0 0
SMALL
NO_CHARGES


@<TRIPOS>ATOM
1    C        84.7685   20.7818  -34.0485  C     
2    C        84.2165   20.7510  -32.7478  C     
3    C        83.0709   19.9570  -32.5119  C     
4    C        82.4506   19.2583  -33.5636  C     
5    C        83.0056   19.2694  -34.8604  C     
6    C        84.2037   19.9986  -35.0702  C     
7    O        85.8778   21.5606  -34.2935  O     
8    C        85.7080   22.6475  -35.2373  C     
9    C        84.7569   23.7932  -34.7848  C     
10   C        84.4274   24.8171  -35.9000  C     
11   O        85.5419   25.6829  -36.2018  O     
12   C        86.2591   25.4222  -37.4158  C     
13   O        84.8949   21.3975  -31.7431  O     
14   C        84.4180   22.6947  -31.3523  C     
15   C        82.4210   18.4819  -35.9709  C     
16   C        82.2457   19.2293  -37.3541  C     
17   C        82.1737   18.1978  -38.5360  C     
18   C        83.4958   17.3829  -38.7744  C     
19   C        83.2719   16.0842  -39.6147  C     
20   C        84.5612   15.1772  -39.6348  C     
21   C        84.9061   14.4754  -40.9916  C     
22   C        83.9161   13.4490  -41.3628  C     
23   N        83.6404   13.2247  -42.6530  N     
24   C        82.8373   12.1608  -43.1762  C     
25   C        81.2905   12.4427  -43.1463  C     
26   C        80.5113   11.2516  -43.8155  C     
27   C        81.0880   20.3159  -37.3979  C     
28   C        79.7341   19.8809  -36.7663  C     
29   C        81.5369   21.6926  -36.8211  C     
30   N        84.5398   18.2130  -39.4391  N     
31   O        82.8431   16.4150  -40.9484  O     
32   C        86.3919   13.9412  -41.0987  C     
33   C        87.4180   14.7676  -40.2506  C     
34   C        86.5414   12.4285  -40.8075  C     
35   O        83.4139   12.7526  -40.4955  O     
36   C        80.8027   12.6472  -41.6783  C     
37   C        80.9723   13.7374  -43.9501  C     
38   N        80.4925   10.0551  -43.0273  N     
39   C        79.4662    9.5024  -42.3883  C     
40   C        79.6162    8.3426  -41.6592  C     
41   O        78.3777   10.0966  -42.3277  O     
42   C        78.6690    7.2822  -41.7672  C     
43   C        78.8218    6.1025  -41.0194  C     
44   C        79.9212    5.9429  -40.1639  C     
45   C        80.8673    6.9744  -40.0374  C     
46   C        80.7164    8.1645  -40.7794  C     
47   H        82.6653   19.8748  -31.5792  H     
48   H        81.6139   18.7030  -33.3687  H     
49   H        84.6531   19.9633  -35.9841  H     
50   H        86.7054   23.0640  -35.3983  H     
51   H        85.3843   22.2597  -36.2083  H     
52   H        83.8019   23.3665  -34.4568  H     
53   H        85.1945   24.3138  -33.9250  H     
54   H        84.0374   24.2874  -36.7797  H     
55   H        83.6189   25.4630  -35.5491  H     
56   H        86.7674   24.4566  -37.3795  H     
57   H        87.0044   26.2088  -37.5436  H     
58   H        85.5875   25.4474  -38.2764  H     
59   H        84.3322   23.3680  -32.2073  H     
60   H        85.1349   23.1140  -30.6490  H     
61   H        83.4581   22.6261  -30.8416  H     
62   H        83.0750   17.6181  -36.0806  H     
63   H        81.4470   18.0825  -35.6864  H     
64   H        83.1662   19.7845  -37.5375  H     
65   H        81.3348   17.5180  -38.3462  H     
66   H        81.9655   18.7054  -39.4797  H     
67   H        83.9010   17.0855  -37.8054  H     
68   H        82.4828   15.4916  -39.1471  H     
69   H        85.4001   15.8142  -39.3611  H     
70   H        84.5006   14.4293  -38.8363  H     
71   H        84.8819   15.2625  -41.7532  H     
72   H        84.0559   13.8254  -43.3008  H     
73   H        83.1647   12.0257  -44.2087  H     
74   H        83.0620   11.2220  -42.6619  H     
75   H        79.4975   11.5702  -44.0800  H     
76   H        81.0064   10.9964  -44.7583  H     
77   H        80.8553   20.5322  -38.4512  H     
78   H        79.4121   18.9209  -37.1796  H     
79   H        78.9583   20.6232  -36.9767  H     
80   H        79.8293   19.7950  -35.6820  H     
81   H        81.8114   21.6043  -35.7688  H     
82   H        80.7324   22.4306  -36.9102  H     
83   H        82.3978   22.0690  -37.3828  H     
84   H        84.1947   18.5547  -40.3389  H     
85   H        85.3901   17.6649  -39.6004  H     
86   H        84.7981   19.0108  -38.8610  H     
87   H        82.7863   17.3929  -40.9952  H     
88   H        86.6908   14.0583  -42.1498  H     
89   H        87.2134   15.8399  -40.3806  H     
90   H        88.4370   14.5553  -40.5916  H     
91   H        87.3809   14.5017  -39.1831  H     
92   H        86.1261   12.1859  -39.8270  H     
93   H        87.5961   12.1485  -40.8288  H     
94   H        86.0247   11.8389  -41.5683  H     
95   H        81.1495   11.8291  -41.0458  H     
96   H        79.7086   12.6858  -41.6312  H     
97   H        81.1931   13.5845  -41.2652  H     
98   H        81.5125   14.5855  -43.5215  H     
99   H        79.9005   13.9664  -43.9268  H     
100  H        81.2767   13.6348  -44.9954  H     
101  H        81.3305    9.5674  -42.9787  H     
102  H        77.8653    7.3704  -42.3938  H     
103  H        78.1380    5.3497  -41.1193  H     
104  H        80.0352    5.0804  -39.6299  H     
105  H        81.6671    6.8643  -39.4147  H     
106  H        81.4081    8.9082  -40.6563  H     
@<TRIPOS>BOND
     1    1    2 2
     2    1    6 1
     3    1    7 1
     4    2    3 1
     5    2   13 1
     6    3    4 2
     7    4    5 1
     8    5    6 2
     9    5   15 1
    10    7    8 1
    11    8    9 1
    12    9   10 1
    13   10   11 1
    14   11   12 1
    15   13   14 1
    16   15   16 1
    17   16   17 1
    18   16   27 1
    19   17   18 1
    20   18   19 1
    21   18   30 1
    22   19   20 1
    23   19   31 1
    24   20   21 1
    25   21   22 1
    26   21   32 1
    27   22   23 am
    28   22   35 2
    29   23   24 1
    30   24   25 1
    31   25   26 1
    32   25   36 1
    33   25   37 1
    34   26   38 1
    35   27   28 1
    36   27   29 1
    37   32   33 1
    38   32   34 1
    39   38   39 am
    40   39   40 1
    41   39   41 2
    42   40   42 2
    43   40   46 1
    44   42   43 1
    45   43   44 2
    46   44   45 1
    47   45   46 2
    48    3   47 1
    49    4   48 1
    50    6   49 1
    51    8   50 1
    52    8   51 1
    53    9   52 1
    54    9   53 1
    55   10   54 1
    56   10   55 1
    57   12   56 1
    58   12   57 1
    59   12   58 1
    60   14   59 1
    61   14   60 1
    62   14   61 1
    63   15   62 1
    64   15   63 1
    65   16   64 1
    66   17   65 1
    67   17   66 1
    68   18   67 1
    69   19   68 1
    70   20   69 1
    71   20   70 1
    72   21   71 1
    73   23   72 1
    74   24   73 1
    75   24   74 1
    76   26   75 1
    77   26   76 1
    78   27   77 1
    79   28   78 1
    80   28   79 1
    81   28   80 1
    82   29   81 1
    83   29   82 1
    84   29   83 1
    85   30   84 1
    86   30   85 1
    87   30   86 1
    88   31   87 1
    89   32   88 1
    90   33   89 1
    91   33   90 1
    92   33   91 1
    93   34   92 1
    94   34   93 1
    95   34   94 1
    96   36   95 1
    97   36   96 1
    98   36   97 1
    99   37   98 1
   100   37   99 1
   101   37  100 1
   102   38  101 1
   103   42  102 1
   104   43  103 1
   105   44  104 1
   106   45  105 1
   107   46  106 1
@<TRIPOS>PROPERTY_DATA
  Total_Score	| 14.3916
  Crash		| -4.3460
  Polar		| 8.3024
  FragIndex	| 1
  FragRMSD	| 0.958

