@<TRIPOS>MOLECULE
BindingDB_17948
 83 83 0 0 0
SMALL
NO_CHARGES


@<TRIPOS>ATOM
1    C        83.3907   21.5353  -33.1265  C     
2    C        83.6250   22.4675  -32.0897  C     
3    C        82.9876   22.3473  -30.8478  C     
4    C        82.1140   21.2787  -30.6153  C     
5    C        81.8893   20.3359  -31.6303  C     
6    C        82.5187   20.4233  -32.9155  C     
7    O        84.1377   21.7126  -34.2616  O     
8    C        83.8473   22.8534  -35.0958  C     
9    C        85.1604   23.6684  -35.2487  C     
10   C        85.0687   24.7858  -36.3258  C     
11   O        86.1443   25.7416  -36.2200  O     
12   C        87.4695   25.2486  -36.4854  C     
13   C        82.2662   19.4092  -33.8715  C     
14   O        81.4184   18.5570  -33.6115  O     
15   N        82.8814   19.2864  -35.0512  N     
16   C        82.6712   18.2877  -36.0605  C     
17   C        82.6402   18.8648  -37.5184  C     
18   C        82.6383   17.7205  -38.5957  C     
19   C        84.0230   17.0889  -38.9654  C     
20   C        83.8979   15.9910  -40.0713  C     
21   C        85.0402   14.9310  -40.0029  C     
22   C        85.0244   13.8547  -41.1318  C     
23   C        86.0390   12.7181  -40.8333  C     
24   C        83.6996   13.2830  -41.3626  C     
25   O        83.1146   12.7550  -40.4266  O     
26   N        83.1191   13.4131  -42.5503  N     
27   C        81.8337   12.9075  -42.9185  C     
28   C        80.7280   13.6617  -42.1402  C     
29   C        79.3821   12.9018  -42.0038  C     
30   C        78.3768   13.1748  -43.1464  C     
31   O        83.8575   16.5776  -41.3766  O     
32   N        84.9977   18.1088  -39.4067  N     
33   C        81.5034   19.9394  -37.7206  C     
34   C        81.4995   20.5657  -39.1494  C     
35   C        80.0686   19.4764  -37.3314  C     
36   H        84.2630   23.2453  -32.2353  H     
37   H        83.1769   23.0284  -30.1082  H     
38   H        81.6679   21.1769  -29.6981  H     
39   H        81.2612   19.5634  -31.3931  H     
40   H        83.5402   22.4975  -36.0824  H     
41   H        83.0530   23.5021  -34.7057  H     
42   H        85.4006   24.1318  -34.2898  H     
43   H        85.9709   22.9867  -35.5138  H     
44   H        85.0156   24.3483  -37.3306  H     
45   H        84.1431   25.3453  -36.1654  H     
46   H        87.7479   24.4528  -35.7937  H     
47   H        88.1739   26.0698  -36.3699  H     
48   H        87.5346   24.8830  -37.5085  H     
49   H        83.5759   19.9150  -35.2568  H     
50   H        83.5000   17.5847  -35.9569  H     
51   H        81.7599   17.7068  -35.8927  H     
52   H        83.5754   19.4159  -37.6282  H     
53   H        81.9699   16.9266  -38.2491  H     
54   H        82.2182   18.0900  -39.5251  H     
55   H        84.4211   16.6266  -38.0588  H     
56   H        82.9529   15.4576  -39.9309  H     
57   H        86.0056   15.4454  -40.0422  H     
58   H        84.9791   14.4313  -39.0313  H     
59   H        85.3730   14.3459  -42.0469  H     
60   H        87.0489   13.1251  -40.7338  H     
61   H        86.0448   11.9863  -41.6436  H     
62   H        85.7832   12.2015  -39.9036  H     
63   H        83.5856   13.9399  -43.2207  H     
64   H        81.7181   13.0714  -43.9917  H     
65   H        81.7459   11.8324  -42.7334  H     
66   H        81.0993   13.8580  -41.1332  H     
67   H        80.5496   14.6210  -42.6230  H     
68   H        79.5748   11.8285  -41.9455  H     
69   H        78.9176   13.2073  -41.0634  H     
70   H        78.2144   14.2476  -43.2661  H     
71   H        77.4210   12.7036  -42.9107  H     
72   H        78.7404   12.7599  -44.0867  H     
73   H        83.2416   17.3415  -41.3244  H     
74   H        84.6705   18.5851  -40.2519  H     
75   H        85.9079   17.6785  -39.5953  H     
76   H        85.1222   18.7917  -38.6662  H     
77   H        81.7439   20.7730  -37.0501  H     
78   H        82.5160   20.7950  -39.4741  H     
79   H        80.9309   21.4952  -39.1476  H     
80   H        81.0419   19.8962  -39.8804  H     
81   H        79.7548   18.6214  -37.9364  H     
82   H        79.3562   20.2919  -37.4881  H     
83   H        80.0206   19.1994  -36.2762  H     
@<TRIPOS>BOND
     1    1    2 2
     2    1    6 1
     3    1    7 1
     4    2    3 1
     5    3    4 2
     6    4    5 1
     7    5    6 2
     8    6   13 1
     9    7    8 1
    10    8    9 1
    11    9   10 1
    12   10   11 1
    13   11   12 1
    14   13   14 2
    15   13   15 am
    16   15   16 1
    17   16   17 1
    18   17   18 1
    19   17   33 1
    20   18   19 1
    21   19   20 1
    22   19   32 1
    23   20   21 1
    24   20   31 1
    25   21   22 1
    26   22   23 1
    27   22   24 1
    28   24   25 2
    29   24   26 am
    30   26   27 1
    31   27   28 1
    32   28   29 1
    33   29   30 1
    34   33   34 1
    35   33   35 1
    36    2   36 1
    37    3   37 1
    38    4   38 1
    39    5   39 1
    40    8   40 1
    41    8   41 1
    42    9   42 1
    43    9   43 1
    44   10   44 1
    45   10   45 1
    46   12   46 1
    47   12   47 1
    48   12   48 1
    49   15   49 1
    50   16   50 1
    51   16   51 1
    52   17   52 1
    53   18   53 1
    54   18   54 1
    55   19   55 1
    56   20   56 1
    57   21   57 1
    58   21   58 1
    59   22   59 1
    60   23   60 1
    61   23   61 1
    62   23   62 1
    63   26   63 1
    64   27   64 1
    65   27   65 1
    66   28   66 1
    67   28   67 1
    68   29   68 1
    69   29   69 1
    70   30   70 1
    71   30   71 1
    72   30   72 1
    73   31   73 1
    74   32   74 1
    75   32   75 1
    76   32   76 1
    77   33   77 1
    78   34   78 1
    79   34   79 1
    80   34   80 1
    81   35   81 1
    82   35   82 1
    83   35   83 1
@<TRIPOS>PROPERTY_DATA
  Total_Score	| 15.6156
  Crash		| -1.6989
  Polar		| 9.7577
  FragIndex	| 1
  FragRMSD	| 0.252

