@<TRIPOS>MOLECULE
BindingDB_50298199
 79 79 0 0 0
SMALL
NO_CHARGES


@<TRIPOS>ATOM
1    C        83.7229   20.3001  -33.3755  C     
2    C        84.1970   21.5468  -33.8488  C     
3    C        84.3316   21.7632  -35.2364  C     
4    C        84.0035   20.7426  -36.1447  C     
5    C        83.5388   19.4863  -35.6949  C     
6    C        83.4247   19.2779  -34.3004  C     
7    C        84.4817   22.5088  -33.0148  C     
8    O        83.5663   20.1022  -32.0237  O     
9    C        83.2140   18.4737  -36.5980  C     
10   N        82.5336   18.6380  -37.7558  N     
11   C        82.6016   17.6133  -38.7960  C     
12   C        81.4698   19.6506  -37.8508  C     
13   C        81.4084   20.4001  -39.2119  C     
14   C        80.0916   19.0232  -37.4827  C     
15   C        84.0197   17.0622  -39.1481  C     
16   C        83.9595   15.9575  -40.2582  C     
17   N        84.9397   18.1481  -39.5347  N     
18   C        85.0903   14.9001  -40.1000  C     
19   O        83.9917   16.5384  -41.5643  O     
20   C        85.1313   13.7760  -41.1856  C     
21   C        83.8145   13.1946  -41.4437  C     
22   C        86.1554   12.6806  -40.7829  C     
23   O        83.2085   12.6623  -40.5189  O     
24   N        83.2579   13.3320  -42.6424  N     
25   C        81.9188   12.9820  -43.0076  C     
26   C        80.8794   13.8699  -42.2722  C     
27   C        79.4467   13.8191  -42.8707  C     
28   C        78.4748   12.9100  -42.0894  C     
29   O        83.5879   17.3490  -36.2739  O     
30   C        82.3225   19.5551  -31.5447  C     
31   C        81.0196   20.2822  -31.9878  C     
32   C        81.1931   21.7803  -32.3393  C     
33   O        82.0502   22.4974  -31.4303  O     
34   C        81.5892   22.6164  -30.0786  C     
35   C        84.7370   23.3819  -32.2421  C     
36   H        84.6588   22.6615  -35.6034  H     
37   H        84.0968   20.9320  -37.1482  H     
38   H        83.0911   18.3777  -33.9463  H     
39   H        81.9762   16.7739  -38.4739  H     
40   H        82.1659   17.9652  -39.7338  H     
41   H        81.5986   20.4418  -37.1072  H     
42   H        82.4129   20.6977  -39.5213  H     
43   H        80.7917   21.3001  -39.1198  H     
44   H        80.9685   19.7817  -39.9932  H     
45   H        79.7740   18.2947  -38.2300  H     
46   H        79.3278   19.7978  -37.4064  H     
47   H        80.1606   18.5199  -36.5152  H     
48   H        84.4495   16.6188  -38.2463  H     
49   H        83.0086   15.4252  -40.1758  H     
50   H        84.6097   18.5903  -40.3942  H     
51   H        85.8876   17.7798  -39.6750  H     
52   H        84.9745   18.8542  -38.7993  H     
53   H        86.0532   15.4203  -40.1047  H     
54   H        84.9776   14.4270  -39.1174  H     
55   H        83.3877   17.3142  -41.5218  H     
56   H        85.5120   14.2369  -42.1040  H     
57   H        87.1522   13.1167  -40.6795  H     
58   H        86.2030   11.9022  -41.5441  H     
59   H        85.8814   12.2208  -39.8315  H     
60   H        83.7846   13.7804  -43.3243  H     
61   H        81.8264   13.1477  -44.0849  H     
62   H        81.7315   11.9223  -42.8173  H     
63   H        80.8437   13.5843  -41.2193  H     
64   H        81.2342   14.9022  -42.3153  H     
65   H        79.0275   14.8300  -42.8696  H     
66   H        79.4910   13.4833  -43.9116  H     
67   H        78.8989   11.9145  -41.9474  H     
68   H        77.5330   12.8150  -42.6369  H     
69   H        78.2621   13.3498  -41.1116  H     
70   H        82.2619   18.4962  -31.8244  H     
71   H        82.3818   19.5934  -30.4558  H     
72   H        80.5904   19.7657  -32.8541  H     
73   H        80.2933   20.1959  -31.1767  H     
74   H        81.6447   21.8515  -33.3303  H     
75   H        80.2117   22.2616  -32.4097  H     
76   H        80.6894   23.2249  -30.0384  H     
77   H        82.3687   23.1090  -29.4874  H     
78   H        81.3844   21.6452  -29.6250  H     
79   H        84.9389   24.0501  -31.6423  H     
@<TRIPOS>BOND
     1    1    2 2
     2    1    6 1
     3    1    8 1
     4    2    3 1
     5    2    7 1
     6    3    4 2
     7    4    5 1
     8    5    6 2
     9    5    9 1
    10    7   35 3
    11    8   30 1
    12    9   10 am
    13    9   29 2
    14   10   11 1
    15   10   12 1
    16   11   15 1
    17   12   13 1
    18   12   14 1
    19   15   16 1
    20   15   17 1
    21   16   18 1
    22   16   19 1
    23   18   20 1
    24   20   21 1
    25   20   22 1
    26   21   23 2
    27   21   24 am
    28   24   25 1
    29   25   26 1
    30   26   27 1
    31   27   28 1
    32   30   31 1
    33   31   32 1
    34   32   33 1
    35   33   34 1
    36    3   36 1
    37    4   37 1
    38    6   38 1
    39   11   39 1
    40   11   40 1
    41   12   41 1
    42   13   42 1
    43   13   43 1
    44   13   44 1
    45   14   45 1
    46   14   46 1
    47   14   47 1
    48   15   48 1
    49   16   49 1
    50   17   50 1
    51   17   51 1
    52   17   52 1
    53   18   53 1
    54   18   54 1
    55   19   55 1
    56   20   56 1
    57   22   57 1
    58   22   58 1
    59   22   59 1
    60   24   60 1
    61   25   61 1
    62   25   62 1
    63   26   63 1
    64   26   64 1
    65   27   65 1
    66   27   66 1
    67   28   67 1
    68   28   68 1
    69   28   69 1
    70   30   70 1
    71   30   71 1
    72   31   72 1
    73   31   73 1
    74   32   74 1
    75   32   75 1
    76   34   76 1
    77   34   77 1
    78   34   78 1
    79   35   79 1
@<TRIPOS>PROPERTY_DATA
  Total_Score	| 13.9254
  Crash		| -2.2878
  Polar		| 7.3600
  FragIndex	| 1
  FragRMSD	| 0.277

