@<TRIPOS>MOLECULE
BindingDB_50348993
 110 111 0 0 0
SMALL
NO_CHARGES


@<TRIPOS>ATOM
1    C        83.4258   21.2175  -33.4248  C     
2    C        82.4330   21.1173  -32.4216  C     
3    C        81.3894   20.1846  -32.5717  C     
4    C        81.3336   19.3491  -33.6938  C     
5    C        82.3517   19.3954  -34.6788  C     
6    C        83.4100   20.3175  -34.5089  C     
7    O        84.4190   22.1375  -33.2717  O     
8    C        84.5388   23.1532  -34.3045  C     
9    C        85.7397   22.8687  -35.2428  C     
10   C        86.5758   24.1206  -35.6465  C     
11   O        85.7844   25.3025  -35.9002  O     
12   C        84.8379   25.1706  -36.9733  C     
13   O        82.5678   21.8110  -31.2547  O     
14   C        81.4232   22.5858  -30.8662  C     
15   C        82.3109   18.5003  -35.8773  C     
16   C        82.5480   19.1981  -37.2588  C     
17   C        82.5047   18.1475  -38.4217  C     
18   C        83.8399   17.4446  -38.8199  C     
19   C        83.6542   16.3152  -39.8973  C     
20   C        84.9088   15.9947  -40.7694  C     
21   C        85.1551   14.5087  -41.2618  C     
22   C        84.0093   13.5988  -41.1146  C     
23   N        83.2200   13.2998  -42.1512  N     
24   C        82.1466   12.3414  -42.1834  C     
25   C        80.9387   12.7485  -43.1050  C     
26   C        81.4419   13.1702  -44.5331  C     
27   C        81.6072   20.4453  -37.5012  C     
28   C        81.6637   20.9678  -38.9711  C     
29   C        80.1225   20.2501  -37.0768  C     
30   N        84.8087   18.4760  -39.2657  N     
31   O        82.5972   16.6361  -40.8042  O     
32   C        86.5220   13.9464  -40.7213  C     
33   C        86.7270   14.0359  -39.1811  C     
34   C        86.8237   12.5145  -41.2175  C     
35   O        83.7973   13.0836  -40.0269  O     
36   C        79.9382   11.5515  -43.2177  C     
37   C        80.1627   13.9424  -42.4663  C     
38   N        81.8971   12.0609  -45.3157  N     
39   C        83.1428   11.6435  -45.5128  C     
40   C        83.4239   10.5045  -46.2811  C     
41   O        84.0638   12.2852  -45.0098  O     
42   C        84.7433   10.2314  -46.7336  C     
43   C        85.0198    9.1314  -47.5626  C     
44   C        83.9836    8.2722  -47.9726  C     
45   C        82.6793    8.4909  -47.4950  C     
46   C        82.4060    9.5893  -46.6624  C     
47   O        84.2539    7.2113  -48.7910  O     
48   C        83.9714    7.4811  -50.1754  C     
49   H        80.6691   20.1125  -31.8436  H     
50   H        80.5432   18.7054  -33.7906  H     
51   H        84.1714   20.3413  -35.1967  H     
52   H        83.6274   23.3145  -34.8922  H     
53   H        84.7447   24.0900  -33.7768  H     
54   H        86.4258   22.1672  -34.7579  H     
55   H        85.3866   22.3940  -36.1701  H     
56   H        87.2420   24.3827  -34.8116  H     
57   H        87.2201   23.8914  -36.5048  H     
58   H        85.3782   25.1641  -37.9271  H     
59   H        84.1957   26.0556  -36.9539  H     
60   H        84.2289   24.2691  -36.8755  H     
61   H        81.2178   23.3694  -31.5967  H     
62   H        81.6448   23.0542  -29.9079  H     
63   H        80.5383   21.9615  -30.7403  H     
64   H        83.0848   17.7443  -35.7329  H     
65   H        81.3587   17.9653  -35.9130  H     
66   H        83.5660   19.5989  -37.2249  H     
67   H        81.7751   17.3764  -38.1700  H     
68   H        82.1271   18.6188  -39.3233  H     
69   H        84.2907   16.9892  -37.9284  H     
70   H        83.3560   15.4230  -39.3485  H     
71   H        84.8472   16.6336  -41.6518  H     
72   H        85.7958   16.3420  -40.2289  H     
73   H        85.3305   14.5960  -42.3439  H     
74   H        83.4219   13.7625  -42.9814  H     
75   H        82.5744   11.4003  -42.5370  H     
76   H        81.7619   12.1396  -41.1745  H     
77   H        80.6155   13.6139  -45.0943  H     
78   H        82.2115   13.9390  -44.4575  H     
79   H        81.9909   21.2769  -36.8983  H     
80   H        82.6854   20.9364  -39.3623  H     
81   H        81.3232   22.0096  -39.0180  H     
82   H        81.0243   20.3742  -39.6311  H     
83   H        79.6513   19.4558  -37.6593  H     
84   H        79.5598   21.1751  -37.2421  H     
85   H        80.0471   20.0020  -36.0193  H     
86   H        84.5161   18.8349  -40.1731  H     
87   H        85.7587   18.0940  -39.3511  H     
88   H        84.8281   19.2421  -38.5968  H     
89   H        82.8471   17.5164  -41.1900  H     
90   H        87.3090   14.5756  -41.1580  H     
91   H        86.4409   15.0128  -38.7894  H     
92   H        87.7813   13.8837  -38.9379  H     
93   H        86.1429   13.2684  -38.6784  H     
94   H        86.1257   11.7974  -40.7855  H     
95   H        87.8415   12.2342  -40.9394  H     
96   H        86.7413   12.4754  -42.3034  H     
97   H        80.4344   10.6572  -43.5994  H     
98   H        79.1134   11.7958  -43.8913  H     
99   H        79.5103   11.3033  -42.2429  H     
100  H        79.8172   13.6770  -41.4657  H     
101  H        79.2884   14.2072  -43.0676  H     
102  H        80.8005   14.8230  -42.3851  H     
103  H        81.1884   11.5430  -45.7260  H     
104  H        85.5221   10.8476  -46.4849  H     
105  H        85.9783    8.9639  -47.8815  H     
106  H        81.9187    7.8631  -47.7688  H     
107  H        81.4427    9.7017  -46.3432  H     
108  H        82.8979    7.6012  -50.3385  H     
109  H        84.3143    6.6285  -50.7630  H     
110  H        84.4982    8.3711  -50.5316  H     
@<TRIPOS>BOND
     1    1    2 2
     2    1    6 1
     3    1    7 1
     4    2    3 1
     5    2   13 1
     6    3    4 2
     7    4    5 1
     8    5    6 2
     9    5   15 1
    10    7    8 1
    11    8    9 1
    12    9   10 1
    13   10   11 1
    14   11   12 1
    15   13   14 1
    16   15   16 1
    17   16   17 1
    18   16   27 1
    19   17   18 1
    20   18   19 1
    21   18   30 1
    22   19   20 1
    23   19   31 1
    24   20   21 1
    25   21   22 1
    26   21   32 1
    27   22   23 am
    28   22   35 2
    29   23   24 1
    30   24   25 1
    31   25   26 1
    32   25   36 1
    33   25   37 1
    34   26   38 1
    35   27   28 1
    36   27   29 1
    37   32   33 1
    38   32   34 1
    39   38   39 am
    40   39   40 1
    41   39   41 2
    42   40   42 2
    43   40   46 1
    44   42   43 1
    45   43   44 2
    46   44   45 1
    47   44   47 1
    48   45   46 2
    49   47   48 1
    50    3   49 1
    51    4   50 1
    52    6   51 1
    53    8   52 1
    54    8   53 1
    55    9   54 1
    56    9   55 1
    57   10   56 1
    58   10   57 1
    59   12   58 1
    60   12   59 1
    61   12   60 1
    62   14   61 1
    63   14   62 1
    64   14   63 1
    65   15   64 1
    66   15   65 1
    67   16   66 1
    68   17   67 1
    69   17   68 1
    70   18   69 1
    71   19   70 1
    72   20   71 1
    73   20   72 1
    74   21   73 1
    75   23   74 1
    76   24   75 1
    77   24   76 1
    78   26   77 1
    79   26   78 1
    80   27   79 1
    81   28   80 1
    82   28   81 1
    83   28   82 1
    84   29   83 1
    85   29   84 1
    86   29   85 1
    87   30   86 1
    88   30   87 1
    89   30   88 1
    90   31   89 1
    91   32   90 1
    92   33   91 1
    93   33   92 1
    94   33   93 1
    95   34   94 1
    96   34   95 1
    97   34   96 1
    98   36   97 1
    99   36   98 1
   100   36   99 1
   101   37  100 1
   102   37  101 1
   103   37  102 1
   104   38  103 1
   105   42  104 1
   106   43  105 1
   107   45  106 1
   108   46  107 1
   109   48  108 1
   110   48  109 1
   111   48  110 1
@<TRIPOS>PROPERTY_DATA
  Total_Score	| 15.2664
  Crash		| -5.2846
  Polar		| 6.9977
  FragIndex	| 1
  FragRMSD	| 0.873

