@<TRIPOS>MOLECULE
BindingDB_50192387
 46 50 0 0 0
SMALL
NO_CHARGES


@<TRIPOS>ATOM
1    C         6.3516   55.4030   22.2630  C     
2    C         5.4634   54.9380   21.2716  C     
3    C         4.2681   54.2835   21.6399  C     
4    C         6.0400   55.2223   23.6222  C     
5    C         4.8539   54.5529   23.9863  C     
6    C         3.9488   54.1062   23.0091  C     
7    N         2.8523   53.5496   23.6143  N     
8    C         4.2980   54.2513   25.2318  C     
9    C         3.0555   53.6428   24.9717  C     
10   C         2.2192   53.2584   26.0438  C     
11   C         2.5628   53.5838   27.3752  C     
12   C         4.7222   54.4365   26.5633  C     
13   C         3.8405   54.1423   27.6111  C     
14   C         4.4942   54.4653   28.7761  C     
15   N         5.6918   54.9034   28.4651  N     
16   C         5.8671   54.8842   27.1631  C     
17   O         4.0742   54.3721   29.9197  O     
18   O         6.9414   55.1525   26.6448  O     
19   O         7.4925   56.0365   21.8895  O     
20   C         1.6174   53.3845   28.4153  C     
21   C         1.1207   54.4512   29.2199  C     
22   C         0.1430   54.1963   30.2011  C     
23   C        -0.3714   52.9009   30.3739  C     
24   C         0.0993   51.8436   29.5794  C     
25   C         1.0799   52.0851   28.6030  C     
26   Cl        1.6331   56.0600   29.0469  Cl    
27   C         1.7304   52.9508   22.9059  C     
28   C         2.0542   51.4715   22.5405  C     
29   C         0.3270   53.1008   23.5575  C     
30   H         5.6762   55.0911   20.2882  H     
31   H         3.6543   53.9531   20.8977  H     
32   H         6.6609   55.6176   24.3229  H     
33   H         1.3541   52.7524   25.8641  H     
34   H         6.3604   55.1797   29.1155  H     
35   H         8.1925   55.7296   22.5098  H     
36   H        -0.2088   54.9572   30.7898  H     
37   H        -1.0780   52.7277   31.0907  H     
38   H        -0.2849   50.9073   29.7014  H     
39   H         1.4142   51.2933   28.0386  H     
40   H         1.5958   53.4785   21.9520  H     
41   H         2.9516   51.4463   21.9010  H     
42   H         1.2242   51.0229   21.9823  H     
43   H         2.2495   50.8817   23.4432  H     
44   H         0.1622   52.4024   24.3691  H     
45   H        -0.4659   52.9210   22.8184  H     
46   H         0.2090   54.1098   23.9530  H     
@<TRIPOS>BOND
     1    1    2 2
     2    1    4 1
     3    1   19 1
     4    2    3 1
     5    3    6 2
     6    4    5 2
     7    5    6 1
     8    5    8 1
     9    6    7 1
    10    7    9 1
    11    7   27 1
    12    8    9 2
    13    8   12 1
    14    9   10 1
    15   10   11 2
    16   11   13 1
    17   11   20 1
    18   12   13 2
    19   12   16 1
    20   13   14 1
    21   14   15 1
    22   14   17 2
    23   15   16 1
    24   16   18 2
    25   20   21 2
    26   20   25 1
    27   21   22 1
    28   21   26 1
    29   22   23 2
    30   23   24 1
    31   24   25 2
    32   27   28 1
    33   27   29 1
    34    2   30 1
    35    3   31 1
    36    4   32 1
    37   10   33 1
    38   15   34 1
    39   19   35 1
    40   22   36 1
    41   23   37 1
    42   24   38 1
    43   25   39 1
    44   27   40 1
    45   28   41 1
    46   28   42 1
    47   28   43 1
    48   29   44 1
    49   29   45 1
    50   29   46 1
@<TRIPOS>PROPERTY_DATA
  Total_Score	| 11.2452
  Crash		| -0.9264
  Polar		| 5.4802
  FragIndex	| 1
  FragRMSD	| 0.219

