@<TRIPOS>MOLECULE
BindingDB_50279518
 55 60 0 0 0
SMALL
NO_CHARGES


@<TRIPOS>ATOM
1    C         6.4976   55.3913   22.0852  C     
2    C         5.5440   54.9848   21.1204  C     
3    C         4.2896   54.4939   21.5360  C     
4    C         6.2138   55.2727   23.4689  C     
5    C         4.9652   54.7494   23.8780  C     
6    C         4.0178   54.3880   22.9078  C     
7    N         2.8896   53.9780   23.5082  N     
8    C         4.3534   54.5165   25.1283  C     
9    C         3.0588   54.0494   24.8401  C     
10   C         2.1294   53.7389   25.8515  C     
11   C         2.4926   53.8844   27.2153  C     
12   C         4.7279   54.6416   26.4866  C     
13   C         3.8123   54.3310   27.5063  C     
14   C         4.4785   54.5355   28.6867  C     
15   N         5.6984   54.9386   28.4085  N     
16   C         5.8815   55.0173   27.1101  C     
17   O         4.0548   54.3764   29.8224  O     
18   O         6.9324   55.3606   26.5992  O     
19   O         7.6743   55.9289   21.6674  O     
20   C         1.5519   53.5561   28.2303  C     
21   C         1.0369   54.5161   29.1451  C     
22   C         0.1247   54.1185   30.1454  C     
23   C        -0.2988   52.7810   30.2316  C     
24   C         0.1754   51.8337   29.3087  C     
25   C         1.0963   52.2176   28.3184  C     
26   Cl        1.4461   56.1647   29.0644  Cl    
27   O         5.7978   55.0786   19.7733  O     
28   C         6.3856   53.8890   19.1912  C     
29   C         5.8891   53.6979   17.7311  C     
30   C         6.9723   53.8600   16.6285  C     
31   N         7.8877   52.7529   16.5502  N     
32   C         9.0436   52.6175   17.2329  C     
33   C         9.6575   51.4226   16.8703  C     
34   C         8.8418   50.8266   15.9235  C     
35   C         7.7553   51.6744   15.7431  C     
36   H         3.5896   54.2166   20.8493  H     
37   H         6.8975   55.5923   24.1487  H     
38   H         2.0788   53.7004   23.0618  H     
39   H         1.1908   53.4339   25.5891  H     
40   H         6.3752   55.1483   29.0726  H     
41   H         8.3715   55.5671   22.2785  H     
42   H        -0.2466   54.8004   30.8107  H     
43   H        -0.9586   52.4974   30.9601  H     
44   H        -0.1533   50.8637   29.3567  H     
45   H         1.4345   51.5071   27.6654  H     
46   H         7.4776   53.9962   19.2175  H     
47   H         6.1361   52.9863   19.7621  H     
48   H         5.4356   52.7048   17.6256  H     
49   H         5.0970   54.4215   17.5374  H     
50   H         6.4565   53.9603   15.6654  H     
51   H         7.5189   54.7946   16.7766  H     
52   H         9.4285   53.2860   17.9017  H     
53   H        10.5433   51.0556   17.2302  H     
54   H         9.0083   49.9360   15.4519  H     
55   H         6.9886   51.5002   15.0891  H     
@<TRIPOS>BOND
     1    1    2 2
     2    1    4 1
     3    1   19 1
     4    2    3 1
     5    2   27 1
     6    3    6 2
     7    4    5 2
     8    5    6 1
     9    5    8 1
    10    6    7 1
    11    7    9 1
    12    8    9 2
    13    8   12 1
    14    9   10 1
    15   10   11 2
    16   11   13 1
    17   11   20 1
    18   12   13 2
    19   12   16 1
    20   13   14 1
    21   14   15 1
    22   14   17 2
    23   15   16 1
    24   16   18 2
    25   20   21 2
    26   20   25 1
    27   21   22 1
    28   21   26 1
    29   22   23 2
    30   23   24 1
    31   24   25 2
    32   27   28 1
    33   28   29 1
    34   29   30 1
    35   30   31 1
    36   31   32 1
    37   31   35 1
    38   32   33 2
    39   33   34 1
    40   34   35 2
    41    3   36 1
    42    4   37 1
    43    7   38 1
    44   10   39 1
    45   15   40 1
    46   19   41 1
    47   22   42 1
    48   23   43 1
    49   24   44 1
    50   25   45 1
    51   28   46 1
    52   28   47 1
    53   29   48 1
    54   29   49 1
    55   30   50 1
    56   30   51 1
    57   32   52 1
    58   33   53 1
    59   34   54 1
    60   35   55 1
@<TRIPOS>PROPERTY_DATA
  Total_Score	| 11.7732
  Crash		| -0.7604
  Polar		| 5.3047
  FragIndex	| 1
  FragRMSD	| 0.467

