@<TRIPOS>MOLECULE
BindingDB_50232230
 64 69 0 0 0
SMALL
NO_CHARGES


@<TRIPOS>ATOM
1    C         6.4859   55.1723   22.0953  C     
2    C         5.4823   54.8574   21.1439  C     
3    C         4.2150   54.4497   21.5904  C     
4    C         6.2218   55.0366   23.4823  C     
5    C         4.9542   54.6052   23.9224  C     
6    C         3.9785   54.2939   22.9684  C     
7    N         2.8489   53.8661   23.5677  N     
8    C         4.3447   54.3961   25.1766  C     
9    C         3.0451   53.9271   24.9104  C     
10   C         2.1486   53.6327   25.9556  C     
11   C         2.5357   53.8227   27.2972  C     
12   C         4.7403   54.5960   26.5188  C     
13   C         3.8396   54.3111   27.5534  C     
14   C         4.4821   54.5931   28.7323  C     
15   N         5.6856   55.0343   28.4378  N     
16   C         5.8707   55.0491   27.1339  C     
17   O         4.0587   54.4835   29.8775  O     
18   O         6.9041   55.4315   26.6086  O     
19   O         7.6920   55.6500   21.6633  O     
20   C         1.6850   53.3997   22.8612  C     
21   C         1.6048   53.5207   28.3216  C     
22   C         1.0889   54.5136   29.1995  C     
23   C         0.1366   54.1544   30.1786  C     
24   C        -0.3155   52.8263   30.2811  C     
25   C         0.1754   51.8444   29.4038  C     
26   C         1.1337   52.1881   28.4320  C     
27   Cl        1.5391   56.1497   29.1057  Cl    
28   O         5.7037   54.9723   19.7877  O     
29   C         5.8313   53.7076   19.0641  C     
30   C         4.5894   53.3619   18.1782  C     
31   C         3.4165   52.5991   18.8732  C     
32   N         2.7523   51.5480   18.0266  N     
33   C         1.7160   50.7395   18.7529  C     
34   C         0.3472   51.4586   18.8224  C     
35   O        -0.0936   51.8215   17.5027  O     
36   C         0.8262   52.6745   16.7929  C     
37   C         2.2338   52.0241   16.7015  C     
38   H         3.4746   54.2662   20.9071  H     
39   H         6.9527   55.2617   24.1471  H     
40   H         1.2090   53.3040   25.7403  H     
41   H         6.3422   55.3259   29.0927  H     
42   H         8.3496   55.3593   22.3254  H     
43   H         1.2841   54.2150   22.2504  H     
44   H         0.8873   53.0449   23.5179  H     
45   H         1.9713   52.5711   22.2017  H     
46   H        -0.2402   54.8605   30.8184  H     
47   H        -1.0013   52.5732   30.9946  H     
48   H        -0.1655   50.8808   29.4701  H     
49   H         1.4813   51.4566   27.8060  H     
50   H         6.7071   53.8386   18.4157  H     
51   H         6.0488   52.8386   19.7165  H     
52   H         4.2174   54.2981   17.7281  H     
53   H         4.9744   52.7519   17.3468  H     
54   H         3.8357   52.1106   19.7525  H     
55   H         2.6780   53.3177   19.2343  H     
56   H         3.5044   50.8835   17.8226  H     
57   H         1.5895   49.8019   18.2136  H     
58   H         2.0395   50.4801   19.7633  H     
59   H        -0.3904   50.7841   19.2581  H     
60   H         0.4068   52.3431   19.4608  H     
61   H         0.4439   52.8276   15.7862  H     
62   H         0.8882   53.6524   17.2801  H     
63   H         2.9281   52.7205   16.2261  H     
64   H         2.1649   51.1523   16.0484  H     
@<TRIPOS>BOND
     1    1    2 2
     2    1    4 1
     3    1   19 1
     4    2    3 1
     5    2   28 1
     6    3    6 2
     7    4    5 2
     8    5    6 1
     9    5    8 1
    10    6    7 1
    11    7    9 1
    12    7   20 1
    13    8    9 2
    14    8   12 1
    15    9   10 1
    16   10   11 2
    17   11   13 1
    18   11   21 1
    19   12   13 2
    20   12   16 1
    21   13   14 1
    22   14   15 1
    23   14   17 2
    24   15   16 1
    25   16   18 2
    26   21   22 2
    27   21   26 1
    28   22   23 1
    29   22   27 1
    30   23   24 2
    31   24   25 1
    32   25   26 2
    33   28   29 1
    34   29   30 1
    35   30   31 1
    36   31   32 1
    37   32   33 1
    38   32   37 1
    39   33   34 1
    40   34   35 1
    41   35   36 1
    42   36   37 1
    43    3   38 1
    44    4   39 1
    45   10   40 1
    46   15   41 1
    47   19   42 1
    48   20   43 1
    49   20   44 1
    50   20   45 1
    51   23   46 1
    52   24   47 1
    53   25   48 1
    54   26   49 1
    55   29   50 1
    56   29   51 1
    57   30   52 1
    58   30   53 1
    59   31   54 1
    60   31   55 1
    61   32   56 1
    62   33   57 1
    63   33   58 1
    64   34   59 1
    65   34   60 1
    66   36   61 1
    67   36   62 1
    68   37   63 1
    69   37   64 1
@<TRIPOS>PROPERTY_DATA
  Total_Score	| 13.5188
  Crash		| -0.7877
  Polar		| 8.0616
  FragIndex	| 1
  FragRMSD	| 0.120

