@<TRIPOS>MOLECULE
BindingDB_50279709
 62 67 0 0 0
SMALL
NO_CHARGES


@<TRIPOS>ATOM
1    C         6.4701   55.4360   22.1910  C     
2    C         5.5195   55.1006   21.2014  C     
3    C         4.2690   54.5753   21.5940  C     
4    C         6.1826   55.2252   23.5553  C     
5    C         4.9292   54.6916   23.9323  C     
6    C         3.9742   54.3763   22.9565  C     
7    N         2.8175   53.9871   23.5439  N     
8    C         4.3242   54.4548   25.1736  C     
9    C         3.0134   54.0198   24.8986  C     
10   C         2.1141   53.7215   25.9487  C     
11   C         2.5063   53.8911   27.2998  C     
12   C         4.7326   54.5976   26.5235  C     
13   C         3.8301   54.3291   27.5656  C     
14   C         4.5078   54.5571   28.7335  C     
15   N         5.7274   54.9304   28.4366  N     
16   C         5.8999   54.9614   27.1367  C     
17   O         4.0944   54.4251   29.8775  O     
18   O         6.9745   55.2286   26.6267  O     
19   C         1.5804   53.5956   28.3359  C     
20   C         1.0896   54.5841   29.2296  C     
21   C         0.1621   54.2229   30.2293  C     
22   C        -0.2900   52.8971   30.3395  C     
23   C         0.1816   51.9176   29.4505  C     
24   C         1.1169   52.2632   28.4557  C     
25   Cl        1.5451   56.2190   29.1252  Cl    
26   O         5.7411   55.3761   19.8735  O     
27   C         6.4789   54.3824   19.1306  C     
28   C         7.9576   54.7808   18.9729  C     
29   C         8.7166   53.9923   17.8708  C     
30   N         7.8538   53.4613   16.8529  N     
31   C         1.5543   53.7522   22.8814  C     
32   C         7.4080   54.1508   15.7817  C     
33   C         6.5425   53.3430   15.0604  C     
34   C         6.4925   52.1219   15.7095  C     
35   C         7.3234   52.2213   16.8204  C     
36   C         1.4778   52.3993   22.1281  C     
37   O         1.9662   52.5020   20.7913  O     
38   O         7.6279   56.0439   21.8287  O     
39   H         3.5683   54.3909   20.8776  H     
40   H         6.8539   55.5077   24.2541  H     
41   H         1.1731   53.3896   25.7371  H     
42   H         6.4126   55.1412   29.0879  H     
43   H        -0.1969   54.9279   30.8780  H     
44   H        -0.9584   52.6423   31.0655  H     
45   H        -0.1554   50.9561   29.5186  H     
46   H         1.4526   51.5323   27.8221  H     
47   H         6.4035   53.3707   19.5553  H     
48   H         6.0232   54.3265   18.1335  H     
49   H         8.0055   55.8507   18.7308  H     
50   H         8.4686   54.6392   19.9325  H     
51   H         9.4631   54.6465   17.4120  H     
52   H         9.2808   53.1746   18.3491  H     
53   H         0.7268   53.7822   23.5853  H     
54   H         1.3601   54.5683   22.1795  H     
55   H         7.6154   55.1308   15.5618  H     
56   H         6.0370   53.6002   14.2104  H     
57   H         5.9590   51.3026   15.4276  H     
58   H         7.4738   51.4846   17.5086  H     
59   H         2.0735   51.6502   22.6547  H     
60   H         0.4430   52.0622   22.0781  H     
61   H         1.5796   53.3450   20.4490  H     
62   H         8.3191   55.7250   22.4422  H     
@<TRIPOS>BOND
     1    1    2 2
     2    1    4 1
     3    1   38 1
     4    2    3 1
     5    2   26 1
     6    3    6 2
     7    4    5 2
     8    5    6 1
     9    5    8 1
    10    6    7 1
    11    7    9 1
    12    7   31 1
    13    8    9 2
    14    8   12 1
    15    9   10 1
    16   10   11 2
    17   11   13 1
    18   11   19 1
    19   12   13 2
    20   12   16 1
    21   13   14 1
    22   14   15 1
    23   14   17 2
    24   15   16 1
    25   16   18 2
    26   19   20 2
    27   19   24 1
    28   20   21 1
    29   20   25 1
    30   21   22 2
    31   22   23 1
    32   23   24 2
    33   26   27 1
    34   27   28 1
    35   28   29 1
    36   29   30 1
    37   30   32 1
    38   30   35 1
    39   31   36 1
    40   32   33 2
    41   33   34 1
    42   34   35 2
    43   36   37 1
    44    3   39 1
    45    4   40 1
    46   10   41 1
    47   15   42 1
    48   21   43 1
    49   22   44 1
    50   23   45 1
    51   24   46 1
    52   27   47 1
    53   27   48 1
    54   28   49 1
    55   28   50 1
    56   29   51 1
    57   29   52 1
    58   31   53 1
    59   31   54 1
    60   32   55 1
    61   33   56 1
    62   34   57 1
    63   35   58 1
    64   36   59 1
    65   36   60 1
    66   37   61 1
    67   38   62 1
@<TRIPOS>PROPERTY_DATA
  Total_Score	| 12.8963
  Crash		| -1.1612
  Polar		| 6.5328
  FragIndex	| 1
  FragRMSD	| 0.155

