@<TRIPOS>MOLECULE
BindingDB_50232227
 68 73 0 0 0
SMALL
NO_CHARGES


@<TRIPOS>ATOM
1    C         6.5815   55.4600   22.2048  C     
2    C         5.6516   55.0882   21.2026  C     
3    C         4.3910   54.5900   21.5773  C     
4    C         6.2667   55.2668   23.5723  C     
5    C         5.0082   54.7326   23.9380  C     
6    C         4.0780   54.4116   22.9389  C     
7    N         2.9084   54.0227   23.5032  N     
8    C         4.3725   54.4977   25.1700  C     
9    C         3.0697   54.0669   24.8596  C     
10   C         2.1419   53.7701   25.8878  C     
11   C         2.5047   53.8976   27.2535  C     
12   C         4.7536   54.6042   26.5260  C     
13   C         3.8307   54.3057   27.5448  C     
14   C         4.4951   54.4785   28.7300  C     
15   N         5.7252   54.8602   28.4625  N     
16   C         5.9132   54.9460   27.1638  C     
17   O         4.0636   54.3122   29.8608  O     
18   O         6.9799   55.2655   26.6679  O     
19   C         1.5592   53.5869   28.2739  C     
20   C         1.0411   54.5693   29.1642  C     
21   C         0.1260   54.1942   30.1734  C     
22   C        -0.2936   52.8604   30.2945  C     
23   C         0.1913   51.8884   29.4046  C     
24   C         1.1146   52.2486   28.4049  C     
25   Cl        1.4506   56.2118   29.0553  Cl    
26   O         5.8833   55.3481   19.8828  O     
27   C         6.6737   54.3866   19.1472  C     
28   C         8.1595   54.8249   19.1192  C     
29   C         9.0366   54.1238   18.0349  C     
30   N        10.4149   54.7046   17.8760  N     
31   C         1.6888   53.7904   22.7689  C     
32   C         1.7347   52.5134   21.8953  C     
33   O         0.7250   52.5594   20.8915  O     
34   O         7.7532   56.0598   21.8536  O     
35   C        11.3479   53.7735   17.1596  C     
36   C        12.7563   54.3970   16.9911  C     
37   O        12.6742   55.6854   16.3545  O     
38   C        11.8469   56.6185   17.0721  C     
39   C        10.4131   56.0627   17.2361  C     
40   H         3.7009   54.3982   20.8491  H     
41   H         6.9329   55.5766   24.2798  H     
42   H         1.1992   53.4638   25.6413  H     
43   H         6.4005   55.0532   29.1331  H     
44   H        -0.2445   54.8925   30.8221  H     
45   H        -0.9578   52.5969   31.0277  H     
46   H        -0.1254   50.9202   29.4862  H     
47   H         1.4680   51.5175   27.7815  H     
48   H         6.5779   53.3681   19.5376  H     
49   H         6.2873   54.3782   18.1275  H     
50   H         8.1711   55.9072   18.9597  H     
51   H         8.6055   54.6315   20.0963  H     
52   H         9.1161   53.0703   18.3313  H     
53   H         8.5172   54.1468   17.0701  H     
54   H        10.7983   54.8211   18.8187  H     
55   H         0.8305   53.7126   23.4379  H     
56   H         1.4988   54.6619   22.1362  H     
57   H         2.7031   52.3982   21.4057  H     
58   H         1.5646   51.6358   22.5222  H     
59   H         0.9260   53.3625   20.3620  H     
60   H         8.4207   55.7052   22.4808  H     
61   H        11.4551   52.8472   17.7292  H     
62   H        10.9506   53.5246   16.1706  H     
63   H        13.2490   54.4894   17.9624  H     
64   H        13.3695   53.7484   16.3648  H     
65   H        12.2832   56.8397   18.0504  H     
66   H        11.8054   57.5502   16.5063  H     
67   H         9.9350   56.0163   16.2521  H     
68   H         9.8649   56.7780   17.8488  H     
@<TRIPOS>BOND
     1    1    2 2
     2    1    4 1
     3    1   34 1
     4    2    3 1
     5    2   26 1
     6    3    6 2
     7    4    5 2
     8    5    6 1
     9    5    8 1
    10    6    7 1
    11    7    9 1
    12    7   31 1
    13    8    9 2
    14    8   12 1
    15    9   10 1
    16   10   11 2
    17   11   13 1
    18   11   19 1
    19   12   13 2
    20   12   16 1
    21   13   14 1
    22   14   15 1
    23   14   17 2
    24   15   16 1
    25   16   18 2
    26   19   20 2
    27   19   24 1
    28   20   21 1
    29   20   25 1
    30   21   22 2
    31   22   23 1
    32   23   24 2
    33   26   27 1
    34   27   28 1
    35   28   29 1
    36   29   30 1
    37   30   35 1
    38   30   39 1
    39   31   32 1
    40   32   33 1
    41   35   36 1
    42   36   37 1
    43   37   38 1
    44   38   39 1
    45    3   40 1
    46    4   41 1
    47   10   42 1
    48   15   43 1
    49   21   44 1
    50   22   45 1
    51   23   46 1
    52   24   47 1
    53   27   48 1
    54   27   49 1
    55   28   50 1
    56   28   51 1
    57   29   52 1
    58   29   53 1
    59   30   54 1
    60   31   55 1
    61   31   56 1
    62   32   57 1
    63   32   58 1
    64   33   59 1
    65   34   60 1
    66   35   61 1
    67   35   62 1
    68   36   63 1
    69   36   64 1
    70   38   65 1
    71   38   66 1
    72   39   67 1
    73   39   68 1
@<TRIPOS>PROPERTY_DATA
  Total_Score	| 14.3973
  Crash		| -1.2227
  Polar		| 7.8631
  FragIndex	| 1
  FragRMSD	| 0.249

