@<TRIPOS>MOLECULE
BindingDB_50232232
 59 63 0 0 0
SMALL
NO_CHARGES


@<TRIPOS>ATOM
1    C         6.4948   55.4504   22.2244  C     
2    C         5.5766   55.0692   21.2160  C     
3    C         4.4040   54.3711   21.5983  C     
4    C         6.2140   55.2162   23.5878  C     
5    C         5.0029   54.5937   23.9493  C     
6    C         4.0995   54.1804   22.9599  C     
7    N         2.9734   53.7027   23.5411  N     
8    C         4.3992   54.3364   25.1843  C     
9    C         3.1216   53.8249   24.8964  C     
10   C         2.2000   53.5602   25.9345  C     
11   C         2.5552   53.7835   27.2889  C     
12   C         4.7843   54.5070   26.5355  C     
13   C         3.8728   54.2311   27.5633  C     
14   C         4.5318   54.4625   28.7416  C     
15   N         5.7498   54.8549   28.4573  N     
16   C         5.9407   54.8946   27.1578  C     
17   O         7.6245   56.1241   21.8933  O     
18   O         4.1131   54.2994   29.8793  O     
19   O         7.0208   55.1602   26.6570  O     
20   C         1.6012   53.5431   28.3132  C     
21   C         1.1110   54.5718   29.1645  C     
22   C         0.1670   54.2632   30.1661  C     
23   C        -0.3120   52.9517   30.3141  C     
24   C         0.1443   51.9385   29.4558  C     
25   C         1.1026   52.2283   28.4713  C     
26   Cl        1.5855   56.1966   29.0155  Cl    
27   O         5.8753   55.5079   19.9418  O     
28   C         5.3394   54.8909   18.7551  C     
29   C         5.9233   53.4676   18.5439  C     
30   C         7.1933   53.4661   17.6506  C     
31   N         7.3561   52.1690   16.8909  N     
32   C         6.6057   52.1343   15.5988  C     
33   C         8.7840   51.7674   16.6967  C     
34   C         1.8234   53.2216   22.8199  C     
35   H         3.7407   54.0476   20.8904  H     
36   H         6.8696   55.5551   24.2917  H     
37   H         1.2536   53.2347   25.7079  H     
38   H         6.4256   55.0681   29.1149  H     
39   H         8.3298   55.7747   22.4825  H     
40   H        -0.1857   54.9947   30.7908  H     
41   H        -0.9945   52.7336   31.0427  H     
42   H        -0.2265   50.9914   29.5466  H     
43   H         1.4360   51.4685   27.8723  H     
44   H         4.2451   54.8774   18.7896  H     
45   H         5.6005   55.5294   17.9065  H     
46   H         6.1622   53.0215   19.5160  H     
47   H         5.1616   52.8362   18.0722  H     
48   H         7.1057   54.3198   16.9609  H     
49   H         8.0705   53.6781   18.2817  H     
50   H         6.9408   51.4339   17.4693  H     
51   H         5.5350   52.2572   15.7925  H     
52   H         6.7435   51.1704   15.0984  H     
53   H         6.9393   52.9250   14.9245  H     
54   H         9.3041   52.4633   16.0368  H     
55   H         8.8450   50.7601   16.2734  H     
56   H         9.3043   51.7491   17.6588  H     
57   H         1.4247   54.0186   22.1881  H     
58   H         1.0243   52.8877   23.4800  H     
59   H         2.1131   52.3756   22.1911  H     
@<TRIPOS>BOND
     1    1    2 2
     2    1    4 1
     3    1   17 1
     4    2    3 1
     5    2   27 1
     6    3    6 2
     7    4    5 2
     8    5    6 1
     9    5    8 1
    10    6    7 1
    11    7    9 1
    12    7   34 1
    13    8    9 2
    14    8   12 1
    15    9   10 1
    16   10   11 2
    17   11   13 1
    18   11   20 1
    19   12   13 2
    20   12   16 1
    21   13   14 1
    22   14   15 1
    23   14   18 2
    24   15   16 1
    25   16   19 2
    26   20   21 2
    27   20   25 1
    28   21   22 1
    29   21   26 1
    30   22   23 2
    31   23   24 1
    32   24   25 2
    33   27   28 1
    34   28   29 1
    35   29   30 1
    36   30   31 1
    37   31   32 1
    38   31   33 1
    39    3   35 1
    40    4   36 1
    41   10   37 1
    42   15   38 1
    43   17   39 1
    44   22   40 1
    45   23   41 1
    46   24   42 1
    47   25   43 1
    48   28   44 1
    49   28   45 1
    50   29   46 1
    51   29   47 1
    52   30   48 1
    53   30   49 1
    54   31   50 1
    55   32   51 1
    56   32   52 1
    57   32   53 1
    58   33   54 1
    59   33   55 1
    60   33   56 1
    61   34   57 1
    62   34   58 1
    63   34   59 1
@<TRIPOS>PROPERTY_DATA
  Total_Score	| 12.7692
  Crash		| -0.7767
  Polar		| 6.4061
  FragIndex	| 1
  FragRMSD	| 0.467

