@<TRIPOS>MOLECULE
BindingDB_50192367
 43 47 0 0 0
SMALL
NO_CHARGES


@<TRIPOS>ATOM
1    C         6.5124   55.3096   22.1365  C     
2    C         5.5838   54.9131   21.1547  C     
3    C         4.3294   54.3973   21.5297  C     
4    C         6.1907   55.1771   23.5046  C     
5    C         4.9292   54.6761   23.8832  C     
6    C         3.9981   54.3016   22.9006  C     
7    N         2.8499   53.8877   23.4907  N     
8    C         4.3069   54.4730   25.1235  C     
9    C         3.0194   53.9878   24.8385  C     
10   C         2.1154   53.6739   25.8751  C     
11   C         2.4820   53.8540   27.2305  C     
12   C         4.6924   54.6481   26.4737  C     
13   C         3.7861   54.3423   27.5042  C     
14   C         4.4452   54.5857   28.6816  C     
15   N         5.6546   55.0111   28.3965  N     
16   C         5.8359   55.0710   27.0989  C     
17   O         4.0214   54.4362   29.8199  O     
18   O         6.8810   55.4425   26.5979  O     
19   O         7.6902   55.8688   21.7525  O     
20   C         1.5589   53.5290   28.2583  C     
21   C         1.0641   54.5000   29.1697  C     
22   C         0.1552   54.1116   30.1750  C     
23   C        -0.2774   52.7762   30.2751  C     
24   C         0.1837   51.8226   29.3536  C     
25   C         1.0996   52.1950   28.3538  C     
26   Cl        1.4999   56.1392   29.0830  Cl    
27   C         1.6776   53.3878   22.8201  C     
28   C         1.6695   51.8439   22.7930  C     
29   H         5.8164   55.0082   20.1634  H     
30   H         3.6651   54.1184   20.8074  H     
31   H         6.8708   55.4704   24.1939  H     
32   H         1.1823   53.3269   25.6468  H     
33   H         6.3243   55.2509   29.0522  H     
34   H         8.3677   55.5073   22.3714  H     
35   H        -0.2055   54.7998   30.8415  H     
36   H        -0.9361   52.5039   31.0075  H     
37   H        -0.1449   50.8573   29.4103  H     
38   H         1.4297   51.4794   27.6965  H     
39   H         0.7680   53.7448   23.3088  H     
40   H         1.6287   53.7610   21.7927  H     
41   H         2.5552   51.4715   22.2737  H     
42   H         0.7781   51.4864   22.2728  H     
43   H         1.6602   51.4485   23.8062  H     
@<TRIPOS>BOND
     1    1    2 2
     2    1    4 1
     3    1   19 1
     4    2    3 1
     5    3    6 2
     6    4    5 2
     7    5    6 1
     8    5    8 1
     9    6    7 1
    10    7    9 1
    11    7   27 1
    12    8    9 2
    13    8   12 1
    14    9   10 1
    15   10   11 2
    16   11   13 1
    17   11   20 1
    18   12   13 2
    19   12   16 1
    20   13   14 1
    21   14   15 1
    22   14   17 2
    23   15   16 1
    24   16   18 2
    25   20   21 2
    26   20   25 1
    27   21   22 1
    28   21   26 1
    29   22   23 2
    30   23   24 1
    31   24   25 2
    32   27   28 1
    33    2   29 1
    34    3   30 1
    35    4   31 1
    36   10   32 1
    37   15   33 1
    38   19   34 1
    39   22   35 1
    40   23   36 1
    41   24   37 1
    42   25   38 1
    43   27   39 1
    44   27   40 1
    45   28   41 1
    46   28   42 1
    47   28   43 1
@<TRIPOS>PROPERTY_DATA
  Total_Score	| 11.0108
  Crash		| -0.4696
  Polar		| 5.3558
  FragIndex	| 1
  FragRMSD	| 0.129

