@<TRIPOS>MOLECULE
BindingDB_50279689
 58 63 0 0 0
SMALL
NO_CHARGES


@<TRIPOS>ATOM
1    C         6.5710   55.3757   22.2008  C     
2    C         5.6435   54.9989   21.1954  C     
3    C         4.3997   54.4666   21.5813  C     
4    C         6.2596   55.1946   23.5653  C     
5    C         5.0111   54.6654   23.9370  C     
6    C         4.0835   54.3287   22.9506  C     
7    N         2.9156   53.9492   23.5234  N     
8    C         4.3740   54.4580   25.1701  C     
9    C         3.0744   54.0162   24.8750  C     
10   C         2.1496   53.7376   25.9101  C     
11   C         2.5116   53.9027   27.2699  C     
12   C         4.7495   54.6171   26.5252  C     
13   C         3.8297   54.3408   27.5502  C     
14   C         4.4927   54.5628   28.7337  C     
15   N         5.7162   54.9512   28.4535  N     
16   C         5.9073   54.9883   27.1556  C     
17   O         7.7211   56.0072   21.8364  O     
18   O         4.0596   54.4248   29.8694  O     
19   O         6.9774   55.2805   26.6504  O     
20   C         1.5766   53.6004   28.2931  C     
21   C         1.0752   54.5854   29.1818  C     
22   C         0.1492   54.2172   30.1796  C     
23   C        -0.2894   52.8834   30.2923  C     
24   C         0.1958   51.9088   29.4051  C     
25   C         1.1233   52.2640   28.4130  C     
26   Cl        1.5282   56.2185   29.0932  Cl    
27   O         5.8237   55.3501   19.8776  O     
28   C         6.7559   54.6036   19.0908  C     
29   C         6.1885   53.2770   18.5318  C     
30   C         6.9997   52.6257   17.3606  C     
31   N         8.0498   53.4389   16.8267  N     
32   C         1.7158   53.6447   22.7960  C     
33   C         7.9576   54.2213   15.7326  C     
34   C         9.1179   54.9800   15.6243  C     
35   C         9.9235   54.6400   16.6964  C     
36   C         9.2335   53.6811   17.4270  C     
37   H         3.7004   54.2449   20.8682  H     
38   H         6.9243   55.5153   24.2559  H     
39   H         1.2059   53.4130   25.6827  H     
40   H         6.3856   55.1707   29.1150  H     
41   H         8.4148   55.6763   22.4470  H     
42   H        -0.2137   54.9158   30.8386  H     
43   H        -0.9548   52.6215   31.0254  H     
44   H        -0.1233   50.9431   29.4853  H     
45   H         1.4725   51.5342   27.7839  H     
46   H         6.9653   55.2741   18.2666  H     
47   H         7.6985   54.4208   19.5938  H     
48   H         6.1282   52.5490   19.3538  H     
49   H         5.1521   53.4585   18.1909  H     
50   H         7.4092   51.6633   17.6985  H     
51   H         6.2982   52.3749   16.5429  H     
52   H         1.4100   54.5253   22.2317  H     
53   H         0.8822   53.3568   23.4333  H     
54   H         1.9039   52.8263   22.1016  H     
55   H         7.1541   54.2809   15.0988  H     
56   H         9.3146   55.6816   14.9112  H     
57   H        10.8304   55.0414   16.9289  H     
58   H         9.5634   53.2661   18.3074  H     
@<TRIPOS>BOND
     1    1    2 2
     2    1    4 1
     3    1   17 1
     4    2    3 1
     5    2   27 1
     6    3    6 2
     7    4    5 2
     8    5    6 1
     9    5    8 1
    10    6    7 1
    11    7    9 1
    12    7   32 1
    13    8    9 2
    14    8   12 1
    15    9   10 1
    16   10   11 2
    17   11   13 1
    18   11   20 1
    19   12   13 2
    20   12   16 1
    21   13   14 1
    22   14   15 1
    23   14   18 2
    24   15   16 1
    25   16   19 2
    26   20   21 2
    27   20   25 1
    28   21   22 1
    29   21   26 1
    30   22   23 2
    31   23   24 1
    32   24   25 2
    33   27   28 1
    34   28   29 1
    35   29   30 1
    36   30   31 1
    37   31   33 1
    38   31   36 1
    39   33   34 2
    40   34   35 1
    41   35   36 2
    42    3   37 1
    43    4   38 1
    44   10   39 1
    45   15   40 1
    46   17   41 1
    47   22   42 1
    48   23   43 1
    49   24   44 1
    50   25   45 1
    51   28   46 1
    52   28   47 1
    53   29   48 1
    54   29   49 1
    55   30   50 1
    56   30   51 1
    57   32   52 1
    58   32   53 1
    59   32   54 1
    60   33   55 1
    61   34   56 1
    62   35   57 1
    63   36   58 1
@<TRIPOS>PROPERTY_DATA
  Total_Score	| 12.2978
  Crash		| -0.6151
  Polar		| 5.4028
  FragIndex	| 1
  FragRMSD	| 0.184

