@<TRIPOS>MOLECULE
BindingDB_50300265
 47 49 0 0 0
SMALL
NO_CHARGES


@<TRIPOS>ATOM
1    C         9.0592    7.0997   21.8357  C     
2    C         8.2116    7.6510   20.8660  C     
3    C         6.8833    7.2099   20.7517  C     
4    C         6.3833    6.2412   21.6560  C     
5    C         7.2394    5.6806   22.6413  C     
6    C         8.5958    6.1194   22.7457  C     
7    O         6.1177    7.7565   19.7534  O     
8    C         6.4492    7.2569   18.4423  C     
9    C         5.8052    8.1324   17.4606  C     
10   O         4.4660    8.2414   17.2621  O     
11   N         4.2723    9.1566   16.3595  N     
12   C         5.4693    9.6400   15.9623  C     
13   N         6.4302    8.9993   16.6507  N     
14   C         5.6904   10.6602   15.0134  C     
15   C         9.4989    5.6356   23.6999  C     
16   O        10.6651    5.4378   23.3591  O     
17   C         9.2716    5.6710   25.0489  C     
18   C         8.9351    6.9451   25.6981  C     
19   C         9.4548    4.5598   25.7888  C     
20   Cl        6.6389    4.4219   23.6179  Cl    
21   C         6.9730   10.8335   14.4418  C     
22   C         7.2107   11.8470   13.4911  C     
23   C         6.1805   12.7399   13.1314  C     
24   C         4.8966   12.5583   13.6764  C     
25   C         4.6488   11.5273   14.6016  C     
26   O         6.3759   13.7016   12.1706  O     
27   Cl        4.7551    5.7773   21.5023  Cl    
28   C         7.4552   14.6167   12.4343  C     
29   C        10.1785    7.7371   26.1704  C     
30   H        10.0230    7.4331   21.8647  H     
31   H         8.5768    8.3589   20.2207  H     
32   H         7.5269    7.2560   18.2569  H     
33   H         6.0742    6.2426   18.3217  H     
34   H         8.3705    7.5916   25.0222  H     
35   H         8.2858    6.7608   26.5553  H     
36   H         9.3321    4.5781   26.7724  H     
37   H         9.7154    3.6933   25.3760  H     
38   H         7.7428   10.2107   14.6847  H     
39   H         8.1306   11.9245   13.0520  H     
40   H         4.1270   13.1704   13.3923  H     
41   H         3.7049   11.4131   14.9789  H     
42   H         7.2900   15.1790   13.3578  H     
43   H         7.5025   15.3253   11.6055  H     
44   H         8.4194   14.1026   12.4912  H     
45   H        10.7338    7.1811   26.9283  H     
46   H         9.8536    8.6824   26.6049  H     
47   H        10.8442    7.9574   25.3325  H     
@<TRIPOS>BOND
     1    1    2 2
     2    1    6 1
     3    2    3 1
     4    3    4 2
     5    3    7 1
     6    4    5 1
     7    4   27 1
     8    5    6 2
     9    5   20 1
    10    6   15 1
    11    7    8 1
    12    8    9 1
    13    9   10 1
    14    9   13 2
    15   10   11 1
    16   11   12 2
    17   12   13 1
    18   12   14 1
    19   14   21 2
    20   14   25 1
    21   15   16 2
    22   15   17 1
    23   17   18 1
    24   17   19 2
    25   18   29 1
    26   21   22 1
    27   22   23 2
    28   23   24 1
    29   23   26 1
    30   24   25 2
    31   26   28 1
    32    1   30 1
    33    2   31 1
    34    8   32 1
    35    8   33 1
    36   18   34 1
    37   18   35 1
    38   19   36 1
    39   19   37 1
    40   21   38 1
    41   22   39 1
    42   24   40 1
    43   25   41 1
    44   28   42 1
    45   28   43 1
    46   28   44 1
    47   29   45 1
    48   29   46 1
    49   29   47 1
@<TRIPOS>PROPERTY_DATA
  Total_Score	| 2.4930
  Crash		| -1.0565
  Polar		| 0.8848
  FragIndex	| 1
  FragRMSD	| 0.672

