@<TRIPOS>MOLECULE
BindingDB_50186230
 105 107 0 0 0
SMALL
NO_CHARGES


@<TRIPOS>ATOM
1    C         4.8127    7.4818   11.6972  C     
2    C         4.1704    6.2172   11.6951  C     
3    C         2.7631    6.1335   11.8211  C     
4    C         1.9775    7.3246   11.9479  C     
5    C         2.6560    8.5695   11.9911  C     
6    C         4.0546    8.6446   11.8849  C     
7    Cl        5.1301    4.8245   11.4801  Cl    
8    Cl        2.0106    4.6013   11.7249  Cl    
9    C         0.5764    7.3406   11.9862  C     
10   C        -0.1904    6.6849   12.9071  C     
11   O        -0.0118    8.0899   11.2079  O     
12   C        -1.2106    5.9046   12.5090  C     
13   O         6.1542    7.6471   11.4462  O     
14   C         0.0878    6.8818   14.3301  C     
15   C        10.6849    9.3319   12.0354  C     
16   C         7.0857   13.1082   11.4337  C     
17   C         6.8304   13.7039   10.1812  C     
18   C         7.8579   14.2854    9.3956  C     
19   C         9.1720   14.2726    9.9301  C     
20   C         9.4670   13.7000   11.1832  C     
21   C         8.4152   13.1100   11.9098  C     
22   C         7.6014   14.8438    8.1391  C     
23   N         6.3933   14.9727    7.6302  N     
24   O         8.5046   15.2322    7.4115  O     
25   C        10.8452   13.6931   11.7405  C     
26   N        11.2061   12.3822   12.1853  N     
27   C        11.9428   11.4879   11.5292  C     
28   C        12.0335   10.1225   12.0264  C     
29   O        12.4921   11.7722   10.4632  O     
30   C         5.9587   12.4939   12.1978  C     
31   N         6.3628   11.7023   13.3217  N     
32   C         6.4923   12.1097   14.5851  C     
33   C         7.2453   11.2986   15.5264  C     
34   O         6.0963   13.2220   14.9419  O     
35   C         6.3782   10.5244   16.5544  C     
36   C         5.8638    9.1610   16.0262  C     
37   N         5.2822    8.3930   17.0748  N     
38   C         9.8067    9.5270   10.7717  C     
39   N         8.5961    8.7683   10.8409  N     
40   C         5.9458    7.6454   17.9598  C     
41   C         5.2272    6.9891   19.0285  C     
42   O         7.1715    7.5413   17.9181  O     
43   O         5.4499    7.6659   20.2851  O     
44   C         6.4388    7.1377   21.0806  C     
45   C         6.1620    6.0735   21.9664  C     
46   C         7.1858    5.5506   22.8016  C     
47   C         8.4947    6.1130   22.7581  C     
48   C         8.7393    7.1903   21.8676  C     
49   C         7.7232    7.7044   21.0512  C     
50   Cl        4.5722    5.4832   22.0275  Cl    
51   Cl        6.8440    4.1899   23.7731  Cl    
52   C         9.5407    5.6907   23.5823  C     
53   C         9.5043    5.7828   24.9429  C     
54   O        10.6446    5.5071   23.0775  O     
55   C         9.0513    7.0112   25.6027  C     
56   C         9.9894    4.7610   25.6895  C     
57   C        10.2278    7.8250   26.1963  C     
58   C         7.6233    8.8148    9.9424  C     
59   C         6.4863    7.9192   10.0624  C     
60   O         7.6505    9.6022    9.0020  O     
61   H         2.1351    9.4456   12.0992  H     
62   H         4.5168    9.5529   11.9091  H     
63   H        -1.7775    5.4325   13.1687  H     
64   H        -1.4163    5.7720   11.5449  H     
65   H         1.0191    6.3832   14.6006  H     
66   H        -0.6997    6.4816   14.9693  H     
67   H         0.1757    7.9451   14.5617  H     
68   H        10.9259    8.2692   12.1401  H     
69   H        10.1103    9.6285   12.9155  H     
70   H         5.8637   13.7113    9.8420  H     
71   H         9.9407   14.6947    9.4013  H     
72   H         8.6305   12.6724   12.8067  H     
73   H         6.2797   15.3594    6.7454  H     
74   H         5.6103   14.6960    8.1301  H     
75   H        11.5799   14.0724   11.0211  H     
76   H        10.8826   14.3559   12.6083  H     
77   H        10.8094   12.0853   13.0227  H     
78   H        12.4237   10.1631   13.0505  H     
79   H        12.7621    9.5575   11.4340  H     
80   H         5.2631   13.2811   12.5045  H     
81   H         5.4049   11.8288   11.5319  H     
82   H         6.7444   10.8321   13.1144  H     
83   H         7.8674   10.5759   14.9905  H     
84   H         7.9329   11.9498   16.0703  H     
85   H         7.0050   10.3564   17.4325  H     
86   H         5.5300   11.1390   16.8662  H     
87   H         5.0859    9.3426   15.2814  H     
88   H         6.6654    8.6032   15.5376  H     
89   H         4.3169    8.4194   17.1587  H     
90   H         9.5748   10.5947   10.6782  H     
91   H        10.3679    9.2181    9.8880  H     
92   H         8.5058    8.1282   11.5579  H     
93   H         4.1500    7.0368   18.8363  H     
94   H         5.4882    5.9218   19.0561  H     
95   H         9.6562    7.6413   21.8300  H     
96   H         7.9204    8.4976   20.4358  H     
97   H         8.5166    7.6709   24.9133  H     
98   H         8.3444    6.7632   26.4016  H     
99   H         9.9986    4.8147   26.6811  H     
100  H        10.3329    3.9286   25.2728  H     
101  H        10.7844    7.2392   26.9340  H     
102  H         9.8345    8.7154   26.6914  H     
103  H        10.9132    8.1436   25.4066  H     
104  H         6.7498    6.9704    9.6033  H     
105  H         5.6411    8.3230    9.4888  H     
@<TRIPOS>BOND
     1    1    2 2
     2    1    6 1
     3    1   13 1
     4    2    3 1
     5    2    7 1
     6    3    4 2
     7    3    8 1
     8    4    5 1
     9    4    9 1
    10    5    6 2
    11    9   10 1
    12    9   11 2
    13   10   12 2
    14   10   14 1
    15   13   59 1
    16   15   28 1
    17   15   38 1
    18   16   17 2
    19   16   21 1
    20   16   30 1
    21   17   18 1
    22   18   19 2
    23   18   22 1
    24   19   20 1
    25   20   21 2
    26   20   25 1
    27   22   23 am
    28   22   24 2
    29   25   26 1
    30   26   27 am
    31   27   28 1
    32   27   29 2
    33   30   31 1
    34   31   32 am
    35   32   33 1
    36   32   34 2
    37   33   35 1
    38   35   36 1
    39   36   37 1
    40   37   40 am
    41   38   39 1
    42   39   58 am
    43   40   41 1
    44   40   42 2
    45   41   43 1
    46   43   44 1
    47   44   45 2
    48   44   49 1
    49   45   46 1
    50   45   50 1
    51   46   47 2
    52   46   51 1
    53   47   48 1
    54   47   52 1
    55   48   49 2
    56   52   53 1
    57   52   54 2
    58   53   55 1
    59   53   56 2
    60   55   57 1
    61   58   59 1
    62   58   60 2
    63    5   61 1
    64    6   62 1
    65   12   63 1
    66   12   64 1
    67   14   65 1
    68   14   66 1
    69   14   67 1
    70   15   68 1
    71   15   69 1
    72   17   70 1
    73   19   71 1
    74   21   72 1
    75   23   73 1
    76   23   74 1
    77   25   75 1
    78   25   76 1
    79   26   77 1
    80   28   78 1
    81   28   79 1
    82   30   80 1
    83   30   81 1
    84   31   82 1
    85   33   83 1
    86   33   84 1
    87   35   85 1
    88   35   86 1
    89   36   87 1
    90   36   88 1
    91   37   89 1
    92   38   90 1
    93   38   91 1
    94   39   92 1
    95   41   93 1
    96   41   94 1
    97   48   95 1
    98   49   96 1
    99   55   97 1
   100   55   98 1
   101   56   99 1
   102   56  100 1
   103   57  101 1
   104   57  102 1
   105   57  103 1
   106   59  104 1
   107   59  105 1
@<TRIPOS>PROPERTY_DATA
  Total_Score	| 1.0575
  Crash		| -2.2890
  Polar		| 1.3022
  FragIndex	| 1
  FragRMSD	| 0.388

