@<TRIPOS>MOLECULE
BindingDB_50300261
 36 37 0 0 0
SMALL
NO_CHARGES


@<TRIPOS>ATOM
1    C         8.9550    7.1493   21.8696  C     
2    C         8.0295    7.6595   20.9485  C     
3    C         6.7256    7.1527   20.9052  C     
4    C         6.3268    6.1410   21.8134  C     
5    C         7.2661    5.6017   22.7270  C     
6    C         8.5980    6.1205   22.7771  C     
7    O         5.8872    7.6818   19.9575  O     
8    C         5.7207    6.8397   18.8010  C     
9    C         5.1427    7.6612   17.7400  C     
10   O         5.8144    8.5708   17.0040  O     
11   N         4.9668    9.1110   16.1723  N     
12   C         3.7583    8.5615   16.3801  C     
13   N         3.8555    7.6547   17.3613  N     
14   C         2.5291    8.9210   15.6632  C     
15   C         9.5648    5.6916   23.6897  C     
16   O        10.7131    5.5457   23.2895  O     
17   C         9.3754    5.7065   25.0464  C     
18   C         8.9731    6.9451   25.7261  C     
19   C         9.6652    4.6070   25.7671  C     
20   Cl        6.8155    4.2763   23.7015  Cl    
21   Cl        4.7182    5.5874   21.7705  Cl    
22   C        10.1896    7.7606   26.2167  C     
23   H         9.8936    7.5550   21.8798  H     
24   H         8.3217    8.3973   20.3040  H     
25   H         6.6740    6.4351   18.4384  H     
26   H         5.0525    6.0078   19.0283  H     
27   H         2.3502    9.9956   15.7431  H     
28   H         1.6660    8.3953   16.0765  H     
29   H         2.6254    8.6584   14.6086  H     
30   H         8.3877    7.5933   25.0663  H     
31   H         8.3244    6.7209   26.5810  H     
32   H         9.5819    4.6060   26.7585  H     
33   H         9.9708    3.7660   25.3356  H     
34   H        10.7702    7.1953   26.9476  H     
35   H         9.8406    8.6801   26.6857  H     
36   H        10.8319    8.0229   25.3742  H     
@<TRIPOS>BOND
     1    1    2 2
     2    1    6 1
     3    2    3 1
     4    3    4 2
     5    3    7 1
     6    4    5 1
     7    4   21 1
     8    5    6 2
     9    5   20 1
    10    6   15 1
    11    7    8 1
    12    8    9 1
    13    9   10 1
    14    9   13 2
    15   10   11 1
    16   11   12 2
    17   12   13 1
    18   12   14 1
    19   15   16 2
    20   15   17 1
    21   17   18 1
    22   17   19 2
    23   18   22 1
    24    1   23 1
    25    2   24 1
    26    8   25 1
    27    8   26 1
    28   14   27 1
    29   14   28 1
    30   14   29 1
    31   18   30 1
    32   18   31 1
    33   19   32 1
    34   19   33 1
    35   22   34 1
    36   22   35 1
    37   22   36 1
@<TRIPOS>PROPERTY_DATA
  Total_Score	| 2.6193
  Crash		| -0.8010
  Polar		| 1.0258
  FragIndex	| 1
  FragRMSD	| 0.465

