@<TRIPOS>MOLECULE
BindingDB_50300263
 43 45 0 0 0
SMALL
NO_CHARGES


@<TRIPOS>ATOM
1    C         8.8789    7.1660   21.9255  C     
2    C         7.9368    7.6909   21.0279  C     
3    C         6.6390    7.1513   20.9690  C     
4    C         6.2642    6.1140   21.8497  C     
5    C         7.2160    5.5737   22.7518  C     
6    C         8.5461    6.0983   22.7940  C     
7    O         5.7414    7.7013   20.0985  O     
8    C         5.8448    7.2899   18.7202  C     
9    C         5.8392    8.5022   17.8903  C     
10   O         6.5175    8.6694   16.7338  O     
11   N         6.3405    9.8993   16.3387  N     
12   C         5.5555   10.5315   17.2330  C     
13   N         5.2407    9.6606   18.2047  N     
14   C         5.1702   11.8931   17.1874  C     
15   C         9.5275    5.6352   23.6674  C     
16   O        10.6594    5.4607   23.2224  O     
17   C         9.4031    5.6769   25.0339  C     
18   C         8.9838    6.9148   25.7044  C     
19   C         9.8015    4.6231   25.7754  C     
20   Cl        6.7670    4.2557   23.7374  Cl    
21   C         4.0922   12.3730   17.9685  C     
22   C         3.7119   13.7286   17.9155  C     
23   C         4.4109   14.6248   17.0895  C     
24   C         5.5062   14.1683   16.3340  C     
25   C         5.8769   12.8134   16.3791  C     
26   F         4.0622   15.8815   17.0449  F     
27   Cl        4.6709    5.5188   21.7373  Cl    
28   C        10.2054    7.7542   26.1454  C     
29   H         9.8162    7.5847   21.9352  H     
30   H         8.1951    8.4705   20.4142  H     
31   H         6.7441    6.7099   18.4795  H     
32   H         4.9680    6.6824   18.4624  H     
33   H         8.3670    7.5410   25.0483  H     
34   H         8.3658    6.6839   26.5768  H     
35   H         9.7749    4.6467   26.7649  H     
36   H        10.1476    3.7937   25.3516  H     
37   H         3.5603   11.7408   18.5712  H     
38   H         2.9201   14.0549   18.4771  H     
39   H         6.0385   14.8183   15.7513  H     
40   H         6.6775   12.5112   15.8164  H     
41   H        10.8133    7.1898   26.8604  H     
42   H         9.8613    8.6660   26.6262  H     
43   H        10.8290    8.0236   25.2894  H     
@<TRIPOS>BOND
     1    1    2 2
     2    1    6 1
     3    2    3 1
     4    3    4 2
     5    3    7 1
     6    4    5 1
     7    4   27 1
     8    5    6 2
     9    5   20 1
    10    6   15 1
    11    7    8 1
    12    8    9 1
    13    9   10 1
    14    9   13 2
    15   10   11 1
    16   11   12 2
    17   12   13 1
    18   12   14 1
    19   14   21 2
    20   14   25 1
    21   15   16 2
    22   15   17 1
    23   17   18 1
    24   17   19 2
    25   18   28 1
    26   21   22 1
    27   22   23 2
    28   23   24 1
    29   23   26 1
    30   24   25 2
    31    1   29 1
    32    2   30 1
    33    8   31 1
    34    8   32 1
    35   18   33 1
    36   18   34 1
    37   19   35 1
    38   19   36 1
    39   21   37 1
    40   22   38 1
    41   24   39 1
    42   25   40 1
    43   28   41 1
    44   28   42 1
    45   28   43 1
@<TRIPOS>PROPERTY_DATA
  Total_Score	| 2.9108
  Crash		| -0.7235
  Polar		| 1.0894
  FragIndex	| 1
  FragRMSD	| 0.358

