@<TRIPOS>MOLECULE
BindingDB_50300266
 43 45 0 0 0
SMALL
NO_CHARGES


@<TRIPOS>ATOM
1    C         8.9406    7.1495   21.8357  C     
2    C         8.0148    7.6499   20.9167  C     
3    C         6.7047    7.1558   20.8902  C     
4    C         6.3000    6.1637   21.8165  C     
5    C         7.2396    5.6394   22.7431  C     
6    C         8.5774    6.1421   22.7648  C     
7    O         5.8639    7.6929   19.9555  O     
8    C         5.7112    6.8812   18.7768  C     
9    C         5.1954    7.7675   17.7313  C     
10   O         5.9434    8.7235   17.1203  O     
11   N         5.1679    9.3271   16.2683  N     
12   C         3.9396    8.7724   16.3123  C     
13   N         3.9572    7.7830   17.2313  N     
14   C         2.8174    9.1843   15.5437  C     
15   C         9.5536    5.7078   23.6711  C     
16   O        10.7063    5.5638   23.2734  O     
17   C         9.3770    5.7051   25.0263  C     
18   C         8.9728    6.9394   25.7103  C     
19   C         9.6760    4.6054   25.7423  C     
20   Cl        6.7677    4.3473   23.7522  Cl    
21   C         1.6268    8.4176   15.5110  C     
22   C         0.5081    8.8500   14.7687  C     
23   C         0.5606   10.0565   14.0501  C     
24   C         1.7423   10.8242   14.0617  C     
25   C         2.8561   10.3932   14.8053  C     
26   Cl       -0.7849   10.5872   13.1728  Cl    
27   Cl        4.6870    5.6290   21.7894  Cl    
28   C        10.1922    7.7648   26.1917  C     
29   H         9.8830    7.5392   21.8206  H     
30   H         8.2944    8.3722   20.2554  H     
31   H         6.6535    6.4550   18.4155  H     
32   H         5.0027    6.0682   18.9768  H     
33   H         8.3724    7.5807   25.0568  H     
34   H         8.3447    6.7151   26.5792  H     
35   H         9.5947    4.5980   26.7317  H     
36   H         9.9893    3.7706   25.3018  H     
37   H         1.5590    7.5374   16.0263  H     
38   H        -0.3417    8.2801   14.7586  H     
39   H         1.7971   11.6949   13.5298  H     
40   H         3.6931   10.9822   14.8109  H     
41   H        10.7849    7.1906   26.9096  H     
42   H         9.8414    8.6769   26.6807  H     
43   H        10.8230    8.0451   25.3442  H     
@<TRIPOS>BOND
     1    1    2 2
     2    1    6 1
     3    2    3 1
     4    3    4 2
     5    3    7 1
     6    4    5 1
     7    4   27 1
     8    5    6 2
     9    5   20 1
    10    6   15 1
    11    7    8 1
    12    8    9 1
    13    9   10 1
    14    9   13 2
    15   10   11 1
    16   11   12 2
    17   12   13 1
    18   12   14 1
    19   14   21 2
    20   14   25 1
    21   15   16 2
    22   15   17 1
    23   17   18 1
    24   17   19 2
    25   18   28 1
    26   21   22 1
    27   22   23 2
    28   23   24 1
    29   23   26 1
    30   24   25 2
    31    1   29 1
    32    2   30 1
    33    8   31 1
    34    8   32 1
    35   18   33 1
    36   18   34 1
    37   19   35 1
    38   19   36 1
    39   21   37 1
    40   22   38 1
    41   24   39 1
    42   25   40 1
    43   28   41 1
    44   28   42 1
    45   28   43 1
@<TRIPOS>PROPERTY_DATA
  Total_Score	| 2.4420
  Crash		| -0.7699
  Polar		| 1.0451
  FragIndex	| 1
  FragRMSD	| 0.452

