@<TRIPOS>MOLECULE
BindingDB_50300264
 46 48 0 0 0
SMALL
NO_CHARGES


@<TRIPOS>ATOM
1    C         8.9006    7.1683   21.9060  C     
2    C         7.9771    7.6537   20.9702  C     
3    C         6.6774    7.1243   20.9091  C     
4    C         6.2865    6.1230   21.8278  C     
5    C         7.2265    5.6049   22.7606  C     
6    C         8.5492    6.1334   22.8123  C     
7    O         5.8266    7.6646   19.9750  O     
8    C         5.6771    6.8813   18.7803  C     
9    C         4.9863    7.6856   17.7676  C     
10   O         5.5969    8.5726   16.9510  O     
11   N         4.7136    8.9956   16.0926  N     
12   C         3.5428    8.3905   16.3530  C     
13   N         3.7015    7.5647   17.4000  N     
14   C         2.3529    8.5550   15.6140  C     
15   C         9.5261    5.7004   23.7209  C     
16   O        10.6747    5.5404   23.3229  O     
17   C         9.3308    5.6833   25.0750  C     
18   C         8.9405    6.9157   25.7718  C     
19   C         9.6075    4.5741   25.7841  C     
20   Cl        6.7693    4.2842   23.7388  Cl    
21   C         2.3828    8.7072   14.2115  C     
22   C         1.1878    8.8461   13.4811  C     
23   C        -0.0677    8.8769   14.1357  C     
24   C        -0.0853    8.7419   15.5448  C     
25   C         1.1050    8.5631   16.2703  C     
26   C        -1.3117    9.0396   13.3349  C     
27   F        -2.4685    9.0844   14.0790  F     
28   F        -1.2607   10.2073   12.6104  F     
29   F        -1.4438    7.9899   12.4572  F     
30   Cl        4.6732    5.5929   21.8089  Cl    
31   C        10.1688    7.7621   26.1725  C     
32   H         9.8306    7.5941   21.9261  H     
33   H         8.2477    8.4060   20.3365  H     
34   H         6.6388    6.5792   18.3550  H     
35   H         5.0912    5.9809   18.9845  H     
36   H         8.2831    7.5304   25.1514  H     
37   H         8.3695    6.6784   26.6751  H     
38   H         9.5335    4.5628   26.7750  H     
39   H         9.8813    3.7279   25.3373  H     
40   H         3.2738    8.6911   13.7003  H     
41   H         1.2395    8.9376   12.4624  H     
42   H        -0.9670    8.7688   16.0630  H     
43   H         1.0515    8.4712   17.2898  H     
44   H        10.8079    7.2033   26.8585  H     
45   H         9.8369    8.6745   26.6686  H     
46   H        10.7483    8.0391   25.2886  H     
@<TRIPOS>BOND
     1    1    2 2
     2    1    6 1
     3    2    3 1
     4    3    4 2
     5    3    7 1
     6    4    5 1
     7    4   30 1
     8    5    6 2
     9    5   20 1
    10    6   15 1
    11    7    8 1
    12    8    9 1
    13    9   10 1
    14    9   13 2
    15   10   11 1
    16   11   12 2
    17   12   13 1
    18   12   14 1
    19   14   21 2
    20   14   25 1
    21   15   16 2
    22   15   17 1
    23   17   18 1
    24   17   19 2
    25   18   31 1
    26   21   22 1
    27   22   23 2
    28   23   24 1
    29   23   26 1
    30   24   25 2
    31   26   27 1
    32   26   28 1
    33   26   29 1
    34    1   32 1
    35    2   33 1
    36    8   34 1
    37    8   35 1
    38   18   36 1
    39   18   37 1
    40   19   38 1
    41   19   39 1
    42   21   40 1
    43   22   41 1
    44   24   42 1
    45   25   43 1
    46   31   44 1
    47   31   45 1
    48   31   46 1
@<TRIPOS>PROPERTY_DATA
  Total_Score	| 2.6340
  Crash		| -0.7353
  Polar		| 1.0224
  FragIndex	| 1
  FragRMSD	| 0.516

