@<TRIPOS>MOLECULE
BindingDB_50186229
 96 98 0 0 0
SMALL
NO_CHARGES


@<TRIPOS>ATOM
1    C         6.8089    7.2520   20.8412  C     
2    C         6.3603    6.2085   21.6924  C     
3    C         7.2342    5.6909   22.6866  C     
4    C         8.5246    6.2536   22.8494  C     
5    C         8.9177    7.3563   22.0337  C     
6    C         8.0562    7.8473   21.0546  C     
7    C         9.4666    5.7412   23.7244  C     
8    O        10.4869    5.3442   23.1666  O     
9    C         9.4726    6.0507   25.0762  C     
10   C        10.7445    6.3687   25.7448  C     
11   C         8.3347    6.0725   25.8071  C     
12   C        11.4750    5.1135   26.2801  C     
13   C         6.0096    7.4832    8.5479  C     
14   C         5.6616    8.8563    8.4915  C     
15   C         5.1683    9.5524    9.6215  C     
16   C         4.9659    8.8003   10.8128  C     
17   C         5.3476    7.4512   10.9211  C     
18   C         5.8903    6.8129    9.7787  C     
19   C         4.9185   10.9329    9.5960  C     
20   N         5.2258   11.7114    8.5864  N     
21   O         4.4872   11.5261   10.5835  O     
22   C         5.1405    6.6911   12.1884  C     
23   N         5.2879    7.4901   13.3643  N     
24   C         6.4121    7.9790   13.8632  C     
25   C         6.3632    8.7710   15.0796  C     
26   O         7.4979    7.7621   13.3321  O     
27   C         6.5835    6.7833    7.3678  C     
28   N         6.3278    5.3751    7.3830  N     
29   C         7.1466    4.4405    6.8939  C     
30   C         6.8931    3.0332    7.1555  C     
31   O         8.1672    4.7605    6.2872  O     
32   N         6.5893    7.9323   16.2183  N     
33   N         5.5886    2.6097    6.7375  N     
34   C         6.0985    8.1276   17.4355  C     
35   O         5.4145    9.1087   17.6842  O     
36   C         6.4450    7.2079   18.5033  C     
37   O         6.0460    7.7093   19.8045  O     
38   Cl        4.7949    5.5905   21.4603  Cl    
39   Cl        6.7429    4.3523   23.6242  Cl    
40   C         4.5020    2.5364    7.4950  C     
41   C         3.2689    1.9772    6.9569  C     
42   O         4.4994    2.9051    8.6663  O     
43   O         2.3696    2.9707    6.4283  O     
44   C         1.5960    3.6899    7.3118  C     
45   C         1.8613    5.0579    7.5374  C     
46   C         0.9889    5.8276    8.3551  C     
47   C        -0.1338    5.2146    8.9736  C     
48   C        -0.3480    3.8252    8.7782  C     
49   C         0.4851    3.0824    7.9264  C     
50   Cl        3.2244    5.7496    6.7879  Cl    
51   Cl        1.3200    7.4784    8.6191  Cl    
52   C        -1.0639    5.9373    9.7187  C     
53   C        -1.1398    5.8985   11.0739  C     
54   O        -1.9464    6.5542    9.1060  O     
55   C         0.0070    6.4515   11.8183  C     
56   C        -2.3091    5.5839   11.6708  C     
57   C         0.3832    5.7609   13.1474  C     
58   H         9.8394    7.7914   22.1603  H     
59   H         8.3596    8.6237   20.4665  H     
60   H        11.4096    6.9005   25.0540  H     
61   H        10.5976    7.0471   26.5957  H     
62   H         8.3539    6.2955   26.7831  H     
63   H         7.4475    5.8879   25.3929  H     
64   H        10.8575    4.6076   27.0268  H     
65   H        12.4161    5.4061   26.7497  H     
66   H        11.7029    4.4114   25.4771  H     
67   H         5.7913    9.3542    7.6068  H     
68   H         4.5678    9.2544   11.6322  H     
69   H         6.1802    5.8325    9.8586  H     
70   H         5.0830   12.6700    8.6526  H     
71   H         5.6145   11.3452    7.7758  H     
72   H         4.1197    6.3206   12.1723  H     
73   H         5.8030    5.8211   12.2641  H     
74   H         4.4689    7.6825   13.8535  H     
75   H         7.1298    9.5445   15.0586  H     
76   H         5.3970    9.2803   15.1365  H     
77   H         6.1844    7.1893    6.4307  H     
78   H         7.6652    6.9668    7.3743  H     
79   H         5.5344    5.0648    7.8213  H     
80   H         7.6040    2.4260    6.5991  H     
81   H         7.0488    2.8199    8.2141  H     
82   H         7.1957    7.1819   16.1021  H     
83   H         5.5214    2.2646    5.8311  H     
84   H         5.9317    6.2609   18.3322  H     
85   H         7.5231    7.0262   18.4281  H     
86   H         3.4970    1.3047    6.1287  H     
87   H         2.7868    1.3708    7.7231  H     
88   H        -1.1523    3.3524    9.1965  H     
89   H         0.2745    2.1043    7.7494  H     
90   H         0.9107    6.4092   11.1854  H     
91   H        -0.1990    7.5096   12.0209  H     
92   H        -2.4200    5.6368   12.6581  H     
93   H        -3.0966    5.2738   11.1343  H     
94   H        -0.3795    5.9208   13.9034  H     
95   H         1.3112    6.1920   13.5408  H     
96   H         0.5327    4.6871   12.9975  H     
@<TRIPOS>BOND
     1    1    2 2
     2    1    6 1
     3    1   37 1
     4    2    3 1
     5    2   38 1
     6    3    4 2
     7    3   39 1
     8    4    5 1
     9    4    7 1
    10    5    6 2
    11    7    8 2
    12    7    9 1
    13    9   10 1
    14    9   11 2
    15   10   12 1
    16   13   14 2
    17   13   18 1
    18   13   27 1
    19   14   15 1
    20   15   16 2
    21   15   19 1
    22   16   17 1
    23   17   18 2
    24   17   22 1
    25   19   20 am
    26   19   21 2
    27   22   23 1
    28   23   24 am
    29   24   25 1
    30   24   26 2
    31   25   32 1
    32   27   28 1
    33   28   29 am
    34   29   30 1
    35   29   31 2
    36   30   33 1
    37   32   34 am
    38   33   40 am
    39   34   35 2
    40   34   36 1
    41   36   37 1
    42   40   41 1
    43   40   42 2
    44   41   43 1
    45   43   44 1
    46   44   45 2
    47   44   49 1
    48   45   46 1
    49   45   50 1
    50   46   47 2
    51   46   51 1
    52   47   48 1
    53   47   52 1
    54   48   49 2
    55   52   53 1
    56   52   54 2
    57   53   55 1
    58   53   56 2
    59   55   57 1
    60    5   58 1
    61    6   59 1
    62   10   60 1
    63   10   61 1
    64   11   62 1
    65   11   63 1
    66   12   64 1
    67   12   65 1
    68   12   66 1
    69   14   67 1
    70   16   68 1
    71   18   69 1
    72   20   70 1
    73   20   71 1
    74   22   72 1
    75   22   73 1
    76   23   74 1
    77   25   75 1
    78   25   76 1
    79   27   77 1
    80   27   78 1
    81   28   79 1
    82   30   80 1
    83   30   81 1
    84   32   82 1
    85   33   83 1
    86   36   84 1
    87   36   85 1
    88   41   86 1
    89   41   87 1
    90   48   88 1
    91   49   89 1
    92   55   90 1
    93   55   91 1
    94   56   92 1
    95   56   93 1
    96   57   94 1
    97   57   95 1
    98   57   96 1
@<TRIPOS>PROPERTY_DATA
  Total_Score	| 5.0746
  Crash		| -3.6894
  Polar		| 4.0013
  FragIndex	| 1
  FragRMSD	| 1.279

