@<TRIPOS>MOLECULE
BindingDB_50186226
 62 63 0 0 0
SMALL
NO_CHARGES


@<TRIPOS>ATOM
1    C         6.4676    7.1522   20.9570  C     
2    C         7.7824    7.6522   20.9088  C     
3    C         8.7656    7.1173   21.7536  C     
4    C         8.4609    6.1016   22.6869  C     
5    C         7.1420    5.5562   22.6956  C     
6    C         6.1475    6.0968   21.8425  C     
7    Cl        4.5469    5.5159   21.8652  Cl    
8    Cl        6.7452    4.2332   23.6963  Cl    
9    C         9.4635    5.6724   23.5680  C     
10   O        10.5761    5.4218   23.1094  O     
11   C         9.3421    5.7671   24.9313  C     
12   C         9.0673    7.0787   25.5353  C     
13   C         9.5720    4.6872   25.7045  C     
14   C        10.3636    7.8322   25.9447  C     
15   C        11.4992   10.3405   20.4313  C     
16   C        12.1398   10.3359   19.1780  C     
17   C        12.0140   11.4242   18.2792  C     
18   C        11.1806   12.5024   18.6747  C     
19   C        10.5081   12.5076   19.9213  C     
20   C        10.6921   11.4234   20.8031  C     
21   C        12.6681   11.4339   17.0405  C     
22   N        13.5694   10.5425   16.6783  N     
23   O        12.4604   12.3177   16.2131  O     
24   C         9.6020   13.6230   20.3026  C     
25   N         8.2413   13.2220   20.0841  N     
26   C         7.5631   13.3412   18.9505  C     
27   C         6.2193   12.7927   18.8248  C     
28   O         8.0243   13.9716   18.0011  O     
29   C         5.9424   12.0752   17.4607  C     
30   C         6.6172   10.6961   17.2950  C     
31   N         5.8921    9.6465   17.9574  N     
32   C         6.2957    8.3877   18.0546  C     
33   C         5.4824    7.4361   18.7856  C     
34   O         7.3521    8.0134   17.5543  O     
35   O         5.4872    7.7419   20.1942  O     
36   H         8.0217    8.4250   20.2880  H     
37   H         9.6985    7.5258   21.7166  H     
38   H         8.4926    7.7042   24.8404  H     
39   H         8.4460    6.9800   26.4351  H     
40   H         9.5271    4.7431   26.6960  H     
41   H         9.7905    3.8080   25.3104  H     
42   H        10.8979    7.2550   26.7071  H     
43   H        10.0910    8.8042   26.3614  H     
44   H        11.0284    7.9918   25.0855  H     
45   H        11.6114    9.5516   21.0631  H     
46   H        12.7080    9.5226   18.9398  H     
47   H        11.0478   13.3021   18.0508  H     
48   H        10.2186   11.4061   21.7154  H     
49   H        14.0035   10.6223   15.8088  H     
50   H        13.8159    9.8150   17.2752  H     
51   H         9.7274   13.8590   21.3642  H     
52   H         9.8277   14.5450   19.7476  H     
53   H         7.8096   12.7435   20.8120  H     
54   H         6.0175   12.0827   19.6352  H     
55   H         5.5145   13.6270   18.9244  H     
56   H         4.8511   11.9729   17.3248  H     
57   H         6.2712   12.7370   16.6453  H     
58   H         6.6703   10.4708   16.2149  H     
59   H         7.6484   10.7348   17.6655  H     
60   H         5.0278    9.8702   18.3375  H     
61   H         4.4391    7.5155   18.4448  H     
62   H         5.7964    6.4064   18.5856  H     
@<TRIPOS>BOND
     1    1    2 2
     2    1    6 1
     3    1   35 1
     4    2    3 1
     5    3    4 2
     6    4    5 1
     7    4    9 1
     8    5    6 2
     9    5    8 1
    10    6    7 1
    11    9   10 2
    12    9   11 1
    13   11   12 1
    14   11   13 2
    15   12   14 1
    16   15   16 2
    17   15   20 1
    18   16   17 1
    19   17   18 2
    20   17   21 1
    21   18   19 1
    22   19   20 2
    23   19   24 1
    24   21   22 am
    25   21   23 2
    26   24   25 1
    27   25   26 am
    28   26   27 1
    29   26   28 2
    30   27   29 1
    31   29   30 1
    32   30   31 1
    33   31   32 am
    34   32   33 1
    35   32   34 2
    36   33   35 1
    37    2   36 1
    38    3   37 1
    39   12   38 1
    40   12   39 1
    41   13   40 1
    42   13   41 1
    43   14   42 1
    44   14   43 1
    45   14   44 1
    46   15   45 1
    47   16   46 1
    48   18   47 1
    49   20   48 1
    50   22   49 1
    51   22   50 1
    52   24   51 1
    53   24   52 1
    54   25   53 1
    55   27   54 1
    56   27   55 1
    57   29   56 1
    58   29   57 1
    59   30   58 1
    60   30   59 1
    61   31   60 1
    62   33   61 1
    63   33   62 1
@<TRIPOS>PROPERTY_DATA
  Total_Score	| 3.5263
  Crash		| -1.0052
  Polar		| 2.6660
  FragIndex	| 1
  FragRMSD	| 0.395

