@<TRIPOS>MOLECULE
BindingDB_50300262
 43 45 0 0 0
SMALL
NO_CHARGES


@<TRIPOS>ATOM
1    C         8.7585    7.0491   21.8279  C     
2    C         7.7774    7.5206   20.9470  C     
3    C         6.4717    6.9915   20.9711  C     
4    C         6.1556    5.9795   21.9202  C     
5    C         7.1555    5.4812   22.8004  C     
6    C         8.4740    6.0276   22.7774  C     
7    O         5.4649    7.4688   20.1586  O     
8    C         5.5349    7.2755   18.7240  C     
9    C         6.2025    8.4192   18.0714  C     
10   O         6.2814    8.7093   16.7475  O     
11   N         6.9151    9.8449   16.6200  N     
12   C         7.2442   10.2753   17.8535  C     
13   N         6.7902    9.4040   18.7488  N     
14   C         7.8995   11.4503   18.2441  C     
15   C         9.5020    5.6435   23.6528  C     
16   O        10.6384    5.5224   23.2052  O     
17   C         9.3773    5.7003   25.0128  C     
18   C         9.0458    6.9747   25.6665  C     
19   C         9.5988    4.5936   25.7492  C     
20   Cl        6.7744    4.1703   23.8283  Cl    
21   C         8.9267   11.4027   19.2312  C     
22   C         9.5084   12.5797   19.7291  C     
23   C         9.0579   13.8311   19.2756  C     
24   C         8.0401   13.8993   18.2940  C     
25   C         7.4886   12.7180   17.7648  C     
26   Cl        4.5535    5.3941   21.9759  Cl    
27   C        10.2921    7.7337   26.1807  C     
28   H         9.6921    7.4753   21.7829  H     
29   H         8.0435    8.2405   20.2845  H     
30   H         6.0223    6.3372   18.4418  H     
31   H         4.5096    7.2300   18.3534  H     
32   H         8.5240    7.6536   24.9828  H     
33   H         8.3612    6.8004   26.5041  H     
34   H         9.5242    4.6159   26.7369  H     
35   H         9.8134    3.7250   25.3210  H     
36   H         9.2492   10.5066   19.6016  H     
37   H        10.2525   12.5340   20.4384  H     
38   H         9.4594   14.6878   19.6600  H     
39   H         7.7143   14.8083   17.9601  H     
40   H         6.7516   12.7913   17.0578  H     
41   H        10.7880    7.1746   26.9802  H     
42   H         9.9916    8.7079   26.5744  H     
43   H        11.0003    7.8914   25.3614  H     
@<TRIPOS>BOND
     1    1    2 2
     2    1    6 1
     3    2    3 1
     4    3    4 2
     5    3    7 1
     6    4    5 1
     7    4   26 1
     8    5    6 2
     9    5   20 1
    10    6   15 1
    11    7    8 1
    12    8    9 1
    13    9   10 1
    14    9   13 2
    15   10   11 1
    16   11   12 2
    17   12   13 1
    18   12   14 1
    19   14   21 2
    20   14   25 1
    21   15   16 2
    22   15   17 1
    23   17   18 1
    24   17   19 2
    25   18   27 1
    26   21   22 1
    27   22   23 2
    28   23   24 1
    29   24   25 2
    30    1   28 1
    31    2   29 1
    32    8   30 1
    33    8   31 1
    34   18   32 1
    35   18   33 1
    36   19   34 1
    37   19   35 1
    38   21   36 1
    39   22   37 1
    40   23   38 1
    41   24   39 1
    42   25   40 1
    43   27   41 1
    44   27   42 1
    45   27   43 1
@<TRIPOS>PROPERTY_DATA
  Total_Score	| 2.9083
  Crash		| -1.2991
  Polar		| 1.1467
  FragIndex	| 1
  FragRMSD	| 0.359

