@<TRIPOS>MOLECULE
BindingDB_50186225
 99 101 0 0 0
SMALL
NO_CHARGES


@<TRIPOS>ATOM
1    C        15.9234   12.7842   13.4934  C     
2    C        16.1673   13.4625   12.2749  C     
3    C        15.2252   13.3818   11.2136  C     
4    C        14.0223   12.6422   11.3870  C     
5    C        13.7800   12.0044   12.6283  C     
6    C        14.7176   12.0807   13.6685  C     
7    Cl       17.6033   14.3635   12.1250  Cl    
8    Cl       15.5289   14.2119    9.7536  Cl    
9    C        13.0903   12.4719   10.3722  C     
10   C        11.8857   13.1015   10.3775  C     
11   O        13.4179   11.8549    9.3671  O     
12   C        10.8071   12.4872   10.8900  C     
13   O        16.7819   12.9147   14.5536  O     
14   C        11.7888   14.4207    9.7594  C     
15   C        17.9376   12.7745   18.3846  C     
16   C         6.5679    7.6841   21.3265  C     
17   C         7.5336    8.4267   21.9949  C     
18   C         8.4405    7.7704   22.9140  C     
19   C         8.3870    6.3579   23.0584  C     
20   C         7.3532    5.6415   22.4321  C     
21   C         6.4373    6.3007   21.5778  C     
22   Cl        7.6164   10.1084   21.7501  Cl    
23   Cl        9.3584    8.7145   23.9696  Cl    
24   C         9.3801    5.6660   23.7700  C     
25   C         9.1890    5.0723   24.9904  C     
26   O        10.4566    5.4838   23.2082  O     
27   C         8.1961    3.9892   25.0823  C     
28   C         9.9228    5.4708   26.0464  C     
29   C         8.2670    2.9631   26.2451  C     
30   O         5.6573    8.3627   20.5380  O     
31   C        12.6085    8.8425   21.9520  C     
32   C        12.7741    8.6322   23.3467  C     
33   C        14.0526    8.5485   23.9528  C     
34   C        15.1706    8.7118   23.0987  C     
35   C        15.0465    8.9175   21.7016  C     
36   C        13.7534    8.9464   21.1386  C     
37   C        14.2109    8.2808   25.3199  C     
38   N        13.2071    8.0494   26.1390  N     
39   O        15.3147    8.2314   25.8465  O     
40   C        16.2412    9.0645   20.8256  C     
41   N        16.2195   10.3387   20.1600  N     
42   C        17.0943   11.3291   20.2705  C     
43   C        16.9108   12.5703   19.5374  C     
44   O        18.0781   11.2174   20.9931  O     
45   C        11.2632    8.7955   21.3263  C     
46   N        11.0199    9.7315   20.2722  N     
47   C        10.0660    9.6095   19.3474  C     
48   C         9.5673   10.8263   18.7072  C     
49   O         9.5191    8.5266   19.1754  O     
50   C         8.1347   10.7404   18.1122  C     
51   N         7.2743    9.8248   18.8229  N     
52   C         6.5720    8.8199   18.2997  C     
53   O         6.6473    8.5444   17.1103  O     
54   C         5.6218    8.0984   19.1252  C     
55   N        17.4735   12.2509   17.1282  N     
56   C        18.2484   11.9786   16.0861  C     
57   C        17.6473   11.7850   14.7826  C     
58   O        19.4704   12.0797   16.1570  O     
59   H        12.9242   11.4609   12.7809  H     
60   H        14.5227   11.6113   14.5591  H     
61   H         9.9167   12.9283   10.8872  H     
62   H        10.8654   11.5768   11.2854  H     
63   H        12.4469   15.1230   10.2751  H     
64   H        10.7765   14.8317    9.7926  H     
65   H        12.0906   14.3663    8.7108  H     
66   H        18.0992   13.8457   18.2540  H     
67   H        18.9067   12.3322   18.6359  H     
68   H         7.2207    4.6389   22.6170  H     
69   H         5.6906    5.7794   21.1254  H     
70   H         7.2105    4.4562   25.1295  H     
71   H         8.2413    3.4141   24.1513  H     
72   H         9.7875    5.1191   26.9507  H     
73   H        10.6209    6.1583   25.9813  H     
74   H         9.2572    2.5165   26.3034  H     
75   H         7.5503    2.1525   26.0657  H     
76   H         8.0365    3.4443   27.1984  H     
77   H        11.9311    8.5382   23.9260  H     
78   H        16.1151    8.6730   23.4927  H     
79   H        13.6359    9.0614   20.1361  H     
80   H        13.3771    7.8631   27.0757  H     
81   H        12.2990    8.0388   25.8025  H     
82   H        17.1612    8.9241   21.4012  H     
83   H        16.2276    8.2849   20.0661  H     
84   H        15.4812   10.4742   19.5396  H     
85   H        17.0052   13.3915   20.2482  H     
86   H        15.8927   12.6354   19.1437  H     
87   H        11.1084    7.7689   20.9879  H     
88   H        10.4834    8.9815   22.0788  H     
89   H        11.3804   10.6175   20.4041  H     
90   H         9.5925   11.6368   19.4395  H     
91   H        10.2563   11.1110   17.9058  H     
92   H         7.6763   11.7389   18.1640  H     
93   H         8.2228   10.4890   17.0529  H     
94   H         7.1758    9.9993   19.7743  H     
95   H         5.7185    7.0250   18.9730  H     
96   H         4.6282    8.3985   18.7868  H     
97   H        16.5082   12.1674   17.0052  H     
98   H        17.0774   10.8481   14.7724  H     
99   H        18.4309   11.7134   14.0190  H     
@<TRIPOS>BOND
     1    1    2 2
     2    1    6 1
     3    1   13 1
     4    2    3 1
     5    2    7 1
     6    3    4 2
     7    3    8 1
     8    4    5 1
     9    4    9 1
    10    5    6 2
    11    9   10 1
    12    9   11 2
    13   10   12 2
    14   10   14 1
    15   13   57 1
    16   15   43 1
    17   15   55 1
    18   16   17 2
    19   16   21 1
    20   16   30 1
    21   17   18 1
    22   17   22 1
    23   18   19 2
    24   18   23 1
    25   19   20 1
    26   19   24 1
    27   20   21 2
    28   24   25 1
    29   24   26 2
    30   25   27 1
    31   25   28 2
    32   27   29 1
    33   30   54 1
    34   31   32 2
    35   31   36 1
    36   31   45 1
    37   32   33 1
    38   33   34 2
    39   33   37 1
    40   34   35 1
    41   35   36 2
    42   35   40 1
    43   37   38 am
    44   37   39 2
    45   40   41 1
    46   41   42 am
    47   42   43 1
    48   42   44 2
    49   45   46 1
    50   46   47 am
    51   47   48 1
    52   47   49 2
    53   48   50 1
    54   50   51 1
    55   51   52 am
    56   52   53 2
    57   52   54 1
    58   55   56 am
    59   56   57 1
    60   56   58 2
    61    5   59 1
    62    6   60 1
    63   12   61 1
    64   12   62 1
    65   14   63 1
    66   14   64 1
    67   14   65 1
    68   15   66 1
    69   15   67 1
    70   20   68 1
    71   21   69 1
    72   27   70 1
    73   27   71 1
    74   28   72 1
    75   28   73 1
    76   29   74 1
    77   29   75 1
    78   29   76 1
    79   32   77 1
    80   34   78 1
    81   36   79 1
    82   38   80 1
    83   38   81 1
    84   40   82 1
    85   40   83 1
    86   41   84 1
    87   43   85 1
    88   43   86 1
    89   45   87 1
    90   45   88 1
    91   46   89 1
    92   48   90 1
    93   48   91 1
    94   50   92 1
    95   50   93 1
    96   51   94 1
    97   54   95 1
    98   54   96 1
    99   55   97 1
   100   57   98 1
   101   57   99 1
@<TRIPOS>PROPERTY_DATA
  Total_Score	| 2.8463
  Crash		| -4.2099
  Polar		| 3.3854
  FragIndex	| 1
  FragRMSD	| 0.725

