@<TRIPOS>MOLECULE
BindingDB_50186231
 30 30 0 0 0
SMALL
NO_CHARGES


@<TRIPOS>ATOM
1    C         6.8444    7.5407   17.9546  C     
2    C         5.6553    7.1572   18.7349  C     
3    O         5.6911    7.7248   20.0637  O     
4    C         6.6037    7.1831   20.9368  C     
5    C         6.2387    6.1293   21.8115  C     
6    Cl        4.6504    5.5368   21.7507  Cl    
7    C         7.1954    5.5793   22.7053  C     
8    Cl        6.7809    4.2658   23.7086  Cl    
9    C         8.5109    6.1309   22.7483  C     
10   C         8.8451    7.2052   21.9002  C     
11   C         7.8928    7.7257   21.0080  C     
12   C         9.4893    5.6437   23.6243  C     
13   C         9.3800    5.6740   25.0165  C     
14   C         8.9833    6.8886   25.7555  C     
15   C        10.2037    7.7289   26.1919  C     
16   C         9.7469    4.6012   25.7795  C     
17   O        10.5500    5.4135   23.0465  O     
18   O         6.7146    8.2020   16.7800  O     
19   O         8.0633    7.0736   18.2806  O     
20   H         4.7672    7.5549   18.2398  H     
21   H         5.5430    6.0691   18.7509  H     
22   H         9.7730    7.6326   21.9348  H     
23   H         8.1555    8.5005   20.3969  H     
24   H         8.3352    7.5392   25.1549  H     
25   H         8.3815    6.6363   26.6301  H     
26   H        10.8040    7.1969   26.9244  H     
27   H         9.8522    8.6633   26.6422  H     
28   H        10.8268    7.9825   25.3356  H     
29   H         9.7194    4.6318   26.7633  H     
30   H        10.0284    3.7469   25.3622  H     
@<TRIPOS>BOND
     1    1    2 1
     2    1   18 2
     3    1   19 1
     4    2    3 1
     5    3    4 1
     6    4    5 2
     7    4   11 1
     8    5    6 1
     9    5    7 1
    10    7    8 1
    11    7    9 2
    12    9   10 1
    13    9   12 1
    14   10   11 2
    15   12   13 1
    16   12   17 2
    17   13   14 1
    18   13   16 2
    19   14   15 1
    20    2   20 1
    21    2   21 1
    22   10   22 1
    23   11   23 1
    24   14   24 1
    25   14   25 1
    26   15   26 1
    27   15   27 1
    28   15   28 1
    29   16   29 1
    30   16   30 1
@<TRIPOS>PROPERTY_DATA
  Total_Score	| 1.6005
  Crash		| -0.6809
  Polar		| 1.1943
  FragIndex	| 1
  FragRMSD	| 0.756

