@<TRIPOS>MOLECULE
BindingDB_50186228
 82 84 0 0 0
SMALL
NO_CHARGES


@<TRIPOS>ATOM
1    C         3.8782    8.9641   15.1736  C     
2    C         5.1295    8.8366   14.5309  C     
3    C         5.2289    8.4562   13.1633  C     
4    C         4.0246    8.2473   12.4471  C     
5    C         2.7533    8.3827   13.0574  C     
6    C         2.6997    8.7496   14.4234  C     
7    C         6.4892    8.3113   12.5636  C     
8    N         6.6576    7.9605   11.2955  N     
9    O         7.5297    8.4854   13.1747  O     
10   C         1.5100    8.2101   12.2703  C     
11   N         1.4399    6.8905   11.7203  N     
12   C         1.2840    6.5870   10.4387  C     
13   C         2.7822    4.6101    8.0739  C     
14   C         2.7860    3.2883    7.6121  C     
15   C         3.9485    2.7321    7.0602  C     
16   C         5.1520    3.4781    6.9467  C     
17   C         5.1404    4.8330    7.4130  C     
18   C         3.9547    5.3903    7.9632  C     
19   Cl        3.8826    7.0121    8.4793  Cl    
20   Cl        6.4961    5.8561    7.2400  Cl    
21   C         6.2735    2.8410    6.3707  C     
22   O         6.1025    1.9832    5.5111  O     
23   C         7.5537    2.9497    6.8312  C     
24   C         7.9970    2.1570    7.9873  C     
25   C         8.4285    3.7381    6.1687  C     
26   C         8.1460    0.6495    7.6710  C     
27   O         1.6086    5.1179    8.5687  O     
28   C         1.5183    5.2211   10.0117  C     
29   O         1.0429    7.4544    9.6074  O     
30   C         3.8215    9.3377   16.6115  C     
31   N         4.1143    8.2519   17.4957  N     
32   C         5.3119    7.8418   17.8922  C     
33   C         5.4207    6.9077   18.9837  C     
34   O         6.3441    8.3529   17.4844  O     
35   O         5.7515    7.6734   20.1579  O     
36   C         6.6511    7.1005   21.0193  C     
37   C         6.3052    6.0588   21.9111  C     
38   C         7.2834    5.5205   22.7889  C     
39   C         8.6161    6.0279   22.7757  C     
40   C         8.9287    7.0791   21.8757  C     
41   C         7.9573    7.6111   21.0181  C     
42   Cl        4.7013    5.4876   21.8960  Cl    
43   Cl        6.8638    4.1868   23.7670  Cl    
44   C         9.6474    5.5391   23.5923  C     
45   C         9.6507    5.6354   24.9585  C     
46   O        10.7348    5.2972   23.0829  O     
47   C        10.1502    6.8599   25.5972  C     
48   C         9.3680    4.5424   25.6939  C     
49   C         9.0389    7.8733   25.9560  C     
50   H         5.9872    9.0498   15.0520  H     
51   H         4.0644    7.9963   11.4536  H     
52   H         1.7921    8.8869   14.8770  H     
53   H         7.5613    7.8746   10.9383  H     
54   H         5.8934    7.8010   10.7154  H     
55   H         0.6285    8.3444   12.8949  H     
56   H         1.4890    8.9916   11.5080  H     
57   H         1.6279    6.1600   12.3280  H     
58   H         1.9362    2.7227    7.6792  H     
59   H         3.9021    1.7600    6.7431  H     
60   H         8.9520    2.5506    8.3501  H     
61   H         7.2854    2.2493    8.8158  H     
62   H         9.3659    3.8336    6.4749  H     
63   H         8.1467    4.2688    5.3748  H     
64   H         7.1760    0.2226    7.4237  H     
65   H         8.5373    0.1316    8.5426  H     
66   H         8.8266    0.4848    6.8373  H     
67   H         2.4164    4.8558   10.5262  H     
68   H         0.6780    4.6027   10.3322  H     
69   H         4.4851   10.1798   16.8088  H     
70   H         2.8232    9.6864   16.8708  H     
71   H         3.3573    7.8575   17.9490  H     
72   H         4.4738    6.3957   19.1560  H     
73   H         6.1611    6.1461   18.7194  H     
74   H         9.8699    7.4742   21.8335  H     
75   H         8.2071    8.3670   20.3768  H     
76   H        10.6839    6.6336   26.5233  H     
77   H        10.8730    7.3533   24.9412  H     
78   H         9.4077    4.5698   26.6832  H     
79   H         9.1054    3.6844   25.2696  H     
80   H         8.5533    8.2591   25.0564  H     
81   H         9.4764    8.7235   26.4877  H     
82   H         8.2828    7.4068   26.5972  H     
@<TRIPOS>BOND
     1    1    2 2
     2    1    6 1
     3    1   30 1
     4    2    3 1
     5    3    4 2
     6    3    7 1
     7    4    5 1
     8    5    6 2
     9    5   10 1
    10    7    8 am
    11    7    9 2
    12   10   11 1
    13   11   12 am
    14   12   28 1
    15   12   29 2
    16   13   14 2
    17   13   18 1
    18   13   27 1
    19   14   15 1
    20   15   16 2
    21   16   17 1
    22   16   21 1
    23   17   18 2
    24   17   20 1
    25   18   19 1
    26   21   22 2
    27   21   23 1
    28   23   24 1
    29   23   25 2
    30   24   26 1
    31   27   28 1
    32   30   31 1
    33   31   32 am
    34   32   33 1
    35   32   34 2
    36   33   35 1
    37   35   36 1
    38   36   37 2
    39   36   41 1
    40   37   38 1
    41   37   42 1
    42   38   39 2
    43   38   43 1
    44   39   40 1
    45   39   44 1
    46   40   41 2
    47   44   45 1
    48   44   46 2
    49   45   47 1
    50   45   48 2
    51   47   49 1
    52    2   50 1
    53    4   51 1
    54    6   52 1
    55    8   53 1
    56    8   54 1
    57   10   55 1
    58   10   56 1
    59   11   57 1
    60   14   58 1
    61   15   59 1
    62   24   60 1
    63   24   61 1
    64   25   62 1
    65   25   63 1
    66   26   64 1
    67   26   65 1
    68   26   66 1
    69   28   67 1
    70   28   68 1
    71   30   69 1
    72   30   70 1
    73   31   71 1
    74   33   72 1
    75   33   73 1
    76   40   74 1
    77   41   75 1
    78   47   76 1
    79   47   77 1
    80   48   78 1
    81   48   79 1
    82   49   80 1
    83   49   81 1
    84   49   82 1
@<TRIPOS>PROPERTY_DATA
  Total_Score	| 4.4066
  Crash		| -2.1701
  Polar		| 2.0720
  FragIndex	| 1
  FragRMSD	| 0.782

