@<TRIPOS>MOLECULE
BindingDB_5468
 31 32 0 0 0
SMALL
NO_CHARGES


@<TRIPOS>ATOM
1    C         0.8050   28.4103    8.1028  C     
2    C         2.3777   29.2599    6.5288  C     
3    C         0.2433   29.6919    8.2036  C     
4    C         0.7891   30.7313    7.4492  C     
5    C        -0.9131   31.4671    8.5782  C     
6    N        -0.7948   30.1667    8.9084  N     
7    N         0.0444   31.8171    7.6985  N     
8    N         1.8477   28.2346    7.2499  N     
9    N         1.8504   30.5110    6.6276  N     
10   O         0.2200   27.3831    8.7658  O     
11   N         3.4041   28.9774    5.7154  N     
12   C         1.0129   26.8467    9.8501  C     
13   C         0.1760   25.7434   10.5612  C     
14   C        -1.1251   26.3547   11.1655  C     
15   C        -0.1048   24.5682    9.5853  C     
16   C        -0.9346   23.3980   10.1617  C     
17   H        -1.6289   32.0977    8.9391  H     
18   H         0.1574   32.6859    7.2889  H     
19   H         3.8400   29.6796    5.2150  H     
20   H         3.7340   28.0659    5.6553  H     
21   H         1.9458   26.4058    9.4629  H     
22   H         1.2610   27.6300   10.5783  H     
23   H         0.7738   25.3556   11.3928  H     
24   H        -0.8946   27.2459   11.7472  H     
25   H        -1.6183   25.6358   11.8263  H     
26   H        -1.8230   26.6361   10.3680  H     
27   H        -0.6171   24.9307    8.6759  H     
28   H         0.8595   24.1415    9.2701  H     
29   H        -0.5548   23.1159   11.1499  H     
30   H        -0.8659   22.5364    9.4948  H     
31   H        -1.9903   23.6844   10.2462  H     
@<TRIPOS>BOND
     1    1    3 1
     2    1    8 2
     3    1   10 1
     4    2    8 1
     5    2    9 2
     6    2   11 1
     7    3    4 2
     8    3    6 1
     9    4    7 1
    10    4    9 1
    11    5    6 2
    12    5    7 1
    13   10   12 1
    14   12   13 1
    15   13   14 1
    16   13   15 1
    17   15   16 1
    18    5   17 1
    19    7   18 1
    20   11   19 1
    21   11   20 1
    22   12   21 1
    23   12   22 1
    24   13   23 1
    25   14   24 1
    26   14   25 1
    27   14   26 1
    28   15   27 1
    29   15   28 1
    30   16   29 1
    31   16   30 1
    32   16   31 1
@<TRIPOS>PROPERTY_DATA
  Total_Score	| 8.4585
  Crash		| -0.1553
  Polar		| 4.0849
  FragIndex	| 1
  FragRMSD	| 0.489

