@<TRIPOS>MOLECULE
BindingDB_5473
 32 33 0 0 0
SMALL
NO_CHARGES


@<TRIPOS>ATOM
1    C         0.6445   28.4217    8.0455  C     
2    C         2.2556   29.2436    6.4829  C     
3    C         0.1639   29.7367    8.1916  C     
4    C         0.7657   30.7615    7.4628  C     
5    C        -0.8462   31.5730    8.6585  C     
6    N        -0.8164   30.2580    8.9370  N     
7    N         0.1099   31.8862    7.7651  N     
8    N         1.6808   28.2243    7.1891  N     
9    N         1.8016   30.5223    6.6235  N     
10   O         0.0730   27.3729    8.7163  O     
11   N         3.2771   28.9758    5.6570  N     
12   C         0.4914   27.2297   10.0969  C     
13   C         1.5927   26.1607   10.2937  C     
14   C         1.3782   24.8236    9.5239  C     
15   C         0.8261   23.6255   10.3647  C     
16   C        -0.6157   23.4495   10.3158  C     
17   C        -1.3115   23.3878    9.1679  C     
18   H        -1.5060   32.2341    9.0764  H     
19   H         0.2746   32.7714    7.4106  H     
20   H         3.7384   29.6922    5.1971  H     
21   H         3.5806   28.0614    5.5463  H     
22   H         0.8281   28.1761   10.5415  H     
23   H        -0.3885   26.9380   10.6667  H     
24   H         2.5495   26.5926    9.9633  H     
25   H         1.7034   25.9464   11.3658  H     
26   H         0.7349   25.0043    8.6580  H     
27   H         2.3607   24.5355    9.1417  H     
28   H         1.3045   22.6973   10.0206  H     
29   H         1.1291   23.7706   11.4067  H     
30   H        -1.1168   23.3290   11.1635  H     
31   H        -2.2915   23.2405    9.1821  H     
32   H        -0.8609   23.4745    8.2872  H     
@<TRIPOS>BOND
     1    1    3 1
     2    1    8 2
     3    1   10 1
     4    2    8 1
     5    2    9 2
     6    2   11 1
     7    3    4 2
     8    3    6 1
     9    4    7 1
    10    4    9 1
    11    5    6 2
    12    5    7 1
    13   10   12 1
    14   12   13 1
    15   13   14 1
    16   14   15 1
    17   15   16 1
    18   16   17 2
    19    5   18 1
    20    7   19 1
    21   11   20 1
    22   11   21 1
    23   12   22 1
    24   12   23 1
    25   13   24 1
    26   13   25 1
    27   14   26 1
    28   14   27 1
    29   15   28 1
    30   15   29 1
    31   16   30 1
    32   17   31 1
    33   17   32 1
@<TRIPOS>PROPERTY_DATA
  Total_Score	| 8.2017
  Crash		| -0.2710
  Polar		| 4.0627
  FragIndex	| 1
  FragRMSD	| 0.875

