@<TRIPOS>MOLECULE
BindingDB_5462
 28 29 0 0 0
SMALL
NO_CHARGES


@<TRIPOS>ATOM
1    C         0.9581   28.4403    8.2413  C     
2    C         2.3899   29.3083    6.5204  C     
3    C         0.3239   29.6963    8.2785  C     
4    C         0.7745   30.7255    7.4519  C     
5    C        -0.9043   31.4386    8.6233  C     
6    N        -0.7078   30.1579    9.0035  N     
7    N        -0.0059   31.7867    7.6874  N     
8    N         1.9635   28.2867    7.3269  N     
9    N         1.8065   30.5441    6.5872  N     
10   O         0.4431   27.4005    8.9847  O     
11   C         1.4172   26.4629    9.5004  C     
12   C         0.6828   25.2650   10.1599  C     
13   N         3.3994   29.0643    5.6693  N     
14   C        -0.4304   24.6674    9.2522  C     
15   C        -1.0502   23.3574    9.8092  C     
16   H        -1.6348   32.0598    8.9760  H     
17   H         0.0624   32.6479    7.2397  H     
18   H         2.0688   26.0700    8.7048  H     
19   H         2.0471   26.9382   10.2662  H     
20   H         1.4136   24.4819   10.3931  H     
21   H         0.2305   25.5892   11.1048  H     
22   H         3.7797   29.7866    5.1435  H     
23   H         3.7822   28.1680    5.6156  H     
24   H        -1.2224   25.4112    9.1450  H     
25   H        -0.0251   24.4569    8.2578  H     
26   H        -0.3142   22.5499    9.8106  H     
27   H        -1.8914   23.0586    9.1779  H     
28   H        -1.4159   23.5117   10.8253  H     
@<TRIPOS>BOND
     1    1    3 1
     2    1    8 2
     3    1   10 1
     4    2    8 1
     5    2    9 2
     6    2   13 1
     7    3    4 2
     8    3    6 1
     9    4    7 1
    10    4    9 1
    11    5    6 2
    12    5    7 1
    13   10   11 1
    14   11   12 1
    15   12   14 1
    16   14   15 1
    17    5   16 1
    18    7   17 1
    19   11   18 1
    20   11   19 1
    21   12   20 1
    22   12   21 1
    23   13   22 1
    24   13   23 1
    25   14   24 1
    26   14   25 1
    27   15   26 1
    28   15   27 1
    29   15   28 1
@<TRIPOS>PROPERTY_DATA
  Total_Score	| 7.6992
  Crash		| -0.2884
  Polar		| 3.8826
  FragIndex	| 1
  FragRMSD	| 0.466

