@<TRIPOS>MOLECULE
BindingDB_5463
 31 32 0 0 0
SMALL
NO_CHARGES


@<TRIPOS>ATOM
1    C         0.9670   28.4790    8.3899  C     
2    C         2.4168   29.2746    6.6555  C     
3    C         0.3173   29.7262    8.3714  C     
4    C         0.7502   30.7053    7.4776  C     
5    C        -0.9314   31.4598    8.6318  C     
6    N        -0.7267   30.2029    9.0708  N     
7    N        -0.0428   31.7698    7.6700  N     
8    N         2.0103   28.3057    7.5242  N     
9    N         1.7976   30.4890    6.6340  N     
10   O         0.5466   27.5499    9.3064  O     
11   C         0.5725   26.1625    8.9029  C     
12   C        -0.3330   25.3742    9.8785  C     
13   N         3.4457   29.0039    5.8427  N     
14   C        -0.6406   23.8947    9.4927  C     
15   C         0.1309   22.8113   10.2969  C     
16   C         1.6683   22.8791   10.1643  C     
17   H        -1.6698   32.0817    8.9731  H     
18   H         0.0069   32.6230    7.2023  H     
19   H         0.1825   26.0448    7.8830  H     
20   H         1.5945   25.7782    8.9445  H     
21   H         0.1134   25.4055   10.8851  H     
22   H        -1.2899   25.9099    9.9334  H     
23   H         3.8254   29.6983    5.2906  H     
24   H         3.8657   28.1258    5.8701  H     
25   H        -1.7109   23.7059    9.6634  H     
26   H        -0.4674   23.7410    8.4209  H     
27   H        -0.1319   22.8878   11.3551  H     
28   H        -0.1963   21.8234    9.9518  H     
29   H         1.9635   22.8881    9.1088  H     
30   H         2.1248   22.0030   10.6361  H     
31   H         2.0509   23.7760   10.6543  H     
@<TRIPOS>BOND
     1    1    3 1
     2    1    8 2
     3    1   10 1
     4    2    8 1
     5    2    9 2
     6    2   13 1
     7    3    4 2
     8    3    6 1
     9    4    7 1
    10    4    9 1
    11    5    6 2
    12    5    7 1
    13   10   11 1
    14   11   12 1
    15   12   14 1
    16   14   15 1
    17   15   16 1
    18    5   17 1
    19    7   18 1
    20   11   19 1
    21   11   20 1
    22   12   21 1
    23   12   22 1
    24   13   23 1
    25   13   24 1
    26   14   25 1
    27   14   26 1
    28   15   27 1
    29   15   28 1
    30   16   29 1
    31   16   30 1
    32   16   31 1
@<TRIPOS>PROPERTY_DATA
  Total_Score	| 7.8726
  Crash		| -0.1992
  Polar		| 3.9879
  FragIndex	| 1
  FragRMSD	| 0.645

