@<TRIPOS>MOLECULE
BindingDB_5461
 25 26 0 0 0
SMALL
NO_CHARGES


@<TRIPOS>ATOM
1    C         0.8516   28.4713    8.2523  C     
2    C         2.3685   29.2716    6.5878  C     
3    C         0.2685   29.7493    8.2907  C     
4    C         0.7830   30.7572    7.4766  C     
5    C        -0.8779   31.5356    8.6385  C     
6    N        -0.7559   30.2447    9.0021  N     
7    N         0.0596   31.8557    7.7274  N     
8    N         1.8761   28.2766    7.3752  N     
9    N         1.8285   30.5242    6.6437  N     
10   O         0.3141   27.4512    8.9879  O     
11   C         1.1977   26.7061    9.8488  C     
12   C         1.0715   25.1716    9.6057  C     
13   C        -0.1643   24.7183    8.7936  C     
14   N         3.4030   28.9844    5.7831  N     
15   H        -1.5764   32.1863    9.0026  H     
16   H         0.1867   32.7300    7.3278  H     
17   H         2.2470   26.9934    9.7467  H     
18   H         0.9164   26.9152   10.8796  H     
19   H         1.9643   24.8313    9.0741  H     
20   H         1.0527   24.6523   10.5683  H     
21   H        -1.0880   25.0502    9.2689  H     
22   H        -0.1744   23.6279    8.7251  H     
23   H        -0.1249   25.1229    7.7799  H     
24   H         3.8393   29.6845    5.2766  H     
25   H         3.7541   28.0797    5.7586  H     
@<TRIPOS>BOND
     1    1    3 1
     2    1    8 2
     3    1   10 1
     4    2    8 1
     5    2    9 2
     6    2   14 1
     7    3    4 2
     8    3    6 1
     9    4    7 1
    10    4    9 1
    11    5    6 2
    12    5    7 1
    13   10   11 1
    14   11   12 1
    15   12   13 1
    16    5   15 1
    17    7   16 1
    18   11   17 1
    19   11   18 1
    20   12   19 1
    21   12   20 1
    22   13   21 1
    23   13   22 1
    24   13   23 1
    25   14   24 1
    26   14   25 1
@<TRIPOS>PROPERTY_DATA
  Total_Score	| 7.0697
  Crash		| -0.1601
  Polar		| 4.1180
  FragIndex	| 1
  FragRMSD	| 0.506

