@<TRIPOS>MOLECULE
BindingDB_5483
 32 34 0 0 0
SMALL
NO_CHARGES


@<TRIPOS>ATOM
1    C         0.9461   28.4146    8.2949  C     
2    C         2.4485   29.2351    6.6238  C     
3    C         0.3122   29.6673    8.2967  C     
4    C         0.7798   30.6666    7.4427  C     
5    C        -0.9196   31.4114    8.5656  C     
6    N        -0.7340   30.1449    8.9888  N     
7    N        -0.0084   31.7312    7.6303  N     
8    N         2.0075   28.2445    7.4543  N     
9    N         1.8373   30.4532    6.6199  N     
10   N         3.5031   28.9919    5.8334  N     
11   O         0.4756   27.4507    9.1433  O     
12   C         0.5634   26.0791    8.6941  C     
13   C        -0.3874   25.2084    9.5637  C     
14   C        -0.5714   23.7637    9.0421  C     
15   C         0.5309   22.9253    9.7204  C     
16   C         0.9180   23.6843   11.0084  C     
17   C         0.1048   24.9956   11.0133  C     
18   H        -1.6601   32.0336    8.8980  H     
19   H         0.0675   32.5856    7.1817  H     
20   H         3.8782   29.6894    5.2799  H     
21   H         3.9252   28.1146    5.8537  H     
22   H         0.2382   26.0007    7.6488  H     
23   H         1.5899   25.7211    8.7762  H     
24   H        -1.3658   25.7050    9.5874  H     
25   H        -1.5557   23.3836    9.3509  H     
26   H        -0.5076   23.6928    7.9493  H     
27   H         0.1647   21.9186    9.9470  H     
28   H         1.3982   22.8393    9.0560  H     
29   H         0.6850   23.0858   11.8980  H     
30   H         1.9928   23.9026   11.0124  H     
31   H         0.7035   25.8373   11.3838  H     
32   H        -0.7610   24.8803   11.6766  H     
@<TRIPOS>BOND
     1    1    3 1
     2    1    8 2
     3    1   11 1
     4    2    8 1
     5    2    9 2
     6    2   10 1
     7    3    4 2
     8    3    6 1
     9    4    7 1
    10    4    9 1
    11    5    6 2
    12    5    7 1
    13   11   12 1
    14   12   13 1
    15   13   14 1
    16   13   17 1
    17   14   15 1
    18   15   16 1
    19   16   17 1
    20    5   18 1
    21    7   19 1
    22   10   20 1
    23   10   21 1
    24   12   22 1
    25   12   23 1
    26   13   24 1
    27   14   25 1
    28   14   26 1
    29   15   27 1
    30   15   28 1
    31   16   29 1
    32   16   30 1
    33   17   31 1
    34   17   32 1
@<TRIPOS>PROPERTY_DATA
  Total_Score	| 8.6649
  Crash		| -0.3508
  Polar		| 3.9760
  FragIndex	| 1
  FragRMSD	| 0.756

