@<TRIPOS>MOLECULE
BindingDB_5467
 28 29 0 0 0
SMALL
NO_CHARGES


@<TRIPOS>ATOM
1    C         0.8153   28.4144    8.1514  C     
2    C         2.3291   29.2941    6.5195  C     
3    C         0.2487   29.6924    8.2702  C     
4    C         0.7586   30.7379    7.5004  C     
5    C        -0.8636   31.4674    8.7397  C     
6    N        -0.7452   30.1621    9.0378  N     
7    N         0.0522   31.8268    7.8202  N     
8    N         1.8472   28.2679    7.2680  N     
9    N         1.7894   30.5444    6.6408  N     
10   O         0.3577   27.4144    8.9740  O     
11   N         3.3498   29.0568    5.6838  N     
12   C         0.5945   26.0487    8.5762  C     
13   C        -0.1294   25.0599    9.5328  C     
14   C        -0.1591   23.6310    8.9123  C     
15   C         0.4974   25.0261   10.9523  C     
16   H        -1.5395   32.1047    9.1641  H     
17   H         0.1709   32.7153    7.4586  H     
18   H         3.7899   29.7854    5.2241  H     
19   H         3.7134   28.1558    5.6179  H     
20   H         0.2135   25.9056    7.5625  H     
21   H         1.6687   25.8331    8.5789  H     
22   H        -1.1673   25.3929    9.6425  H     
23   H        -0.6507   23.6528    7.9386  H     
24   H        -0.7071   22.9423    9.5559  H     
25   H         0.8575   23.2566    8.7845  H     
26   H         1.5552   24.7574   10.9033  H     
27   H        -0.0213   24.3006   11.5830  H     
28   H         0.4068   26.0040   11.4284  H     
@<TRIPOS>BOND
     1    1    3 1
     2    1    8 2
     3    1   10 1
     4    2    8 1
     5    2    9 2
     6    2   11 1
     7    3    4 2
     8    3    6 1
     9    4    7 1
    10    4    9 1
    11    5    6 2
    12    5    7 1
    13   10   12 1
    14   12   13 1
    15   13   14 1
    16   13   15 1
    17    5   16 1
    18    7   17 1
    19   11   18 1
    20   11   19 1
    21   12   20 1
    22   12   21 1
    23   13   22 1
    24   14   23 1
    25   14   24 1
    26   14   25 1
    27   15   26 1
    28   15   27 1
    29   15   28 1
@<TRIPOS>PROPERTY_DATA
  Total_Score	| 7.9663
  Crash		| -0.2400
  Polar		| 4.1204
  FragIndex	| 1
  FragRMSD	| 0.661

