@<TRIPOS>MOLECULE
BindingDB_5490
 38 40 0 0 0
SMALL
NO_CHARGES


@<TRIPOS>ATOM
1    C         0.8868   28.3902    8.0679  C     
2    C         2.3952   29.2772    6.4351  C     
3    C         0.2913   29.6620    8.1616  C     
4    C         0.8163   30.7104    7.4067  C     
5    C        -0.8240   31.4438    8.6247  C     
6    N        -0.7236   30.1291    8.9066  N     
7    N         0.1113   31.8000    7.7266  N     
8    N         1.9135   28.2402    7.1783  N     
9    N         1.8613   30.5233    6.5612  N     
10   N         3.4188   29.0521    5.5985  N     
11   O         0.4452   27.3100    8.7886  O     
12   C         0.8166   27.3204   10.1843  C     
13   C        -0.2973   26.6563   11.0393  C     
14   C        -0.1969   25.1220   11.3756  C     
15   C         1.5018   24.0535    9.6973  C     
16   C         0.3448   23.2692    9.0306  C     
17   C        -1.0255   23.9674    9.2019  C     
18   C        -1.3137   24.2653   10.6963  C     
19   C         1.1879   24.4282   11.1685  C     
20   H        -1.5066   32.0806    9.0396  H     
21   H         0.2512   32.6950    7.3831  H     
22   H         3.8365   29.7824    5.1151  H     
23   H         3.7815   28.1566    5.5112  H     
24   H         1.7637   26.7754   10.3412  H     
25   H         0.9418   28.3486   10.5587  H     
26   H        -0.3247   27.1964   11.9917  H     
27   H        -1.2585   26.8781   10.5670  H     
28   H        -0.4005   25.0443   12.4503  H     
29   H         2.4105   23.4394    9.6699  H     
30   H         1.6886   24.9726    9.1304  H     
31   H         0.5532   23.1677    7.9642  H     
32   H         0.2902   22.2649    9.4628  H     
33   H        -1.0419   24.9000    8.6295  H     
34   H        -1.8144   23.3205    8.8096  H     
35   H        -1.3996   23.3088   11.2248  H     
36   H        -2.2813   24.7663   10.7844  H     
37   H         1.9899   25.0543   11.5513  H     
38   H         1.2077   23.4994   11.7613  H     
@<TRIPOS>BOND
     1    1    3 1
     2    1    8 2
     3    1   11 1
     4    2    8 1
     5    2    9 2
     6    2   10 1
     7    3    4 2
     8    3    6 1
     9    4    7 1
    10    4    9 1
    11    5    6 2
    12    5    7 1
    13   11   12 1
    14   12   13 1
    15   13   14 1
    16   14   18 1
    17   14   19 1
    18   15   16 1
    19   15   19 1
    20   16   17 1
    21   17   18 1
    22    5   20 1
    23    7   21 1
    24   10   22 1
    25   10   23 1
    26   12   24 1
    27   12   25 1
    28   13   26 1
    29   13   27 1
    30   14   28 1
    31   15   29 1
    32   15   30 1
    33   16   31 1
    34   16   32 1
    35   17   33 1
    36   17   34 1
    37   18   35 1
    38   18   36 1
    39   19   37 1
    40   19   38 1
@<TRIPOS>PROPERTY_DATA
  Total_Score	| 9.0976
  Crash		| -1.1718
  Polar		| 3.9667
  FragIndex	| 1
  FragRMSD	| 0.865

