@<TRIPOS>MOLECULE
BindingDB_5485
 35 37 0 0 0
SMALL
NO_CHARGES


@<TRIPOS>ATOM
1    C         0.9253   28.3102    8.2340  C     
2    C         2.3885   29.1755    6.5442  C     
3    C         0.2898   29.5678    8.2861  C     
4    C         0.7488   30.5883    7.4461  C     
5    C        -0.9335   31.3058    8.6020  C     
6    N        -0.7463   30.0323    8.9995  N     
7    N        -0.0338   31.6462    7.6630  N     
8    N         1.9522   28.1635    7.3489  N     
9    N         1.7905   30.3994    6.5979  N     
10   N         3.4147   28.9378    5.7109  N     
11   O         0.5221   27.2309    8.9971  O     
12   C         1.3099   27.0686   10.2053  C     
13   C         1.2650   25.6097   10.7723  C     
14   C         0.1707   25.3579   11.8586  C     
15   C        -1.2510   25.1805   11.2697  C     
16   C        -1.2660   24.0239   10.2382  C     
17   C        -0.2236   24.2495    9.1128  C     
18   C         1.2059   24.5215    9.6547  C     
19   H        -1.6589   31.9240    8.9643  H     
20   H         0.0188   32.5010    7.2032  H     
21   H         3.8094   29.6529    5.1907  H     
22   H         3.8100   28.0532    5.6836  H     
23   H         2.3707   27.3016   10.0156  H     
24   H         0.9506   27.7701   10.9608  H     
25   H         2.2220   25.4716   11.2924  H     
26   H         0.4273   24.4417   12.4025  H     
27   H         0.1621   26.1703   12.5889  H     
28   H        -1.9522   24.9546   12.0748  H     
29   H        -1.5795   26.1106   10.7961  H     
30   H        -1.0597   23.0807   10.7494  H     
31   H        -2.2625   23.9517    9.7959  H     
32   H        -0.1974   23.3642    8.4675  H     
33   H        -0.5410   25.1035    8.5051  H     
34   H         1.8518   24.8117    8.8226  H     
35   H         1.6139   23.5831   10.0517  H     
@<TRIPOS>BOND
     1    1    3 1
     2    1    8 2
     3    1   11 1
     4    2    8 1
     5    2    9 2
     6    2   10 1
     7    3    4 2
     8    3    6 1
     9    4    7 1
    10    4    9 1
    11    5    6 2
    12    5    7 1
    13   11   12 1
    14   12   13 1
    15   13   14 1
    16   13   18 1
    17   14   15 1
    18   15   16 1
    19   16   17 1
    20   17   18 1
    21    5   19 1
    22    7   20 1
    23   10   21 1
    24   10   22 1
    25   12   23 1
    26   12   24 1
    27   13   25 1
    28   14   26 1
    29   14   27 1
    30   15   28 1
    31   15   29 1
    32   16   30 1
    33   16   31 1
    34   17   32 1
    35   17   33 1
    36   18   34 1
    37   18   35 1
@<TRIPOS>PROPERTY_DATA
  Total_Score	| 8.8572
  Crash		| -0.4326
  Polar		| 3.9563
  FragIndex	| 1
  FragRMSD	| 0.980

