@<TRIPOS>MOLECULE
BindingDB_5464
 37 38 0 0 0
SMALL
NO_CHARGES


@<TRIPOS>ATOM
1    C         0.9943   28.5545    8.4171  C     
2    C         2.4184   29.3438    6.6638  C     
3    C         0.2941   29.7739    8.3592  C     
4    C         0.7011   30.7383    7.4358  C     
5    C        -0.9840   31.4975    8.5612  C     
6    N        -0.7503   30.2620    9.0500  N     
7    N        -0.1079   31.7892    7.5859  N     
8    N         2.0410   28.3955    7.5602  N     
9    N         1.7501   30.5279    6.6008  N     
10   O         0.6436   27.6194    9.3528  O     
11   C         1.1503   26.2680    9.2550  C     
12   C         0.0184   25.3191    8.7903  C     
13   N         3.4610   29.0736    5.8708  N     
14   C         0.2832   23.8023    8.9867  C     
15   C        -0.4138   23.1383   10.2144  C     
16   C         0.2666   23.3417   11.6006  C     
17   C         0.1458   24.7714   12.2010  C     
18   C        -0.6023   24.8353   13.5581  C     
19   H        -1.7186   32.1276    8.8843  H     
20   H        -0.0640   32.6149    7.0811  H     
21   H         2.0119   26.1403    8.5881  H     
22   H         1.4975   25.9939   10.2553  H     
23   H        -0.9136   25.5705    9.3093  H     
24   H        -0.1540   25.4952    7.7233  H     
25   H         3.7996   29.7413    5.2582  H     
26   H         3.9157   28.2210    5.9543  H     
27   H        -0.0926   23.2991    8.0879  H     
28   H         1.3640   23.6144    9.0251  H     
29   H        -1.4609   23.4638   10.2530  H     
30   H        -0.4297   22.0640   10.0112  H     
31   H        -0.1691   22.6354   12.3104  H     
32   H         1.3247   23.0834   11.5186  H     
33   H         1.1551   25.1653   12.3561  H     
34   H        -0.3525   25.4313   11.4834  H     
35   H        -1.6259   24.4745   13.4427  H     
36   H        -0.6253   25.8684   13.9181  H     
37   H        -0.0909   24.2217   14.3053  H     
@<TRIPOS>BOND
     1    1    3 1
     2    1    8 2
     3    1   10 1
     4    2    8 1
     5    2    9 2
     6    2   13 1
     7    3    4 2
     8    3    6 1
     9    4    7 1
    10    4    9 1
    11    5    6 2
    12    5    7 1
    13   10   11 1
    14   11   12 1
    15   12   14 1
    16   14   15 1
    17   15   16 1
    18   16   17 1
    19   17   18 1
    20    5   19 1
    21    7   20 1
    22   11   21 1
    23   11   22 1
    24   12   23 1
    25   12   24 1
    26   13   25 1
    27   13   26 1
    28   14   27 1
    29   14   28 1
    30   15   29 1
    31   15   30 1
    32   16   31 1
    33   16   32 1
    34   17   33 1
    35   17   34 1
    36   18   35 1
    37   18   36 1
    38   18   37 1
@<TRIPOS>PROPERTY_DATA
  Total_Score	| 8.0782
  Crash		| -0.5380
  Polar		| 3.6678
  FragIndex	| 1
  FragRMSD	| 0.782

