@<TRIPOS>MOLECULE
BindingDB_8061
 35 37 0 0 0
SMALL
NO_CHARGES


@<TRIPOS>ATOM
1    C        14.2569   -5.3076   11.9264  C     
2    C        14.6365   -6.5555   13.8253  C     
3    C        13.6141   -7.3741   13.2904  C     
4    N        14.9521   -5.4744   13.0628  N     
5    C        15.3984   -6.7596   15.0719  C     
6    S        13.1414   -6.6017   11.8229  S     
7    C        13.0082   -8.5846   13.7188  C     
8    C        13.3206   -9.2804   14.9053  C     
9    C        12.6090  -10.4496   15.2101  C     
10   C        11.3568  -10.2599   13.2107  C     
11   N        12.0381   -9.1253   12.9257  N     
12   N        11.6477  -10.8999   14.3678  N     
13   N        10.3989  -10.8181   12.4387  N     
14   C         9.9102  -10.4817   11.2069  C     
15   C         8.2001  -11.0061    9.5445  C     
16   C         8.7967  -11.2378   10.7900  C     
17   C        10.4234   -9.4934   10.3281  C     
18   C         9.8312   -9.2328    9.0649  C     
19   C         8.7028  -10.0063    8.6929  C     
20   N        10.3321   -8.2789    8.2266  N     
21   O         9.8280   -8.0542    7.0438  O     
22   O        11.2510   -7.5590    8.5248  O     
23   N        14.4525   -4.3466   11.0116  N     
24   H        14.7261   -6.7625   15.9282  H     
25   H        16.1248   -5.9592   15.2261  H     
26   H        15.9413   -7.7021   15.0340  H     
27   H        14.0290   -8.9831   15.5668  H     
28   H        12.8184  -10.9613   16.0655  H     
29   H         9.9483  -11.5754   12.8545  H     
30   H         7.4038  -11.5811    9.2552  H     
31   H         8.3966  -11.9650   11.3913  H     
32   H        11.2442   -8.9603   10.5931  H     
33   H         8.2420   -9.8602    7.7919  H     
34   H        13.9124   -4.3206   10.2040  H     
35   H        15.1959   -3.7309   11.1228  H     
@<TRIPOS>BOND
     1    1    4 2
     2    1    6 1
     3    1   23 1
     4    2    3 2
     5    2    4 1
     6    2    5 1
     7    3    6 1
     8    3    7 1
     9    7    8 1
    10    7   11 2
    11    8    9 2
    12    9   12 1
    13   10   11 1
    14   10   12 2
    15   10   13 1
    16   13   14 1
    17   14   16 1
    18   14   17 2
    19   15   16 2
    20   15   19 1
    21   17   18 1
    22   18   19 2
    23   18   20 am
    24   20   21 1
    25   20   22 2
    26    5   24 1
    27    5   25 1
    28    5   26 1
    29    8   27 1
    30    9   28 1
    31   13   29 1
    32   15   30 1
    33   16   31 1
    34   17   32 1
    35   19   33 1
    36   23   34 1
    37   23   35 1
@<TRIPOS>PROPERTY_DATA
  Total_Score	| 2.4804
  Crash		| -4.1601
  Polar		| 2.4460
  FragIndex	| 1
  FragRMSD	| 0.637

