@<TRIPOS>MOLECULE
BindingDB_50247970
 44 47 0 0 0
SMALL
NO_CHARGES


@<TRIPOS>ATOM
1    C        20.0900    5.7577    5.4904  C     
2    C        19.0711    5.8726    4.5287  C     
3    C        19.3309    5.5941    3.1613  C     
4    C        21.3807    5.3530    5.1180  C     
5    C        21.6383    5.0743    3.7623  C     
6    C        20.6489    5.2223    2.7831  C     
7    N        21.2572    4.9890    1.5914  N     
8    C        22.7901    4.6723    3.1547  C     
9    C        22.5366    4.6108    1.8362  C     
10   C        23.5668    4.2627    0.8546  C     
11   C        24.8419    3.6055    1.4617  C     
12   C        25.2524    4.3128    2.7780  C     
13   C        24.0695    4.3598    3.7846  C     
14   C        20.7281    5.2404    0.2668  C     
15   C        20.2771    4.0388   -0.4945  C     
16   C        20.0220    4.1694   -1.8789  C     
17   C        19.6086    3.0609   -2.6454  C     
18   C        19.4024    1.8009   -2.0361  C     
19   C        19.6126    1.6782   -0.6440  C     
20   C        20.0436    2.7858    0.1132  C     
21   C        18.2533    5.6328    2.2580  C     
22   O        17.5050    6.7529    2.1336  O     
23   O        17.6747    4.4647    1.9017  O     
24   C        18.9897    0.6397   -2.8583  C     
25   H        19.8847    5.9573    6.4693  H     
26   H        18.1298    6.1224    4.8408  H     
27   H        22.1188    5.2742    5.8208  H     
28   H        23.1486    3.5711    0.1113  H     
29   H        23.8584    5.1784    0.3304  H     
30   H        24.6494    2.5443    1.6700  H     
31   H        25.6667    3.6614    0.7461  H     
32   H        26.1115    3.8029    3.2245  H     
33   H        25.5533    5.3393    2.5404  H     
34   H        24.3070    5.1144    4.5422  H     
35   H        23.9765    3.3926    4.2860  H     
36   H        19.8971    5.9509    0.3056  H     
37   H        21.5099    5.7487   -0.3140  H     
38   H        20.1758    5.0622   -2.3541  H     
39   H        19.4478    3.1816   -3.6532  H     
40   H        19.4625    0.7785   -0.1715  H     
41   H        20.1928    2.6512    1.1169  H     
42   H        18.1131    0.8941   -3.4629  H     
43   H        18.7500   -0.2278   -2.2453  H     
44   H        19.8156    0.3652   -3.5149  H     
@<TRIPOS>BOND
     1    1    2 2
     2    1    4 1
     3    2    3 1
     4    3    6 2
     5    3   21 1
     6    4    5 2
     7    5    6 1
     8    5    8 1
     9    6    7 1
    10    7    9 1
    11    7   14 1
    12    8    9 2
    13    8   13 1
    14    9   10 1
    15   10   11 1
    16   11   12 1
    17   12   13 1
    18   14   15 1
    19   15   16 2
    20   15   20 1
    21   16   17 1
    22   17   18 2
    23   18   19 1
    24   18   24 1
    25   19   20 2
    26   21   22 1
    27   21   23 2
    28    1   25 1
    29    2   26 1
    30    4   27 1
    31   10   28 1
    32   10   29 1
    33   11   30 1
    34   11   31 1
    35   12   32 1
    36   12   33 1
    37   13   34 1
    38   13   35 1
    39   14   36 1
    40   14   37 1
    41   16   38 1
    42   17   39 1
    43   19   40 1
    44   20   41 1
    45   24   42 1
    46   24   43 1
    47   24   44 1
@<TRIPOS>PROPERTY_DATA
  Total_Score	| 7.7305
  Crash		| -0.8023
  Polar		| 3.0376
  FragIndex	| 1
  FragRMSD	| 0.213

