@<TRIPOS>MOLECULE
BindingDB_50248191
 44 47 0 0 0
SMALL
NO_CHARGES


@<TRIPOS>ATOM
1    C        20.0469    5.8597    5.5953  C     
2    C        19.0237    5.9654    4.6446  C     
3    C        19.2325    5.5982    3.2876  C     
4    C        21.3003    5.3477    5.2357  C     
5    C        21.5339    5.0068    3.8886  C     
6    C        20.5476    5.1777    2.9065  C     
7    N        21.1514    4.8785    1.7235  N     
8    C        20.6834    5.1911    0.3799  C     
9    C        20.2761    4.0259   -0.4588  C     
10   C        19.8932    4.2386   -1.8089  C     
11   C        19.4922    3.1706   -2.6342  C     
12   C        19.4690    1.8569   -2.1264  C     
13   C        19.8497    1.6198   -0.7870  C     
14   C        20.2555    2.6928    0.0308  C     
15   C        18.0845    5.5855    2.4431  C     
16   O        17.4717    6.7234    2.0104  O     
17   O        17.4666    4.4374    2.0539  O     
18   C        23.3303    3.8283    1.0093  C     
19   C        24.6354    4.6543    0.8794  C     
20   C        25.6412    4.4121    2.0368  C     
21   C        22.3910    4.4044    1.9776  C     
22   C        22.6575    4.4962    3.2906  C     
23   C        23.9004    4.0866    3.9558  C     
24   C        25.1474    4.8531    3.4392  C     
25   H        19.8659    6.1346    6.5612  H     
26   H        18.1016    6.2657    4.9683  H     
27   H        22.0355    5.2753    5.9441  H     
28   H        19.8461    5.8988    0.4011  H     
29   H        21.4832    5.7255   -0.1339  H     
30   H        19.8994    5.1794   -2.1989  H     
31   H        19.2238    3.3415   -3.6050  H     
32   H        19.1826    1.0737   -2.7169  H     
33   H        19.8330    0.6684   -0.4111  H     
34   H        20.5204    2.4782    1.0010  H     
35   H        22.8907    3.7556    0.0164  H     
36   H        23.5795    2.8016    1.3018  H     
37   H        25.1326    4.3626   -0.0451  H     
38   H        24.4088    5.7194    0.8061  H     
39   H        25.9239    3.3529    2.0592  H     
40   H        26.5407    4.9830    1.8117  H     
41   H        23.8301    4.2396    5.0320  H     
42   H        24.0421    3.0154    3.8054  H     
43   H        25.9624    4.6619    4.1420  H     
44   H        24.9541    5.9306    3.4528  H     
@<TRIPOS>BOND
     1    1    2 2
     2    1    4 1
     3    2    3 1
     4    3    6 2
     5    3   15 1
     6    4    5 2
     7    5    6 1
     8    5   22 1
     9    6    7 1
    10    7    8 1
    11    7   21 1
    12    8    9 1
    13    9   10 2
    14    9   14 1
    15   10   11 1
    16   11   12 2
    17   12   13 1
    18   13   14 2
    19   15   16 1
    20   15   17 2
    21   18   19 1
    22   18   21 1
    23   19   20 1
    24   20   24 1
    25   21   22 2
    26   22   23 1
    27   23   24 1
    28    1   25 1
    29    2   26 1
    30    4   27 1
    31    8   28 1
    32    8   29 1
    33   10   30 1
    34   11   31 1
    35   12   32 1
    36   13   33 1
    37   14   34 1
    38   18   35 1
    39   18   36 1
    40   19   37 1
    41   19   38 1
    42   20   39 1
    43   20   40 1
    44   23   41 1
    45   23   42 1
    46   24   43 1
    47   24   44 1
@<TRIPOS>PROPERTY_DATA
  Total_Score	| 7.7853
  Crash		| -0.5827
  Polar		| 3.0615
  FragIndex	| 1
  FragRMSD	| 0.448

