@<TRIPOS>MOLECULE
BindingDB_50247969
 44 47 0 0 0
SMALL
NO_CHARGES


@<TRIPOS>ATOM
1    C        20.0227    5.6184    5.5558  C     
2    C        19.0154    5.8031    4.5908  C     
3    C        19.2862    5.6136    3.2129  C     
4    C        21.3159    5.2251    5.1692  C     
5    C        21.5895    5.0448    3.8001  C     
6    C        20.6128    5.2715    2.8205  C     
7    N        21.2356    5.1199    1.6200  N     
8    C        22.7449    4.7024    3.1657  C     
9    C        22.5037    4.7252    1.8465  C     
10   C        23.5393    4.4637    0.8478  C     
11   C        24.8020    3.7584    1.4176  C     
12   C        25.2136    4.3705    2.7824  C     
13   C        24.0221    4.3523    3.7854  C     
14   C        20.7102    5.4422    0.3113  C     
15   C        20.2032    4.2917   -0.4867  C     
16   C        20.0068    4.4653   -1.8721  C     
17   C        19.5975    3.3941   -2.6853  C     
18   C        19.3583    2.1093   -2.1387  C     
19   C        19.5235    1.9436   -0.7423  C     
20   C        19.9328    3.0114    0.0688  C     
21   C        18.2130    5.6905    2.3033  C     
22   O        17.4926    6.8254    2.1714  O     
23   O        17.6527    4.5429    1.8523  O     
24   C        19.0200    0.9795   -3.0418  C     
25   F        18.7474   -0.2106   -2.4084  F     
26   F        17.9190    1.2794   -3.8125  F     
27   F        20.1026    0.7554   -3.8582  F     
28   H        19.8079    5.7507    6.5447  H     
29   H        18.0742    6.0396    4.9129  H     
30   H        22.0472    5.0834    5.8736  H     
31   H        23.1339    3.8363    0.0497  H     
32   H        23.8382    5.4230    0.4197  H     
33   H        24.5999    2.6906    1.5539  H     
34   H        25.6330    3.8513    0.7120  H     
35   H        26.0635    3.8189    3.1933  H     
36   H        25.5348    5.4049    2.6234  H     
37   H        24.2563    5.0554    4.5875  H     
38   H        23.9295    3.3562    4.2275  H     
39   H        19.9224    6.1907    0.3792  H     
40   H        21.5003    5.9431   -0.2552  H     
41   H        20.2007    5.3699   -2.3120  H     
42   H        19.4962    3.5504   -3.6900  H     
43   H        19.3602    1.0299   -0.3043  H     
44   H        20.0426    2.8461    1.0734  H     
@<TRIPOS>BOND
     1    1    2 2
     2    1    4 1
     3    2    3 1
     4    3    6 2
     5    3   21 1
     6    4    5 2
     7    5    6 1
     8    5    8 1
     9    6    7 1
    10    7    9 1
    11    7   14 1
    12    8    9 2
    13    8   13 1
    14    9   10 1
    15   10   11 1
    16   11   12 1
    17   12   13 1
    18   14   15 1
    19   15   16 2
    20   15   20 1
    21   16   17 1
    22   17   18 2
    23   18   19 1
    24   18   24 1
    25   19   20 2
    26   21   22 1
    27   21   23 2
    28   24   25 1
    29   24   26 1
    30   24   27 1
    31    1   28 1
    32    2   29 1
    33    4   30 1
    34   10   31 1
    35   10   32 1
    36   11   33 1
    37   11   34 1
    38   12   35 1
    39   12   36 1
    40   13   37 1
    41   13   38 1
    42   14   39 1
    43   14   40 1
    44   16   41 1
    45   17   42 1
    46   19   43 1
    47   20   44 1
@<TRIPOS>PROPERTY_DATA
  Total_Score	| 7.0268
  Crash		| -1.6193
  Polar		| 2.9918
  FragIndex	| 1
  FragRMSD	| 0.356

