@<TRIPOS>MOLECULE
BindingDB_50248193
 40 43 0 0 0
SMALL
NO_CHARGES


@<TRIPOS>ATOM
1    C        20.0151    5.7478    5.4831  C     
2    C        19.0107    5.8768    4.5044  C     
3    C        19.2774    5.5888    3.1418  C     
4    C        21.3006    5.3099    5.1216  C     
5    C        21.5683    5.0285    3.7660  C     
6    C        20.5930    5.1950    2.7712  C     
7    N        21.2062    4.9468    1.5826  N     
8    C        22.7207    4.6175    3.1602  C     
9    C        22.4745    4.5664    1.8413  C     
10   C        23.5214    4.2342    0.8682  C     
11   C        24.8287    3.6769    1.5094  C     
12   C        25.1269    4.3543    2.8722  C     
13   C        23.9327    4.3124    3.7152  C     
14   C        20.7029    5.1728    0.2411  C     
15   C        20.3437    3.9540   -0.5368  C     
16   C        20.3358    2.6649    0.0478  C     
17   C        19.9555    1.5266   -0.6997  C     
18   C        19.5392    1.6706   -2.0364  C     
19   C        19.4923    2.9468   -2.6240  C     
20   C        19.8872    4.0791   -1.8724  C     
21   C        18.2082    5.6439    2.2278  C     
22   O        17.4704    6.7668    2.0905  O     
23   O        17.6469    4.4836    1.8160  O     
24   O        24.0034    3.8179    4.8361  O     
25   H        19.8090    5.9542    6.4640  H     
26   H        18.0760    6.1649    4.8104  H     
27   H        22.0283    5.2122    5.8385  H     
28   H        23.1371    3.4834    0.1665  H     
29   H        23.7643    5.1425    0.3018  H     
30   H        24.7307    2.5978    1.6615  H     
31   H        25.6724    3.8370    0.8258  H     
32   H        25.9765    3.8655    3.3525  H     
33   H        25.3876    5.4024    2.6988  H     
34   H        19.8275    5.8307    0.2466  H     
35   H        21.4651    5.7271   -0.3147  H     
36   H        20.6191    2.5312    1.0141  H     
37   H        19.9953    0.5966   -0.2714  H     
38   H        19.2401    0.8527   -2.5714  H     
39   H        19.1671    3.0562   -3.5871  H     
40   H        19.8691    4.9931   -2.3293  H     
@<TRIPOS>BOND
     1    1    2 2
     2    1    4 1
     3    2    3 1
     4    3    6 2
     5    3   21 1
     6    4    5 2
     7    5    6 1
     8    5    8 1
     9    6    7 1
    10    7    9 1
    11    7   14 1
    12    8    9 2
    13    8   13 1
    14    9   10 1
    15   10   11 1
    16   11   12 1
    17   12   13 1
    18   13   24 2
    19   14   15 1
    20   15   16 2
    21   15   20 1
    22   16   17 1
    23   17   18 2
    24   18   19 1
    25   19   20 2
    26   21   22 1
    27   21   23 2
    28    1   25 1
    29    2   26 1
    30    4   27 1
    31   10   28 1
    32   10   29 1
    33   11   30 1
    34   11   31 1
    35   12   32 1
    36   12   33 1
    37   14   34 1
    38   14   35 1
    39   16   36 1
    40   17   37 1
    41   18   38 1
    42   19   39 1
    43   20   40 1
@<TRIPOS>PROPERTY_DATA
  Total_Score	| 6.4180
  Crash		| -0.2825
  Polar		| 3.1507
  FragIndex	| 1
  FragRMSD	| 0.169

