@<TRIPOS>MOLECULE
BindingDB_50248245
 48 51 0 0 0
SMALL
NO_CHARGES


@<TRIPOS>ATOM
1    C        19.9411    5.8250    5.8388  C     
2    C        18.9684    5.9469    4.8419  C     
3    C        19.2599    5.6350    3.4910  C     
4    C        21.2288    5.3716    5.5274  C     
5    C        21.5497    5.0836    4.1856  C     
6    C        20.5918    5.2314    3.1729  C     
7    N        21.2153    4.9311    2.0116  N     
8    C        20.7038    5.1480    0.6979  C     
9    C        20.2646    3.9161   -0.0159  C     
10   C        19.8905    4.0573   -1.3635  C     
11   C        19.4722    2.9642   -2.1550  C     
12   C        19.4373    1.6833   -1.5464  C     
13   C        19.7933    1.5100   -0.1975  C     
14   C        20.2049    2.6255    0.5707  C     
15   C        18.2026    5.6387    2.5642  C     
16   O        17.6715    4.4678    2.1415  O     
17   O        17.6197    6.7969    2.1524  O     
18   C        23.4457    4.0095    1.3279  C     
19   C        24.7157    4.8967    1.2178  C     
20   C        25.7106    4.7028    2.3909  C     
21   C        22.4726    4.5282    2.2860  C     
22   C        22.6993    4.6374    3.6046  C     
23   C        23.9490    4.2956    4.2785  C     
24   C        25.1694    5.1242    3.7833  C     
25   C        19.1175    3.1537   -3.4743  C     
26   O        18.4031    2.3303   -4.0559  O     
27   N        19.5164    4.1904   -4.1794  N     
28   H        19.7011    6.0476    6.8065  H     
29   H        18.0107    6.2268    5.1030  H     
30   H        21.9177    5.2677    6.2754  H     
31   H        19.8750    5.8535    0.6793  H     
32   H        21.4790    5.6375    0.1063  H     
33   H        19.9048    5.0033   -1.7620  H     
34   H        19.1327    0.8682   -2.0780  H     
35   H        19.7612    0.5783    0.2231  H     
36   H        20.4419    2.4690    1.5532  H     
37   H        23.0273    3.9219    0.3254  H     
38   H        23.7227    2.9963    1.6263  H     
39   H        25.2421    4.6453    0.2843  H     
40   H        24.4338    5.9561    1.1456  H     
41   H        26.0285    3.6573    2.4213  H     
42   H        26.6014    5.2975    2.1766  H     
43   H        23.8617    4.4620    5.3514  H     
44   H        24.1452    3.2306    4.1461  H     
45   H        25.9813    4.9939    4.5036  H     
46   H        24.9131    6.1849    3.7683  H     
47   H        19.2418    4.2882   -5.0997  H     
48   H        20.0613    4.8886   -3.7708  H     
@<TRIPOS>BOND
     1    1    2 2
     2    1    4 1
     3    2    3 1
     4    3    6 2
     5    3   15 1
     6    4    5 2
     7    5    6 1
     8    5   22 1
     9    6    7 1
    10    7    8 1
    11    7   21 1
    12    8    9 1
    13    9   10 2
    14    9   14 1
    15   10   11 1
    16   11   12 2
    17   11   25 1
    18   12   13 1
    19   13   14 2
    20   15   16 1
    21   15   17 2
    22   18   19 1
    23   18   21 1
    24   19   20 1
    25   20   24 1
    26   21   22 2
    27   22   23 1
    28   23   24 1
    29   25   26 2
    30   25   27 am
    31    1   28 1
    32    2   29 1
    33    4   30 1
    34    8   31 1
    35    8   32 1
    36   10   33 1
    37   12   34 1
    38   13   35 1
    39   14   36 1
    40   18   37 1
    41   18   38 1
    42   19   39 1
    43   19   40 1
    44   20   41 1
    45   20   42 1
    46   23   43 1
    47   23   44 1
    48   24   45 1
    49   24   46 1
    50   27   47 1
    51   27   48 1
@<TRIPOS>PROPERTY_DATA
  Total_Score	| 7.1712
  Crash		| -2.2874
  Polar		| 3.0665
  FragIndex	| 1
  FragRMSD	| 0.895

