@<TRIPOS>MOLECULE
BindingDB_50247968
 44 47 0 0 0
SMALL
NO_CHARGES


@<TRIPOS>ATOM
1    C        19.9593    5.4276    5.3542  C     
2    C        19.0196    5.7057    4.3424  C     
3    C        19.3761    5.6413    2.9720  C     
4    C        21.2723    5.0529    5.0180  C     
5    C        21.6311    4.9991    3.6553  C     
6    C        20.7214    5.3184    2.6366  C     
7    N        21.4228    5.2576    1.4702  N     
8    C        22.8230    4.6899    3.0699  C     
9    C        22.6643    4.8172    1.7443  C     
10   C        23.7481    4.5745    0.7872  C     
11   C        24.9949    3.8583    1.3899  C     
12   C        25.2961    4.3829    2.8174  C     
13   C        24.0482    4.2484    3.7350  C     
14   C        20.9675    5.6438    0.1506  C     
15   C        20.4532    4.5382   -0.7038  C     
16   C        20.2131    3.2372   -0.2017  C     
17   C        19.6497    2.2182   -1.0000  C     
18   C        19.3639    2.5083   -2.3542  C     
19   C        19.6201    3.7854   -2.8840  C     
20   C        20.1421    4.7959   -2.0578  C     
21   C        18.3662    5.8044    2.0036  C     
22   O        17.4903    6.8287    2.1030  O     
23   O        17.9354    4.6984    1.3580  O     
24   C        19.3437    0.9067   -0.3746  C     
25   F        18.8778   -0.0354   -1.2599  F     
26   F        20.4617    0.3902    0.2275  F     
27   F        18.3871    1.0756    0.5980  F     
28   H        19.6825    5.4765    6.3383  H     
29   H        18.0593    5.9225    4.6220  H     
30   H        21.9472    4.8322    5.7515  H     
31   H        23.3703    3.9625   -0.0355  H     
32   H        24.0603    5.5408    0.3750  H     
33   H        24.8049    2.7839    1.4398  H     
34   H        25.8603    4.0247    0.7455  H     
35   H        26.1349    3.8308    3.2441  H     
36   H        25.5844    5.4348    2.7579  H     
37   H        24.2194    4.8456    4.6319  H     
38   H        23.9272    3.2062    4.0348  H     
39   H        20.1959    6.4115    0.2302  H     
40   H        21.7921    6.1318   -0.3794  H     
41   H        20.4207    3.0257    0.7763  H     
42   H        18.9496    1.8016   -2.9687  H     
43   H        19.4085    3.9858   -3.8646  H     
44   H        20.2962    5.7271   -2.4551  H     
@<TRIPOS>BOND
     1    1    2 2
     2    1    4 1
     3    2    3 1
     4    3    6 2
     5    3   21 1
     6    4    5 2
     7    5    6 1
     8    5    8 1
     9    6    7 1
    10    7    9 1
    11    7   14 1
    12    8    9 2
    13    8   13 1
    14    9   10 1
    15   10   11 1
    16   11   12 1
    17   12   13 1
    18   14   15 1
    19   15   16 2
    20   15   20 1
    21   16   17 1
    22   17   18 2
    23   17   24 1
    24   18   19 1
    25   19   20 2
    26   21   22 1
    27   21   23 2
    28   24   25 1
    29   24   26 1
    30   24   27 1
    31    1   28 1
    32    2   29 1
    33    4   30 1
    34   10   31 1
    35   10   32 1
    36   11   33 1
    37   11   34 1
    38   12   35 1
    39   12   36 1
    40   13   37 1
    41   13   38 1
    42   14   39 1
    43   14   40 1
    44   16   41 1
    45   18   42 1
    46   19   43 1
    47   20   44 1
@<TRIPOS>PROPERTY_DATA
  Total_Score	| 5.4558
  Crash		| -2.3666
  Polar		| 2.8882
  FragIndex	| 1
  FragRMSD	| 0.517

