@<TRIPOS>MOLECULE
BindingDB_50247995
 44 47 0 0 0
SMALL
NO_CHARGES


@<TRIPOS>ATOM
1    C        19.8964    5.7845    5.5278  C     
2    C        18.8904    5.8800    4.5464  C     
3    C        19.1561    5.5816    3.1873  C     
4    C        21.1843    5.3571    5.1709  C     
5    C        21.4517    5.0415    3.8197  C     
6    C        20.4725    5.1808    2.8254  C     
7    N        21.0808    4.8737    1.6480  N     
8    C        20.5549    5.1085    0.3197  C     
9    C        20.2154    3.8879   -0.4646  C     
10   C        20.1013    2.6063    0.1256  C     
11   C        19.7839    1.4716   -0.6514  C     
12   C        19.5663    1.5962   -2.0356  C     
13   C        19.6532    2.8668   -2.6341  C     
14   C        19.9708    3.9949   -1.8562  C     
15   C        18.0667    5.5871    2.3107  C     
16   O        17.7668    6.6932    1.5945  O     
17   O        17.3669    4.4481    2.0905  O     
18   C        23.3049    3.9228    0.9432  C     
19   C        24.5978    4.7728    0.8547  C     
20   C        25.5949    4.5265    2.0107  C     
21   C        22.3348    4.4471    1.9111  C     
22   C        22.5878    4.5566    3.2267  C     
23   C        23.8315    4.1740    3.9000  C     
24   C        25.0759    4.9671    3.4082  C     
25   F        19.2469    0.5498   -2.7483  F     
26   H        19.6832    6.0042    6.5056  H     
27   H        17.9478    6.1605    4.8395  H     
28   H        21.9041    5.2852    5.8896  H     
29   H        19.6650    5.7474    0.3319  H     
30   H        21.3073    5.6943   -0.2271  H     
31   H        20.2445    2.4823    1.1310  H     
32   H        19.6964    0.5599   -0.2054  H     
33   H        19.4836    2.9726   -3.6379  H     
34   H        20.0401    4.9036   -2.3195  H     
35   H        22.8775    3.8694   -0.0564  H     
36   H        23.5573    2.8982    1.2248  H     
37   H        25.1026    4.5273   -0.0844  H     
38   H        24.3329    5.8348    0.8168  H     
39   H        25.8659    3.4668    2.0402  H     
40   H        26.5084    5.0866    1.7990  H     
41   H        23.7561    4.3361    4.9760  H     
42   H        24.0045    3.1033    3.7689  H     
43   H        25.8834    4.8037    4.1248  H     
44   H        24.8575    6.0433    3.4017  H     
@<TRIPOS>BOND
     1    1    2 2
     2    1    4 1
     3    2    3 1
     4    3    6 2
     5    3   15 1
     6    4    5 2
     7    5    6 1
     8    5   22 1
     9    6    7 1
    10    7    8 1
    11    7   21 1
    12    8    9 1
    13    9   10 2
    14    9   14 1
    15   10   11 1
    16   11   12 2
    17   12   13 1
    18   12   25 1
    19   13   14 2
    20   15   16 1
    21   15   17 2
    22   18   19 1
    23   18   21 1
    24   19   20 1
    25   20   24 1
    26   21   22 2
    27   22   23 1
    28   23   24 1
    29    1   26 1
    30    2   27 1
    31    4   28 1
    32    8   29 1
    33    8   30 1
    34   10   31 1
    35   11   32 1
    36   13   33 1
    37   14   34 1
    38   18   35 1
    39   18   36 1
    40   19   37 1
    41   19   38 1
    42   20   39 1
    43   20   40 1
    44   23   41 1
    45   23   42 1
    46   24   43 1
    47   24   44 1
@<TRIPOS>PROPERTY_DATA
  Total_Score	| 8.0076
  Crash		| -0.5445
  Polar		| 3.3144
  FragIndex	| 1
  FragRMSD	| 0.475

