@<TRIPOS>MOLECULE
BindingDB_50248240
 41 44 0 0 0
SMALL
NO_CHARGES


@<TRIPOS>ATOM
1    C        20.0009    5.4213    5.3446  C     
2    C        19.0706    5.6395    4.3080  C     
3    C        19.4357    5.4684    2.9480  C     
4    C        21.3050    4.9903    5.0476  C     
5    C        21.6658    4.8337    3.6961  C     
6    C        20.7734    5.0816    2.6427  C     
7    N        21.4906    4.9387    1.4908  N     
8    C        22.8764    4.5328    3.1646  C     
9    C        22.7591    4.6209    1.8299  C     
10   C        23.9263    4.5725    0.9380  C     
11   C        25.1729    3.8887    1.5892  C     
12   C        25.3797    4.4151    3.0325  C     
13   C        24.0986    4.1911    3.8868  C     
14   C        21.0623    5.3065    0.1543  C     
15   C        20.5244    4.1656   -0.6391  C     
16   C        21.3653    3.1132   -1.0919  C     
17   C        20.8659    2.0979   -1.9278  C     
18   C        19.5029    2.0828   -2.3017  C     
19   C        18.6613    3.1262   -1.8603  C     
20   C        19.1649    4.1534   -1.0437  C     
21   C        18.4339    5.6108    1.9734  C     
22   O        17.5954    6.6757    2.0542  O     
23   O        17.9027    4.4562    1.4983  O     
24   F        19.0188    1.1259   -3.0475  F     
25   H        19.7342    5.5810    6.3197  H     
26   H        18.1172    5.9126    4.5646  H     
27   H        21.9848    4.8348    5.8035  H     
28   H        23.6663    4.0312    0.0057  H     
29   H        24.1978    5.6133    0.6764  H     
30   H        25.0378    2.7973    1.6096  H     
31   H        26.0641    4.1135    0.9956  H     
32   H        26.2262    3.9051    3.5034  H     
33   H        25.5999    5.4862    3.0035  H     
34   H        24.1946    4.7955    4.7954  H     
35   H        24.0332    3.1381    4.1858  H     
36   H        20.3256    6.1103    0.2220  H     
37   H        21.8901    5.7397   -0.4135  H     
38   H        22.3635    3.0873   -0.8190  H     
39   H        21.4866    1.3465   -2.2591  H     
40   H        17.6742    3.1379   -2.1355  H     
41   H        18.5303    4.9047   -0.7513  H     
@<TRIPOS>BOND
     1    1    2 2
     2    1    4 1
     3    2    3 1
     4    3    6 2
     5    3   21 1
     6    4    5 2
     7    5    6 1
     8    5    8 1
     9    6    7 1
    10    7    9 1
    11    7   14 1
    12    8    9 2
    13    8   13 1
    14    9   10 1
    15   10   11 1
    16   11   12 1
    17   12   13 1
    18   14   15 1
    19   15   16 2
    20   15   20 1
    21   16   17 1
    22   17   18 2
    23   18   19 1
    24   18   24 1
    25   19   20 2
    26   21   22 1
    27   21   23 2
    28    1   25 1
    29    2   26 1
    30    4   27 1
    31   10   28 1
    32   10   29 1
    33   11   30 1
    34   11   31 1
    35   12   32 1
    36   12   33 1
    37   13   34 1
    38   13   35 1
    39   14   36 1
    40   14   37 1
    41   16   38 1
    42   17   39 1
    43   19   40 1
    44   20   41 1
@<TRIPOS>PROPERTY_DATA
  Total_Score	| 6.9400
  Crash		| -1.0647
  Polar		| 2.9464
  FragIndex	| 1
  FragRMSD	| 0.675

