@<TRIPOS>MOLECULE
BindingDB_50248196
 45 48 0 0 0
SMALL
NO_CHARGES


@<TRIPOS>ATOM
1    C        20.0854    5.6896    5.6802  C     
2    C        19.0100    5.8259    4.7771  C     
3    C        19.1844    5.5798    3.3862  C     
4    C        21.3357    5.2679    5.2168  C     
5    C        21.5148    5.0421    3.8378  C     
6    C        20.4693    5.2269    2.9109  C     
7    N        21.0339    5.0782    1.6811  N     
8    C        22.6144    4.6409    3.1492  C     
9    C        22.3114    4.6801    1.8347  C     
10   C        23.2851    4.3291    0.7961  C     
11   C        24.7596    4.3920    1.2768  C     
12   C        24.9150    3.7328    2.6705  C     
13   C        23.9278    4.3336    3.7034  C     
14   C        20.5167    5.6052    0.4311  C     
15   C        20.4023    4.6801   -0.7192  C     
16   C        19.9751    3.3282   -0.5721  C     
17   C        19.6842    2.5100   -1.6863  C     
18   C        19.7805    3.0750   -2.9790  C     
19   C        20.2440    4.3937   -3.1547  C     
20   C        20.5689    5.1820   -2.0388  C     
21   C        18.0528    5.5884    2.5478  C     
22   O        17.2755    4.4763    2.4238  O     
23   O        17.6246    6.7325    1.9778  O     
24   O        19.1737    1.2608   -1.4486  O     
25   C        19.0284    0.3514   -2.5937  C     
26   H        19.9318    5.8795    6.6733  H     
27   H        18.0798    6.1021    5.1373  H     
28   H        22.1128    5.1792    5.8775  H     
29   H        23.0528    3.3215    0.4279  H     
30   H        23.1932    5.0141   -0.0552  H     
31   H        25.4126    3.9021    0.5478  H     
32   H        25.0602    5.4429    1.3447  H     
33   H        24.7386    2.6601    2.5651  H     
34   H        25.9393    3.8826    3.0108  H     
35   H        24.3453    5.2566    4.1085  H     
36   H        23.8141    3.6206    4.5213  H     
37   H        19.5296    6.0397    0.5575  H     
38   H        21.1522    6.4569    0.1540  H     
39   H        19.8426    2.9549    0.3788  H     
40   H        19.4976    2.5356   -3.7961  H     
41   H        20.3219    4.7841   -4.0919  H     
42   H        20.8671    6.1582   -2.1967  H     
43   H        18.2548    0.6763   -3.3046  H     
44   H        18.7300   -0.6464   -2.2501  H     
45   H        19.9701    0.2727   -3.1384  H     
@<TRIPOS>BOND
     1    1    2 2
     2    1    4 1
     3    2    3 1
     4    3    6 2
     5    3   21 1
     6    4    5 2
     7    5    6 1
     8    5    8 1
     9    6    7 1
    10    7    9 1
    11    7   14 1
    12    8    9 2
    13    8   13 1
    14    9   10 1
    15   10   11 1
    16   11   12 1
    17   12   13 1
    18   14   15 1
    19   15   16 2
    20   15   20 1
    21   16   17 1
    22   17   18 2
    23   17   24 1
    24   18   19 1
    25   19   20 2
    26   21   22 1
    27   21   23 2
    28   24   25 1
    29    1   26 1
    30    2   27 1
    31    4   28 1
    32   10   29 1
    33   10   30 1
    34   11   31 1
    35   11   32 1
    36   12   33 1
    37   12   34 1
    38   13   35 1
    39   13   36 1
    40   14   37 1
    41   14   38 1
    42   16   39 1
    43   18   40 1
    44   19   41 1
    45   20   42 1
    46   25   43 1
    47   25   44 1
    48   25   45 1
@<TRIPOS>PROPERTY_DATA
  Total_Score	| 6.8550
  Crash		| -1.6663
  Polar		| 3.0990
  FragIndex	| 1
  FragRMSD	| 0.881

