@<TRIPOS>MOLECULE
BindingDB_50247987
 41 44 0 0 0
SMALL
NO_CHARGES


@<TRIPOS>ATOM
1    C        19.9508    5.3809    5.3321  C     
2    C        19.0281    5.6289    4.2972  C     
3    C        19.4029    5.4827    2.9356  C     
4    C        21.2634    4.9846    5.0241  C     
5    C        21.6400    4.8731    3.6714  C     
6    C        20.7461    5.1207    2.6200  C     
7    N        21.4628    4.9892    1.4653  N     
8    C        22.8584    4.5887    3.1319  C     
9    C        22.7386    4.6786    1.7974  C     
10   C        23.9160    4.6402    0.9150  C     
11   C        25.1550    3.9346    1.5501  C     
12   C        25.3709    4.4116    3.0093  C     
13   C        24.0776    4.2334    3.8539  C     
14   C        21.0073    5.3194    0.1326  C     
15   C        20.4948    4.1584   -0.6531  C     
16   C        21.3653    3.1375   -1.1234  C     
17   C        20.8935    2.1006   -1.9503  C     
18   C        19.5397    2.0538   -2.3270  C     
19   C        18.6727    3.0724   -1.8873  C     
20   C        19.1413    4.1097   -1.0614  C     
21   C        18.3978    5.6360    1.9718  C     
22   O        17.5918    6.7223    2.0409  O     
23   O        17.8166    4.4977    1.5335  O     
24   H        19.6641    5.4838    6.3101  H     
25   H        18.0713    5.8971    4.5525  H     
26   H        21.9325    4.8089    5.7802  H     
27   H        23.6777    4.1100   -0.0147  H     
28   H        24.1829    5.6746    0.6562  H     
29   H        25.0057    2.8473    1.5457  H     
30   H        26.0454    4.1610    0.9578  H     
31   H        26.1960    3.8546    3.4597  H     
32   H        25.6405    5.4718    3.0010  H     
33   H        24.1798    4.8466    4.7557  H     
34   H        23.9923    3.1884    4.1628  H     
35   H        20.2492    6.1089    0.2171  H     
36   H        21.8149    5.7715   -0.4515  H     
37   H        22.3609    3.1471   -0.8702  H     
38   H        21.5407    1.3855   -2.2920  H     
39   H        19.1985    1.3022   -2.9305  H     
40   H        17.6961    3.0663   -2.1832  H     
41   H        18.4866    4.8413   -0.7817  H     
@<TRIPOS>BOND
     1    1    2 2
     2    1    4 1
     3    2    3 1
     4    3    6 2
     5    3   21 1
     6    4    5 2
     7    5    6 1
     8    5    8 1
     9    6    7 1
    10    7    9 1
    11    7   14 1
    12    8    9 2
    13    8   13 1
    14    9   10 1
    15   10   11 1
    16   11   12 1
    17   12   13 1
    18   14   15 1
    19   15   16 2
    20   15   20 1
    21   16   17 1
    22   17   18 2
    23   18   19 1
    24   19   20 2
    25   21   22 1
    26   21   23 2
    27    1   24 1
    28    2   25 1
    29    4   26 1
    30   10   27 1
    31   10   28 1
    32   11   29 1
    33   11   30 1
    34   12   31 1
    35   12   32 1
    36   13   33 1
    37   13   34 1
    38   14   35 1
    39   14   36 1
    40   16   37 1
    41   17   38 1
    42   18   39 1
    43   19   40 1
    44   20   41 1
@<TRIPOS>PROPERTY_DATA
  Total_Score	| 6.7159
  Crash		| -1.0944
  Polar		| 2.9821
  FragIndex	| 1
  FragRMSD	| 0.677

