@<TRIPOS>MOLECULE
BindingDB_50247990
 38 41 0 0 0
SMALL
NO_CHARGES


@<TRIPOS>ATOM
1    C        19.9344    5.4844    5.3786  C     
2    C        18.9918    5.6977    4.3555  C     
3    C        19.3401    5.5133    2.9918  C     
4    C        21.2361    5.0684    5.0632  C     
5    C        21.5660    4.8996    3.7081  C     
6    C        20.6666    5.1277    2.6549  C     
7    N        21.3764    4.9748    1.4932  N     
8    C        20.9702    5.3339    0.1502  C     
9    C        20.4340    4.1987   -0.6577  C     
10   C        21.2885    3.1620   -1.1112  C     
11   C        20.7971    2.1232   -1.9288  C     
12   C        19.4414    2.0984   -2.3030  C     
13   C        18.5874    3.1297   -1.8731  C     
14   C        19.0806    4.1697   -1.0704  C     
15   C        18.3298    5.6545    2.0276  C     
16   O        17.5165    6.7358    2.0611  O     
17   O        17.7645    4.5076    1.5928  O     
18   C        22.7569    4.6060    3.1568  C     
19   C        22.6415    4.6871    1.8444  C     
20   C        23.9330    4.6349    1.1946  C     
21   C        24.9028    4.2885    2.3568  C     
22   C        24.0802    4.4260    3.6616  C     
23   H        19.6674    5.6313    6.3547  H     
24   H        18.0410    5.9790    4.6179  H     
25   H        21.9268    4.9198    5.8010  H     
26   H        20.2460    6.1473    0.2092  H     
27   H        21.8124    5.7664   -0.3929  H     
28   H        22.2770    3.1615   -0.8846  H     
29   H        21.4330    1.3918   -2.2614  H     
30   H        19.0858    1.3457   -2.9054  H     
31   H        17.6085    3.1388   -2.1695  H     
32   H        18.4438    4.9268   -0.8134  H     
33   H        23.9888    3.8697    0.4240  H     
34   H        24.1702    5.6183    0.7655  H     
35   H        25.2591    3.2597    2.2537  H     
36   H        25.7717    4.9570    2.3621  H     
37   H        24.3854    5.3063    4.2333  H     
38   H        24.1445    3.5306    4.2824  H     
@<TRIPOS>BOND
     1    1    2 2
     2    1    4 1
     3    2    3 1
     4    3    6 2
     5    3   15 1
     6    4    5 2
     7    5    6 1
     8    5   18 1
     9    6    7 1
    10    7    8 1
    11    7   19 1
    12    8    9 1
    13    9   10 2
    14    9   14 1
    15   10   11 1
    16   11   12 2
    17   12   13 1
    18   13   14 2
    19   15   16 1
    20   15   17 2
    21   18   19 2
    22   18   22 1
    23   19   20 1
    24   20   21 1
    25   21   22 1
    26    1   23 1
    27    2   24 1
    28    4   25 1
    29    8   26 1
    30    8   27 1
    31   10   28 1
    32   11   29 1
    33   12   30 1
    34   13   31 1
    35   14   32 1
    36   20   33 1
    37   20   34 1
    38   21   35 1
    39   21   36 1
    40   22   37 1
    41   22   38 1
@<TRIPOS>PROPERTY_DATA
  Total_Score	| 6.1656
  Crash		| -0.7479
  Polar		| 3.0305
  FragIndex	| 1
  FragRMSD	| 0.675

