@<TRIPOS>MOLECULE
BindingDB_50248237
 45 48 0 0 0
SMALL
NO_CHARGES


@<TRIPOS>ATOM
1    C        19.9829    5.4175    5.4080  C     
2    C        19.0636    5.6418    4.3726  C     
3    C        19.4452    5.4905    3.0150  C     
4    C        21.2972    5.0154    5.1188  C     
5    C        21.6677    4.8979    3.7694  C     
6    C        20.7920    5.1503    2.7106  C     
7    N        21.5251    5.0536    1.5605  N     
8    C        22.8911    4.6415    3.2383  C     
9    C        22.8103    4.7761    1.9053  C     
10   C        23.9999    4.8464    1.0528  C     
11   C        25.1993    4.0563    1.6608  C     
12   C        25.4093    4.4430    3.1547  C     
13   C        24.0995    4.2735    3.9773  C     
14   C        21.0921    5.4234    0.2321  C     
15   C        20.5409    4.3011   -0.5788  C     
16   C        19.2066    4.3617   -1.0550  C     
17   C        18.6997    3.3857   -1.9358  C     
18   C        19.5288    2.3386   -2.3757  C     
19   C        20.8659    2.2527   -1.8854  C     
20   C        21.3553    3.2010   -0.9666  C     
21   C        18.4546    5.6437    2.0435  C     
22   O        17.6596    6.7397    2.0548  O     
23   O        17.8956    4.5100    1.5581  O     
24   O        19.0131    1.5098   -3.3431  O     
25   C        19.0785    0.1084   -3.0596  C     
26   H        19.7017    5.5372    6.3820  H     
27   H        18.1119    5.9115    4.6217  H     
28   H        21.9698    4.8576    5.8746  H     
29   H        23.7931    4.4806    0.0547  H     
30   H        24.2887    5.9060    0.9862  H     
31   H        25.0001    2.9822    1.5939  H     
32   H        26.1089    4.2718    1.0994  H     
33   H        26.2105    3.8294    3.5906  H     
34   H        25.7341    5.4907    3.2096  H     
35   H        24.1921    4.8763    4.8783  H     
36   H        24.0056    3.2291    4.2780  H     
37   H        20.3802    6.2505    0.3104  H     
38   H        21.9149    5.8564   -0.3444  H     
39   H        18.6022    5.1489   -0.8060  H     
40   H        17.7354    3.4586   -2.2673  H     
41   H        21.4583    1.4849   -2.1968  H     
42   H        22.3099    3.1038   -0.6140  H     
43   H        20.1055   -0.2490   -3.1886  H     
44   H        18.4248   -0.4011   -3.7715  H     
45   H        18.7337   -0.1180   -2.0445  H     
@<TRIPOS>BOND
     1    1    2 2
     2    1    4 1
     3    2    3 1
     4    3    6 2
     5    3   21 1
     6    4    5 2
     7    5    6 1
     8    5    8 1
     9    6    7 1
    10    7    9 1
    11    7   14 1
    12    8    9 2
    13    8   13 1
    14    9   10 1
    15   10   11 1
    16   11   12 1
    17   12   13 1
    18   14   15 1
    19   15   16 2
    20   15   20 1
    21   16   17 1
    22   17   18 2
    23   18   19 1
    24   18   24 1
    25   19   20 2
    26   21   22 1
    27   21   23 2
    28   24   25 1
    29    1   26 1
    30    2   27 1
    31    4   28 1
    32   10   29 1
    33   10   30 1
    34   11   31 1
    35   11   32 1
    36   12   33 1
    37   12   34 1
    38   13   35 1
    39   13   36 1
    40   14   37 1
    41   14   38 1
    42   16   39 1
    43   17   40 1
    44   19   41 1
    45   20   42 1
    46   25   43 1
    47   25   44 1
    48   25   45 1
@<TRIPOS>PROPERTY_DATA
  Total_Score	| 7.3568
  Crash		| -2.3927
  Polar		| 3.3912
  FragIndex	| 1
  FragRMSD	| 0.767

