@<TRIPOS>MOLECULE
BindingDB_50248195
 45 48 0 0 0
SMALL
NO_CHARGES


@<TRIPOS>ATOM
1    C        20.0163    5.7553    5.5972  C     
2    C        18.9472    5.8508    4.6905  C     
3    C        19.1397    5.5964    3.3115  C     
4    C        21.2924    5.3798    5.1469  C     
5    C        21.4823    5.1208    3.7773  C     
6    C        20.4416    5.2425    2.8483  C     
7    N        20.9920    4.9763    1.6315  N     
8    C        22.6057    4.7286    3.1112  C     
9    C        22.2999    4.6849    1.8067  C     
10   C        23.2871    4.3396    0.7772  C     
11   C        24.7622    4.3069    1.2708  C     
12   C        24.8612    3.6917    2.6858  C     
13   C        23.9182    4.4296    3.6771  C     
14   C        20.3566    5.0990    0.3371  C     
15   C        20.2877    3.8579   -0.4783  C     
16   C        20.2467    3.9305   -1.8960  C     
17   C        20.0348    2.7592   -2.6514  C     
18   C        19.9086    1.5115   -2.0147  C     
19   C        19.9650    1.4305   -0.6123  C     
20   C        20.1280    2.5989    0.1498  C     
21   C        17.9864    5.6193    2.5096  C     
22   O        17.7307    6.6798    1.7072  O     
23   O        17.2869    4.4761    2.3227  O     
24   O        20.2722    5.1303   -2.5599  O     
25   C        21.5809    5.7148   -2.7008  C     
26   H        19.8586    5.9348    6.5873  H     
27   H        18.0198    6.0934    5.0566  H     
28   H        22.0689    5.3069    5.8066  H     
29   H        23.0327    3.3588    0.3635  H     
30   H        23.2302    5.0724   -0.0282  H     
31   H        25.3742    3.7286    0.5723  H     
32   H        25.1573    5.3270    1.3002  H     
33   H        24.5782    2.6365    2.6333  H     
34   H        25.8905    3.7487    3.0417  H     
35   H        24.3800    5.3682    3.9905  H     
36   H        23.7934    3.7998    4.5593  H     
37   H        19.3314    5.4455    0.4098  H     
38   H        20.8837    5.8895   -0.2011  H     
39   H        19.9476    2.8171   -3.6688  H     
40   H        19.7636    0.6646   -2.5688  H     
41   H        19.8675    0.5250   -0.1463  H     
42   H        20.1164    2.5211    1.1700  H     
43   H        22.0433    5.9119   -1.7344  H     
44   H        21.4685    6.6725   -3.2107  H     
45   H        22.2440    5.0816   -3.2960  H     
@<TRIPOS>BOND
     1    1    2 2
     2    1    4 1
     3    2    3 1
     4    3    6 2
     5    3   21 1
     6    4    5 2
     7    5    6 1
     8    5    8 1
     9    6    7 1
    10    7    9 1
    11    7   14 1
    12    8    9 2
    13    8   13 1
    14    9   10 1
    15   10   11 1
    16   11   12 1
    17   12   13 1
    18   14   15 1
    19   15   16 2
    20   15   20 1
    21   16   17 1
    22   16   24 1
    23   17   18 2
    24   18   19 1
    25   19   20 2
    26   21   22 1
    27   21   23 2
    28   24   25 1
    29    1   26 1
    30    2   27 1
    31    4   28 1
    32   10   29 1
    33   10   30 1
    34   11   31 1
    35   11   32 1
    36   12   33 1
    37   12   34 1
    38   13   35 1
    39   13   36 1
    40   14   37 1
    41   14   38 1
    42   17   39 1
    43   18   40 1
    44   19   41 1
    45   20   42 1
    46   25   43 1
    47   25   44 1
    48   25   45 1
@<TRIPOS>PROPERTY_DATA
  Total_Score	| 7.0316
  Crash		| -0.9690
  Polar		| 3.4020
  FragIndex	| 1
  FragRMSD	| 0.382

