@<TRIPOS>MOLECULE
BindingDB_10884
 36 37 0 0 0
SMALL
NO_CHARGES


@<TRIPOS>ATOM
1    C        -2.3349    5.7040   14.2112  C     
2    C        -3.4808    6.3044   13.3409  C     
3    S        -5.0476    6.1031   14.2280  S     
4    O        -5.1789    7.1562   15.4127  O     
5    O        -6.3107    6.1334   13.2615  O     
6    C        -3.2421    7.7956   12.9875  C     
7    C        -2.4717    4.1656   14.4880  C     
8    N        -2.3057    3.2804   13.3022  N     
9    C        -1.2030    3.5616   12.3547  C     
10   C        -0.9350    2.3348   11.4589  C     
11   C        -3.7783    3.7888   15.1022  C     
12   C        -4.0056    2.5757   15.7871  C     
13   C        -4.9447    4.5586   14.9861  C     
14   S        -6.2518    3.7356   15.7364  S     
15   C        -5.3210    2.3763   16.2186  C     
16   S        -5.9498    1.0070   17.0740  S     
17   O        -5.8491   -0.3092   16.1889  O     
18   O        -5.0882    0.8223   18.3981  O     
19   N        -7.5473    1.2278   17.5469  N     
20   H        -1.3756    5.8967   13.7263  H     
21   H        -2.3096    6.2310   15.1720  H     
22   H        -3.5445    5.7420   12.4042  H     
23   H        -3.1553    8.4039   13.8942  H     
24   H        -4.0731    8.1751   12.3873  H     
25   H        -2.3188    7.8997   12.4077  H     
26   H        -1.6847    3.9046   15.2044  H     
27   H        -2.1250    2.3428   13.6710  H     
28   H        -3.1829    3.2581   12.7735  H     
29   H        -1.4802    4.4047   11.7158  H     
30   H        -0.2867    3.8152   12.9019  H     
31   H        -0.5676    1.4982   12.0694  H     
32   H        -0.1735    2.5754   10.7084  H     
33   H        -1.8460    2.0296   10.9421  H     
34   H        -3.2712    1.8805   15.9412  H     
35   H        -7.8361    0.8943   18.4148  H     
36   H        -8.1394    1.7929   17.0187  H     
@<TRIPOS>BOND
     1    1    2 1
     2    1    7 1
     3    2    3 1
     4    2    6 1
     5    3    4 2
     6    3    5 2
     7    3   13 1
     8    7    8 1
     9    7   11 1
    10    8    9 1
    11    9   10 1
    12   11   12 1
    13   11   13 2
    14   12   15 2
    15   13   14 1
    16   14   15 1
    17   15   16 1
    18   16   17 2
    19   16   18 2
    20   16   19 am
    21    1   20 1
    22    1   21 1
    23    2   22 1
    24    6   23 1
    25    6   24 1
    26    6   25 1
    27    7   26 1
    28    8   27 1
    29    8   28 1
    30    9   29 1
    31    9   30 1
    32   10   31 1
    33   10   32 1
    34   10   33 1
    35   12   34 1
    36   19   35 1
    37   19   36 1
@<TRIPOS>PROPERTY_DATA
  Total_Score	| 6.8005
  Crash		| -1.3254
  Polar		| 4.8846
  FragIndex	| 1
  FragRMSD	| 0.881

