@<TRIPOS>MOLECULE
BindingDB_50160672
 46 47 0 0 0
SMALL
NO_CHARGES


@<TRIPOS>ATOM
1    C        -4.9368    4.4675   14.9389  C     
2    S        -4.9758    6.0242   14.1977  S     
3    C        -3.7841    3.6892   15.1002  C     
4    S        -6.2573    3.6784   15.7004  S     
5    C        -5.3505    2.3190   16.2262  C     
6    S        -6.0023    0.9918   17.1270  S     
7    C        -4.0263    2.4922   15.8060  C     
8    C        -3.3483    6.3156   13.4441  C     
9    C        -2.4705    4.0528   14.5004  C     
10   C        -2.2808    5.5977   14.3215  C     
11   O        -6.1736    6.0826   13.1525  O     
12   O        -5.2445    7.0288   15.3989  O     
13   O        -5.7888   -0.2962   16.2234  O     
14   O        -5.2592    0.7523   18.5106  O     
15   N        -7.6659    1.0762   17.3254  N     
16   N        -2.3358    3.2360   13.2641  N     
17   C        -3.1385    7.8548   13.2850  C     
18   O        -1.0257    8.0770   15.3006  O     
19   C        -1.2590    3.5629   12.3028  C     
20   C        -0.5819    8.3025   13.9445  C     
21   C        -1.3691    9.2475   16.0609  C     
22   C        -1.7287    8.3921   12.8939  C     
23   C        -0.9501    2.3456   11.4104  C     
24   H        -3.2947    1.8022   15.9983  H     
25   H        -3.3546    5.8572   12.4526  H     
26   H        -1.6873    3.7247   15.1900  H     
27   H        -1.2938    5.7537   13.8983  H     
28   H        -2.2739    6.0715   15.3073  H     
29   H        -8.2117    0.3164   17.0741  H     
30   H        -8.0848    1.9397   17.4702  H     
31   H        -2.1483    2.2831   13.5796  H     
32   H        -3.2264    3.2450   12.7612  H     
33   H        -3.8123    8.1899   12.4874  H     
34   H        -3.4674    8.3581   14.1981  H     
35   H        -1.5664    4.3949   11.6672  H     
36   H        -0.3521    3.8427   12.8406  H     
37   H         0.0410    9.2015   13.8856  H     
38   H         0.0742    7.4745   13.6771  H     
39   H        -0.4708    9.8294   16.2871  H     
40   H        -1.8192    8.9207   17.0032  H     
41   H        -2.0933    9.8745   15.5334  H     
42   H        -1.4012    7.9004   11.9712  H     
43   H        -1.8523    9.4530   12.6543  H     
44   H        -0.5801    1.5176   12.0190  H     
45   H        -0.1905    2.6085   10.6731  H     
46   H        -1.8510    2.0280   10.8840  H     
@<TRIPOS>BOND
     1    1    2 1
     2    1    3 2
     3    1    4 1
     4    2    8 1
     5    2   11 2
     6    2   12 2
     7    3    7 1
     8    3    9 1
     9    4    5 1
    10    5    6 1
    11    5    7 2
    12    6   13 2
    13    6   14 2
    14    6   15 am
    15    8   10 1
    16    8   17 1
    17    9   10 1
    18    9   16 1
    19   16   19 1
    20   17   22 1
    21   18   20 1
    22   18   21 1
    23   19   23 1
    24   20   22 1
    25    7   24 1
    26    8   25 1
    27    9   26 1
    28   10   27 1
    29   10   28 1
    30   15   29 1
    31   15   30 1
    32   16   31 1
    33   16   32 1
    34   17   33 1
    35   17   34 1
    36   19   35 1
    37   19   36 1
    38   20   37 1
    39   20   38 1
    40   21   39 1
    41   21   40 1
    42   21   41 1
    43   22   42 1
    44   22   43 1
    45   23   44 1
    46   23   45 1
    47   23   46 1
@<TRIPOS>PROPERTY_DATA
  Total_Score	| 7.6786
  Crash		| -1.5553
  Polar		| 4.7055
  FragIndex	| 1
  FragRMSD	| 0.875

