@<TRIPOS>MOLECULE
BindingDB_13054
 36 37 0 0 0
SMALL
NO_CHARGES


@<TRIPOS>ATOM
1    C        -3.2269    4.2994   13.5343  C     
2    C        -2.7592    5.6813   14.0925  C     
3    C        -3.8613    6.7949   14.0689  C     
4    S        -5.5050    6.1602   14.5266  S     
5    O        -6.5725    6.2462   13.3507  O     
6    O        -6.0829    6.8624   15.8289  O     
7    C        -3.9243    7.5426   12.7126  C     
8    N        -2.0463    3.4361   13.2502  N     
9    C        -2.0816    2.6688   11.9822  C     
10   C        -0.6799    2.1393   11.6251  C     
11   C        -4.2446    3.7036   14.4527  C     
12   C        -5.3293    4.4789   14.8793  C     
13   C        -4.2741    2.3992   14.9921  C     
14   S        -6.3451    3.5376   15.8922  S     
15   C        -5.3795    2.1228   15.8063  C     
16   N        -5.0282   -0.6786   15.8788  N     
17   S        -5.7506    0.6435   16.6231  S     
18   O        -5.0975    0.7671   18.0662  O     
19   O        -7.3207    0.4411   16.7903  O     
20   H        -3.7334    4.5041   12.5862  H     
21   H        -2.4165    5.5424   15.1213  H     
22   H        -1.8929    6.0310   13.5232  H     
23   H        -3.5925    7.5374   14.8257  H     
24   H        -2.9658    8.0185   12.5014  H     
25   H        -4.6890    8.3206   12.7409  H     
26   H        -4.1593    6.8564   11.8998  H     
27   H        -1.2199    4.0360   13.2070  H     
28   H        -1.9144    2.7797   14.0207  H     
29   H        -2.7746    1.8309   12.0704  H     
30   H        -2.4175    3.3145   11.1672  H     
31   H         0.0108    2.9766   11.4983  H     
32   H        -0.7205    1.5727   10.6918  H     
33   H        -0.3067    1.4859   12.4156  H     
34   H        -3.5552    1.7007   14.8032  H     
35   H        -4.5885   -1.3478   16.4188  H     
36   H        -4.9157   -0.6902   14.9147  H     
@<TRIPOS>BOND
     1    1    2 1
     2    1    8 1
     3    1   11 1
     4    2    3 1
     5    3    4 1
     6    3    7 1
     7    4    5 2
     8    4    6 2
     9    4   12 1
    10    8    9 1
    11    9   10 1
    12   11   12 2
    13   11   13 1
    14   12   14 1
    15   13   15 2
    16   14   15 1
    17   15   17 1
    18   16   17 am
    19   17   18 2
    20   17   19 2
    21    1   20 1
    22    2   21 1
    23    2   22 1
    24    3   23 1
    25    7   24 1
    26    7   25 1
    27    7   26 1
    28    8   27 1
    29    8   28 1
    30    9   29 1
    31    9   30 1
    32   10   31 1
    33   10   32 1
    34   10   33 1
    35   13   34 1
    36   16   35 1
    37   16   36 1
@<TRIPOS>PROPERTY_DATA
  Total_Score	| 4.9496
  Crash		| -2.0406
  Polar		| 4.0968
  FragIndex	| 1
  FragRMSD	| 0.695

