@<TRIPOS>MOLECULE
BindingDB_29037
 35 36 0 0 0
SMALL
NO_CHARGES


@<TRIPOS>ATOM
1    C         6.2184  -36.0243   -2.7543  C     
2    C         7.0844  -34.9104   -2.6966  C     
3    C         6.8070  -33.8178   -1.8476  C     
4    C         5.6112  -33.8473   -1.0971  C     
5    C         4.7607  -34.9661   -1.1356  C     
6    C         5.0494  -36.0720   -1.9565  C     
7    C         7.6893  -32.7032   -1.7552  C     
8    N         4.1618  -37.1104   -1.8952  N     
9    C         4.0410  -38.2134   -2.6201  C     
10   C         3.0250  -39.0778   -2.3456  C     
11   O         4.8049  -38.4702   -3.5541  O     
12   C         2.9243  -39.7082   -1.1534  C     
13   C         2.1580  -39.2370   -3.2749  C     
14   N         1.3916  -39.3879   -4.1274  N     
15   C         1.9710  -40.7769   -0.8707  C     
16   O         3.7817  -39.3904   -0.1787  O     
17   C         8.1137  -32.1403   -0.5155  C     
18   C         8.9862  -31.0328   -0.5075  C     
19   C         9.4184  -30.4533   -1.7120  C     
20   C         8.9896  -30.9844   -2.9366  C     
21   C         8.1513  -32.1127   -2.9575  C     
22   Cl        7.6403  -32.7436    1.0008  Cl    
23   H         6.4685  -36.8056   -3.3639  H     
24   H         7.9331  -34.9216   -3.2619  H     
25   H         5.3433  -33.0571   -0.5087  H     
26   H         3.9193  -34.9653   -0.5549  H     
27   H         3.5000  -37.0197   -1.1909  H     
28   H         0.9458  -40.4112   -0.9596  H     
29   H         2.1028  -41.1764    0.1343  H     
30   H         2.1280  -41.5990   -1.5726  H     
31   H         3.2816  -39.4627    0.6609  H     
32   H         9.3067  -30.6338    0.3756  H     
33   H        10.0448  -29.6412   -1.6959  H     
34   H         9.2892  -30.5509   -3.8158  H     
35   H         7.8592  -32.4866   -3.8674  H     
@<TRIPOS>BOND
     1    1    2 1
     2    1    6 2
     3    2    3 2
     4    3    4 1
     5    3    7 1
     6    4    5 2
     7    5    6 1
     8    6    8 1
     9    7   17 2
    10    7   21 1
    11    8    9 am
    12    9   10 1
    13    9   11 2
    14   10   12 2
    15   10   13 1
    16   12   15 1
    17   12   16 1
    18   13   14 3
    19   17   18 1
    20   17   22 1
    21   18   19 2
    22   19   20 1
    23   20   21 2
    24    1   23 1
    25    2   24 1
    26    4   25 1
    27    5   26 1
    28    8   27 1
    29   15   28 1
    30   15   29 1
    31   15   30 1
    32   16   31 1
    33   18   32 1
    34   19   33 1
    35   20   34 1
    36   21   35 1
@<TRIPOS>PROPERTY_DATA
  Total_Score	| 5.4426
  Crash		| -1.2339
  Polar		| 1.1762
  FragIndex	| 1
  FragRMSD	| 0.521

