@<TRIPOS>MOLECULE
BindingDB_14712
 28 28 0 0 0
SMALL
NO_CHARGES


@<TRIPOS>ATOM
1    C         4.8360  -34.7996   -1.2367  C     
2    C         5.7518  -33.7282   -1.2314  C     
3    C         6.9295  -33.7608   -2.0173  C     
4    C         7.1394  -34.9011   -2.8337  C     
5    C         6.2181  -35.9683   -2.8516  C     
6    C         5.0576  -35.9397   -2.0352  C     
7    C         7.8843  -32.6156   -1.9692  C     
8    F         8.9983  -32.7730   -2.7555  F     
9    F         7.2521  -31.4706   -2.3913  F     
10   F         8.3268  -32.4369   -0.6801  F     
11   N         4.1143  -36.9301   -1.9918  N     
12   C         4.1200  -38.1561   -2.5038  C     
13   O         5.0956  -38.6209   -3.0767  O     
14   C         3.0585  -38.9894   -2.2981  C     
15   C         2.3049  -39.1874   -3.3218  C     
16   N         1.6408  -39.3858   -4.2416  N     
17   C         2.8145  -39.5869   -1.1054  C     
18   C         1.7639  -40.5862   -0.8934  C     
19   O         3.5981  -39.2609   -0.0665  O     
20   H         3.9998  -34.7373   -0.6511  H     
21   H         5.5504  -32.9205   -0.6317  H     
22   H         7.9699  -34.9621   -3.4275  H     
23   H         6.3986  -36.7589   -3.4834  H     
24   H         3.3386  -36.7145   -1.4581  H     
25   H         0.7880  -40.1644   -1.1335  H     
26   H         1.7335  -40.9319    0.1382  H     
27   H         1.9480  -41.4516   -1.5303  H     
28   H         3.2447  -39.7345    0.7159  H     
@<TRIPOS>BOND
     1    1    2 1
     2    1    6 2
     3    2    3 2
     4    3    4 1
     5    3    7 1
     6    4    5 2
     7    5    6 1
     8    6   11 1
     9    7    8 1
    10    7    9 1
    11    7   10 1
    12   11   12 am
    13   12   13 2
    14   12   14 1
    15   14   15 1
    16   14   17 2
    17   15   16 3
    18   17   18 1
    19   17   19 1
    20    1   20 1
    21    2   21 1
    22    4   22 1
    23    5   23 1
    24   11   24 1
    25   18   25 1
    26   18   26 1
    27   18   27 1
    28   19   28 1
@<TRIPOS>PROPERTY_DATA
  Total_Score	| 3.4724
  Crash		| -1.3162
  Polar		| 1.1011
  FragIndex	| 1
  FragRMSD	| 0.625

