@<TRIPOS>MOLECULE
BindingDB_29038
 35 36 0 0 0
SMALL
NO_CHARGES


@<TRIPOS>ATOM
1    C         4.9624  -35.1627   -0.6960  C     
2    C         5.7710  -33.9925   -0.7304  C     
3    C         6.7623  -33.7914   -1.7301  C     
4    C         6.9208  -34.8303   -2.6824  C     
5    C         6.1106  -35.9878   -2.6510  C     
6    C         5.1068  -36.2156   -1.6594  C     
7    C         7.6179  -32.6193   -1.7383  C     
8    N         4.2315  -37.2727   -1.6195  N     
9    C         3.9342  -38.2647   -2.4668  C     
10   C         2.8827  -39.0835   -2.2486  C     
11   O         4.5283  -38.4336   -3.5171  O     
12   C         2.7073  -39.8047   -1.0833  C     
13   C         2.0395  -39.1112   -3.2107  C     
14   N         1.1229  -39.2173   -3.9567  N     
15   C         1.5878  -40.7067   -0.7580  C     
16   O         3.6301  -39.6725   -0.1080  O     
17   C         8.0364  -32.0237   -2.9540  C     
18   C         8.9352  -30.9412   -2.9559  C     
19   C         9.4295  -30.4370   -1.7449  C     
20   C         8.9930  -30.9885   -0.5258  C     
21   C         8.0891  -32.0594   -0.5185  C     
22   Cl        3.8870  -35.2729    0.6189  Cl    
23   H         5.6284  -33.2519   -0.0284  H     
24   H         7.6353  -34.7584   -3.4129  H     
25   H         6.2814  -36.6864   -3.3750  H     
26   H         3.7514  -37.3423   -0.7851  H     
27   H         0.7278  -40.1328   -0.3731  H     
28   H         1.8819  -41.4714    0.0029  H     
29   H         1.2373  -41.2567   -1.6461  H     
30   H         3.0824  -39.4951    0.7115  H     
31   H         7.7012  -32.3808   -3.8490  H     
32   H         9.2270  -30.5401   -3.8283  H     
33   H        10.0877  -29.6668   -1.7418  H     
34   H         9.3339  -30.6149    0.3562  H     
35   H         7.8153  -32.4710    0.3798  H     
@<TRIPOS>BOND
     1    1    2 1
     2    1    6 2
     3    1   22 1
     4    2    3 2
     5    3    4 1
     6    3    7 1
     7    4    5 2
     8    5    6 1
     9    6    8 1
    10    7   17 2
    11    7   21 1
    12    8    9 am
    13    9   10 1
    14    9   11 2
    15   10   12 2
    16   10   13 1
    17   12   15 1
    18   12   16 1
    19   13   14 3
    20   17   18 1
    21   18   19 2
    22   19   20 1
    23   20   21 2
    24    2   23 1
    25    4   24 1
    26    5   25 1
    27    8   26 1
    28   15   27 1
    29   15   28 1
    30   15   29 1
    31   16   30 1
    32   17   31 1
    33   18   32 1
    34   19   33 1
    35   20   34 1
    36   21   35 1
@<TRIPOS>PROPERTY_DATA
  Total_Score	| 5.0793
  Crash		| -1.3822
  Polar		| 0.9974
  FragIndex	| 1
  FragRMSD	| 0.531

