@<TRIPOS>MOLECULE
BindingDB_29032
 35 36 0 0 0
SMALL
NO_CHARGES


@<TRIPOS>ATOM
1    C         4.9399  -35.1356   -0.7126  C     
2    C         5.7993  -34.0175   -0.6480  C     
3    C         6.8370  -33.8214   -1.5914  C     
4    C         6.9464  -34.7700   -2.6349  C     
5    C         6.0510  -35.8538   -2.7457  C     
6    C         5.0467  -36.0755   -1.7719  C     
7    C         7.7497  -32.7195   -1.4712  C     
8    N         4.1294  -37.1095   -1.8351  N     
9    C         4.1030  -38.2201   -2.5656  C     
10   C         3.0745  -39.0902   -2.3972  C     
11   O         5.0374  -38.5584   -3.2865  O     
12   C         2.8329  -39.7198   -1.2220  C     
13   C         2.2982  -39.2400   -3.4168  C     
14   N         1.5946  -39.3652   -4.3143  N     
15   C         1.7253  -40.6452   -0.9858  C     
16   O         3.6438  -39.4566   -0.1854  O     
17   C         8.3704  -32.1378   -2.6123  C     
18   C         9.3101  -31.0912   -2.4862  C     
19   C         9.5824  -30.5580   -1.2178  C     
20   C         8.9691  -31.0954   -0.0729  C     
21   C         8.0926  -32.1852   -0.1993  C     
22   Cl        3.8325  -35.3356    0.5615  Cl    
23   Cl       10.1623  -30.5252   -3.8291  Cl    
24   H         5.6695  -33.3372    0.1108  H     
25   H         7.6875  -34.6819   -3.3388  H     
26   H         6.1412  -36.4703   -3.5469  H     
27   H         3.4005  -37.0295   -1.2080  H     
28   H         0.7789  -40.1439   -1.1828  H     
29   H         1.7060  -40.9990    0.0478  H     
30   H         1.8188  -41.5071   -1.6383  H     
31   H         3.1523  -39.7052    0.6453  H     
32   H         8.1504  -32.4859   -3.5561  H     
33   H        10.2539  -29.7757   -1.1124  H     
34   H         9.1834  -30.7109    0.8490  H     
35   H         7.7086  -32.5897    0.6549  H     
@<TRIPOS>BOND
     1    1    2 1
     2    1    6 2
     3    1   22 1
     4    2    3 2
     5    3    4 1
     6    3    7 1
     7    4    5 2
     8    5    6 1
     9    6    8 1
    10    7   17 2
    11    7   21 1
    12    8    9 am
    13    9   10 1
    14    9   11 2
    15   10   12 2
    16   10   13 1
    17   12   15 1
    18   12   16 1
    19   13   14 3
    20   17   18 1
    21   18   19 2
    22   18   23 1
    23   19   20 1
    24   20   21 2
    25    2   24 1
    26    4   25 1
    27    5   26 1
    28    8   27 1
    29   15   28 1
    30   15   29 1
    31   15   30 1
    32   16   31 1
    33   17   32 1
    34   19   33 1
    35   20   34 1
    36   21   35 1
@<TRIPOS>PROPERTY_DATA
  Total_Score	| 4.1745
  Crash		| -2.1645
  Polar		| 1.1511
  FragIndex	| 1
  FragRMSD	| 0.597

