@<TRIPOS>MOLECULE
BindingDB_29024
 32 33 0 0 0
SMALL
NO_CHARGES


@<TRIPOS>ATOM
1    C         4.8368  -34.7382   -1.2229  C     
2    C         5.7212  -33.6444   -1.2347  C     
3    C         6.8924  -33.6609   -2.0259  C     
4    C         7.1485  -34.8103   -2.8101  C     
5    C         6.2584  -35.9024   -2.8057  C     
6    C         5.0891  -35.8870   -2.0042  C     
7    C         7.8043  -32.4854   -2.0116  C     
8    F         8.9229  -32.6187   -2.8012  F     
9    F         7.1303  -31.3729   -2.4643  F     
10   F         8.2446  -32.2382   -0.7271  F     
11   N         4.1519  -36.8808   -1.9361  N     
12   C         4.1093  -38.1056   -2.4536  C     
13   C         3.0813  -38.9209   -2.0995  C     
14   O         5.0128  -38.5746   -3.1361  O     
15   C         2.9500  -39.3926   -0.8362  C     
16   C         2.2333  -39.1781   -3.0186  C     
17   N         1.4741  -39.4119   -3.8563  N     
18   C         1.8728  -40.2621   -0.3784  C     
19   O         3.7847  -38.9579    0.1034  O     
20   C         1.6520  -41.6068   -1.0941  C     
21   C         2.2256  -41.5813    0.3281  C     
22   H         4.0075  -34.6910   -0.6331  H     
23   H         5.5006  -32.8299   -0.6532  H     
24   H         7.9840  -34.8623   -3.3926  H     
25   H         6.4840  -36.7029   -3.4027  H     
26   H         3.3983  -36.6687   -1.3688  H     
27   H         0.9573  -39.7865   -0.0008  H     
28   H         3.4176  -39.2546    0.9664  H     
29   H         0.6020  -41.9067   -1.1803  H     
30   H         2.3514  -41.8697   -1.8807  H     
31   H         3.2808  -41.8415    0.4128  H     
32   H         1.5346  -41.9085    1.1175  H     
@<TRIPOS>BOND
     1    1    2 1
     2    1    6 2
     3    2    3 2
     4    3    4 1
     5    3    7 1
     6    4    5 2
     7    5    6 1
     8    6   11 1
     9    7    8 1
    10    7    9 1
    11    7   10 1
    12   11   12 am
    13   12   13 1
    14   12   14 2
    15   13   15 2
    16   13   16 1
    17   15   18 1
    18   15   19 1
    19   16   17 3
    20   18   20 1
    21   18   21 1
    22   20   21 1
    23    1   22 1
    24    2   23 1
    25    4   24 1
    26    5   25 1
    27   11   26 1
    28   18   27 1
    29   19   28 1
    30   20   29 1
    31   20   30 1
    32   21   31 1
    33   21   32 1
@<TRIPOS>PROPERTY_DATA
  Total_Score	| 4.5173
  Crash		| -1.8887
  Polar		| 1.0824
  FragIndex	| 1
  FragRMSD	| 0.698

