@<TRIPOS>MOLECULE
BindingDB_50054587
 30 31 0 0 0
SMALL
NO_CHARGES


@<TRIPOS>ATOM
1    C         2.9217  -39.2339   -2.1700  C     
2    C         3.7919  -38.1716   -2.5059  C     
3    C         2.9167  -39.9162   -0.9842  C     
4    C         2.0292  -41.0114   -0.6334  C     
5    C         1.9983  -39.5516   -3.0148  C     
6    N         4.2897  -37.3134   -1.6226  N     
7    N         1.1747  -39.8151   -3.7857  N     
8    C         2.5424  -42.4340   -0.9235  C     
9    C         2.3597  -41.9727    0.5280  C     
10   N         7.9013  -31.7662   -2.1591  N     
11   C         7.2593  -32.7167   -2.1117  C     
12   O         4.1064  -37.9576   -3.6742  O     
13   C         4.9781  -36.1580   -1.8449  C     
14   O         3.7744  -39.5171   -0.0392  O     
15   C         6.5400  -33.7986   -2.0354  C     
16   C         4.6409  -35.0166   -1.0905  C     
17   C         6.1007  -36.1213   -2.6920  C     
18   C         5.4063  -33.8400   -1.1934  C     
19   C         6.8875  -34.9526   -2.7769  C     
20   H         0.9703  -40.8875   -0.8397  H     
21   H         4.0468  -37.4905   -0.6705  H     
22   H         1.8138  -43.1834   -1.2203  H     
23   H         3.5869  -42.5808   -1.2036  H     
24   H         3.2672  -41.7554    1.0892  H     
25   H         1.5029  -42.3772    1.0563  H     
26   H         3.2310  -39.4011    0.8330  H     
27   H         3.8307  -35.0263   -0.4744  H     
28   H         6.3816  -36.9560   -3.2149  H     
29   H         5.1305  -33.0204   -0.6443  H     
30   H         7.7319  -34.9579   -3.3617  H     
@<TRIPOS>BOND
     1    1    2 1
     2    1    3 2
     3    1    5 1
     4    2    6 am
     5    2   12 2
     6    3    4 1
     7    3   14 1
     8    4    8 1
     9    4    9 1
    10    5    7 3
    11    6   13 1
    12    8    9 1
    13   10   11 3
    14   11   15 1
    15   13   16 1
    16   13   17 2
    17   15   18 1
    18   15   19 2
    19   16   18 2
    20   17   19 1
    21    4   20 1
    22    6   21 1
    23    8   22 1
    24    8   23 1
    25    9   24 1
    26    9   25 1
    27   14   26 1
    28   16   27 1
    29   17   28 1
    30   18   29 1
    31   19   30 1
@<TRIPOS>PROPERTY_DATA
  Total_Score	| 4.3040
  Crash		| -1.4153
  Polar		| 1.0037
  FragIndex	| 1
  FragRMSD	| 0.647

