@<TRIPOS>MOLECULE
BindingDB_29035
 35 36 0 0 0
SMALL
NO_CHARGES


@<TRIPOS>ATOM
1    C         6.3516  -35.8163   -2.7862  C     
2    C         7.2755  -34.7621   -2.6362  C     
3    C         6.9566  -33.6393   -1.8298  C     
4    C         5.7037  -33.6186   -1.1854  C     
5    C         4.8047  -34.6906   -1.3156  C     
6    C         5.1113  -35.8122   -2.1117  C     
7    C         7.8754  -32.5784   -1.5993  C     
8    N         4.1731  -36.8127   -2.1371  N     
9    C         4.1780  -38.0320   -2.6605  C     
10   C         3.1163  -38.8528   -2.4474  C     
11   O         5.1352  -38.4933   -3.2707  O     
12   C         2.8955  -39.4539   -1.2502  C     
13   C         2.3268  -39.0019   -3.4478  C     
14   N         1.6146  -39.1279   -4.3382  N     
15   C         1.7911  -40.3710   -0.9880  C     
16   O         3.7050  -39.1706   -0.2219  O     
17   C         8.5901  -31.9825   -2.6690  C     
18   C         9.5507  -30.9805   -2.4215  C     
19   C         9.7817  -30.5243   -1.1050  C     
20   C         9.0531  -31.0887   -0.0383  C     
21   C         8.1172  -32.1059   -0.2804  C     
22   Cl       10.4873  -30.3620   -3.6921  Cl    
23   Cl        8.7984  -34.9622   -3.3649  Cl    
24   H         6.6009  -36.5889   -3.4041  H     
25   H         5.4359  -32.8314   -0.5880  H     
26   H         3.9215  -34.6430   -0.7955  H     
27   H         3.3845  -36.6235   -1.6117  H     
28   H         0.8411  -39.8830   -1.1914  H     
29   H         1.7789  -40.7193    0.0473  H     
30   H         1.8839  -41.2434   -1.6361  H     
31   H         3.3831  -39.7121    0.5488  H     
32   H         8.4170  -32.2850   -3.6361  H     
33   H        10.4845  -29.8050   -0.9148  H     
34   H         9.2255  -30.7651    0.9173  H     
35   H         7.6205  -32.5130    0.5208  H     
@<TRIPOS>BOND
     1    1    2 1
     2    1    6 2
     3    2    3 2
     4    2   23 1
     5    3    4 1
     6    3    7 1
     7    4    5 2
     8    5    6 1
     9    6    8 1
    10    7   17 2
    11    7   21 1
    12    8    9 am
    13    9   10 1
    14    9   11 2
    15   10   12 2
    16   10   13 1
    17   12   15 1
    18   12   16 1
    19   13   14 3
    20   17   18 1
    21   18   19 2
    22   18   22 1
    23   19   20 1
    24   20   21 2
    25    1   24 1
    26    4   25 1
    27    5   26 1
    28    8   27 1
    29   15   28 1
    30   15   29 1
    31   15   30 1
    32   16   31 1
    33   17   32 1
    34   19   33 1
    35   20   34 1
    36   21   35 1
@<TRIPOS>PROPERTY_DATA
  Total_Score	| 3.8668
  Crash		| -2.3500
  Polar		| 1.1491
  FragIndex	| 1
  FragRMSD	| 0.699

