@<TRIPOS>MOLECULE
BindingDB_29034
 35 36 0 0 0
SMALL
NO_CHARGES


@<TRIPOS>ATOM
1    C         4.7503  -34.8192   -1.3095  C     
2    C         5.6012  -33.7045   -1.2519  C     
3    C         6.8607  -33.7227   -1.8891  C     
4    C         7.2349  -34.8798   -2.6210  C     
5    C         6.3585  -35.9842   -2.6940  C     
6    C         5.1061  -35.9769   -2.0346  C     
7    C         7.7024  -32.5797   -1.7775  C     
8    N         4.1962  -37.0044   -2.0006  N     
9    C         4.1975  -38.2187   -2.5440  C     
10   C         3.1144  -39.0173   -2.3443  C     
11   O         5.0859  -38.6195   -3.2824  O     
12   C         2.8760  -39.6221   -1.1559  C     
13   C         2.2930  -39.1001   -3.3245  C     
14   N         1.5550  -39.1606   -4.1980  N     
15   C         1.7343  -40.4907   -0.8929  C     
16   O         3.7279  -39.4222   -0.1483  O     
17   C         8.1371  -32.0582   -0.5284  C     
18   C         8.9674  -30.9189   -0.4898  C     
19   C         9.3663  -30.2842   -1.6769  C     
20   C         8.9457  -30.7945   -2.9139  C     
21   C         8.1208  -31.9300   -2.9622  C     
22   Cl        7.7354  -32.7685    0.9618  Cl    
23   Cl        8.7712  -35.0441   -3.3332  Cl    
24   H         3.8583  -34.7741   -0.8092  H     
25   H         5.2948  -32.8795   -0.7282  H     
26   H         6.6665  -36.8112   -3.2033  H     
27   H         3.3957  -36.8033   -1.4898  H     
28   H         0.8110  -39.9202   -0.9886  H     
29   H         1.7686  -40.9166    0.1100  H     
30   H         1.7186  -41.3151   -1.6066  H     
31   H         3.2002  -39.4254    0.6766  H     
32   H         9.2879  -30.5413    0.4056  H     
33   H         9.9650  -29.4566   -1.6408  H     
34   H         9.2427  -30.3444   -3.7821  H     
35   H         7.8318  -32.2848   -3.8774  H     
@<TRIPOS>BOND
     1    1    2 1
     2    1    6 2
     3    2    3 2
     4    3    4 1
     5    3    7 1
     6    4    5 2
     7    4   23 1
     8    5    6 1
     9    6    8 1
    10    7   17 2
    11    7   21 1
    12    8    9 am
    13    9   10 1
    14    9   11 2
    15   10   12 2
    16   10   13 1
    17   12   15 1
    18   12   16 1
    19   13   14 3
    20   17   18 1
    21   17   22 1
    22   18   19 2
    23   19   20 1
    24   20   21 2
    25    1   24 1
    26    2   25 1
    27    5   26 1
    28    8   27 1
    29   15   28 1
    30   15   29 1
    31   15   30 1
    32   16   31 1
    33   18   32 1
    34   19   33 1
    35   20   34 1
    36   21   35 1
@<TRIPOS>PROPERTY_DATA
  Total_Score	| 4.2760
  Crash		| -2.5440
  Polar		| 1.1405
  FragIndex	| 1
  FragRMSD	| 0.570

