@<TRIPOS>MOLECULE
BindingDB_29036
 35 36 0 0 0
SMALL
NO_CHARGES


@<TRIPOS>ATOM
1    C         4.7570  -34.7234   -1.2578  C     
2    C         5.6372  -33.6356   -1.1499  C     
3    C         6.8638  -33.6134   -1.8587  C     
4    C         7.1375  -34.6926   -2.7325  C     
5    C         6.2434  -35.7701   -2.8607  C     
6    C         5.0534  -35.8216   -2.0943  C     
7    C         7.8357  -32.5968   -1.5977  C     
8    N         4.1351  -36.8431   -2.0810  N     
9    C         4.1875  -38.0802   -2.5531  C     
10   C         3.1250  -38.8950   -2.3571  C     
11   O         5.1695  -38.5468   -3.1232  O     
12   C         2.8251  -39.4036   -1.1330  C     
13   C         2.4000  -39.1178   -3.3966  C     
14   N         1.7530  -39.3062   -4.3328  N     
15   C         1.7110  -40.3171   -0.8856  C     
16   O         3.5652  -39.0331   -0.0825  O     
17   C         8.6269  -31.9659   -2.6026  C     
18   C         9.5907  -30.9904   -2.2437  C     
19   C         9.7426  -30.6217   -0.8930  C     
20   C         8.9569  -31.2244    0.1016  C     
21   C         8.0256  -32.2087   -0.2470  C     
22   Cl       10.6262  -30.2488   -3.3684  Cl    
23   Cl        8.3991  -32.3279   -4.2491  Cl    
24   H         3.9033  -34.7192   -0.6928  H     
25   H         5.3917  -32.8665   -0.5222  H     
26   H         8.0186  -34.7197   -3.2582  H     
27   H         6.4868  -36.5262   -3.4967  H     
28   H         3.3128  -36.6255   -1.6097  H     
29   H         0.7692  -39.8528   -1.1860  H     
30   H         1.6287  -40.5885    0.1709  H     
31   H         1.8563  -41.2340   -1.4621  H     
32   H         3.3596  -39.6615    0.6528  H     
33   H        10.4244  -29.9105   -0.6219  H     
34   H         9.0800  -30.9578    1.0822  H     
35   H         7.4975  -32.6606    0.5044  H     
@<TRIPOS>BOND
     1    1    2 1
     2    1    6 2
     3    2    3 2
     4    3    4 1
     5    3    7 1
     6    4    5 2
     7    5    6 1
     8    6    8 1
     9    7   17 2
    10    7   21 1
    11    8    9 am
    12    9   10 1
    13    9   11 2
    14   10   12 2
    15   10   13 1
    16   12   15 1
    17   12   16 1
    18   13   14 3
    19   17   18 1
    20   17   23 1
    21   18   19 2
    22   18   22 1
    23   19   20 1
    24   20   21 2
    25    1   24 1
    26    2   25 1
    27    4   26 1
    28    5   27 1
    29    8   28 1
    30   15   29 1
    31   15   30 1
    32   15   31 1
    33   16   32 1
    34   19   33 1
    35   20   34 1
    36   21   35 1
@<TRIPOS>PROPERTY_DATA
  Total_Score	| 4.0520
  Crash		| -2.3832
  Polar		| 1.0940
  FragIndex	| 1
  FragRMSD	| 0.696

