@<TRIPOS>MOLECULE
BindingDB_29026
 39 41 0 0 0
SMALL
NO_CHARGES


@<TRIPOS>ATOM
1    C         4.9217  -35.4546   -0.7569  C     
2    C         5.6650  -34.2627   -0.7518  C     
3    C         6.6501  -33.9717   -1.7477  C     
4    C         6.7945  -34.9725   -2.7617  C     
5    C         6.0478  -36.1676   -2.7743  C     
6    C         5.0973  -36.4269   -1.7621  C     
7    C         7.4866  -32.7741   -1.7082  C     
8    N         4.3761  -37.5812   -1.6334  N     
9    C         3.7505  -38.3043   -2.5666  C     
10   C         2.8573  -39.3053   -2.2143  C     
11   O         3.9674  -38.0390   -3.7508  O     
12   C         2.8077  -39.8853   -0.9864  C     
13   C         1.9533  -39.6282   -3.0728  C     
14   N         1.1206  -39.8872   -3.8264  N     
15   C         2.0156  -41.0760   -0.6449  C     
16   O         3.4394  -39.2942    0.0285  O     
17   C         7.9650  -32.1204   -2.8897  C     
18   C         8.7904  -30.9818   -2.8407  C     
19   C         9.2253  -30.4708   -1.6077  C     
20   C         8.8024  -31.1003   -0.4255  C     
21   C         7.9222  -32.1936   -0.4729  C     
22   C         2.6341  -42.4542   -0.9780  C     
23   C         2.4890  -42.0216    0.4804  C     
24   H         4.2314  -35.6102   -0.0170  H     
25   H         5.4864  -33.6505    0.0440  H     
26   H         7.4575  -34.8680   -3.5257  H     
27   H         6.2344  -36.8623   -3.5026  H     
28   H         4.1734  -37.8404   -0.7222  H     
29   H         0.9336  -41.0434   -0.8305  H     
30   H         3.1544  -39.7629    0.8429  H     
31   H         7.7392  -32.4475   -3.8309  H     
32   H         9.1083  -30.5401   -3.7118  H     
33   H         9.8540  -29.6672   -1.5713  H     
34   H         9.1239  -30.7490    0.4808  H     
35   H         7.6048  -32.5421    0.4304  H     
36   H         1.9485  -43.2559   -1.2568  H     
37   H         3.6647  -42.4849   -1.3309  H     
38   H         3.4363  -41.7858    0.9701  H     
39   H         1.7016  -42.5241    1.0498  H     
@<TRIPOS>BOND
     1    1    2 1
     2    1    6 2
     3    2    3 2
     4    3    4 1
     5    3    7 1
     6    4    5 2
     7    5    6 1
     8    6    8 1
     9    7   17 2
    10    7   21 1
    11    8    9 am
    12    9   10 1
    13    9   11 2
    14   10   12 2
    15   10   13 1
    16   12   15 1
    17   12   16 1
    18   13   14 3
    19   15   22 1
    20   15   23 1
    21   17   18 1
    22   18   19 2
    23   19   20 1
    24   20   21 2
    25   22   23 1
    26    1   24 1
    27    2   25 1
    28    4   26 1
    29    5   27 1
    30    8   28 1
    31   15   29 1
    32   16   30 1
    33   17   31 1
    34   18   32 1
    35   19   33 1
    36   20   34 1
    37   21   35 1
    38   22   36 1
    39   22   37 1
    40   23   38 1
    41   23   39 1
@<TRIPOS>PROPERTY_DATA
  Total_Score	| 6.1343
  Crash		| -1.9850
  Polar		| 0.8790
  FragIndex	| 1
  FragRMSD	| 0.541

