@<TRIPOS>MOLECULE
BindingDB_29025
 35 36 0 0 0
SMALL
NO_CHARGES


@<TRIPOS>ATOM
1    C         4.7616  -35.0288   -1.0963  C     
2    C         5.5965  -33.9045   -1.0368  C     
3    C         6.7434  -33.8254   -1.8566  C     
4    C         7.0135  -34.8891   -2.7551  C     
5    C         6.1633  -36.0049   -2.8223  C     
6    C         5.0246  -36.0980   -1.9835  C     
7    C         7.6062  -32.6965   -1.7806  C     
8    N         4.1110  -37.1151   -1.9671  N     
9    C         4.0690  -38.2649   -2.6155  C     
10   C         3.0159  -39.0915   -2.3808  C     
11   O         4.9616  -38.6579   -3.3482  O     
12   C         2.8098  -39.6917   -1.1794  C     
13   C         2.1831  -39.2008   -3.3522  C     
14   N         1.4291  -39.2935   -4.2183  N     
15   C         1.7167  -40.6340   -0.9129  C     
16   O         3.6533  -39.3861   -0.1769  O     
17   C         8.0561  -32.0376   -2.9542  C     
18   C         8.8855  -30.9071   -2.8771  C     
19   C         9.2993  -30.4275   -1.6203  C     
20   C         8.8836  -31.0797   -0.4427  C     
21   C         8.0364  -32.1992   -0.5261  C     
22   H         3.9349  -35.0549   -0.4877  H     
23   H         5.3641  -33.1548   -0.3873  H     
24   H         7.8310  -34.8519   -3.3707  H     
25   H         6.3836  -36.7355   -3.4914  H     
26   H         3.3942  -36.9786   -1.3505  H     
27   H         0.7506  -40.1706   -1.1032  H     
28   H         1.7336  -40.9708    0.1198  H     
29   H         1.8275  -41.4990   -1.5594  H     
30   H         3.2604  -39.7291    0.6659  H     
31   H         7.7672  -32.3707   -3.8783  H     
32   H         9.1887  -30.4371   -3.7286  H     
33   H         9.9129  -29.6072   -1.5604  H     
34   H         9.1906  -30.7329    0.4708  H     
35   H         7.7556  -32.6606    0.3461  H     
@<TRIPOS>BOND
     1    1    2 1
     2    1    6 2
     3    2    3 2
     4    3    4 1
     5    3    7 1
     6    4    5 2
     7    5    6 1
     8    6    8 1
     9    7   17 2
    10    7   21 1
    11    8    9 am
    12    9   10 1
    13    9   11 2
    14   10   12 2
    15   10   13 1
    16   12   15 1
    17   12   16 1
    18   13   14 3
    19   17   18 1
    20   18   19 2
    21   19   20 1
    22   20   21 2
    23    1   22 1
    24    2   23 1
    25    4   24 1
    26    5   25 1
    27    8   26 1
    28   15   27 1
    29   15   28 1
    30   15   29 1
    31   16   30 1
    32   17   31 1
    33   18   32 1
    34   19   33 1
    35   20   34 1
    36   21   35 1
@<TRIPOS>PROPERTY_DATA
  Total_Score	| 5.2003
  Crash		| -1.3094
  Polar		| 1.1634
  FragIndex	| 1
  FragRMSD	| 0.492

