@<TRIPOS>MOLECULE
BindingDB_50317132
 48 51 0 0 0
SMALL
NO_CHARGES


@<TRIPOS>ATOM
1    C        -4.8486    3.1234   13.9664  C     
2    C        -3.9035    2.5106   14.8197  C     
3    C        -3.2321    3.3137   15.7456  C     
4    C        -3.4943    4.6687   15.7845  C     
5    C        -4.4029    5.3431   14.9484  C     
6    C        -5.1098    4.5271   14.0196  C     
7    N        -2.7299    5.2370   16.7312  N     
8    C        -4.4626    6.7469   15.1572  C     
9    N        -2.3160    3.0416   16.6866  N     
10   C        -2.0355    4.2077   17.2871  C     
11   O        -5.1982    7.4281   14.4628  O     
12   C        -3.6389    7.3906   16.1193  C     
13   C        -2.7566    6.5924   16.9185  C     
14   C        -1.8940    7.2332   17.8439  C     
15   C        -1.8886    8.6221   17.9842  C     
16   C        -2.7618    9.4143   17.2107  C     
17   C        -3.6316    8.7939   16.2900  C     
18   N        -6.0261    5.1012   13.1704  N     
19   C        -6.8698    4.4938   12.1934  C     
20   C        -7.9432    3.5544   12.8265  C     
21   N        -9.1887    3.2677   12.0429  N     
22   C       -10.1265    4.4348   11.8484  C     
23   C        -8.9598    2.5177   10.7594  C     
24   C        -8.8880    0.9986   11.0034  C     
25   C       -10.5802    5.1759   13.1325  C     
26   H        -5.3289    2.5105   13.2962  H     
27   H        -3.7247    1.5082   14.7503  H     
28   H        -1.3671    4.2979   18.0563  H     
29   H        -1.2541    6.6791   18.4105  H     
30   H        -1.2600    9.0740   18.6483  H     
31   H        -2.7631   10.4270   17.3153  H     
32   H        -4.2482    9.3972   15.7336  H     
33   H        -6.1390    6.0591   13.2484  H     
34   H        -7.3634    5.3495   11.7136  H     
35   H        -6.2897    3.9832   11.4157  H     
36   H        -7.4554    2.5759   13.0323  H     
37   H        -8.2152    3.9343   13.8146  H     
38   H        -9.7060    2.6260   12.6526  H     
39   H        -9.6985    5.1536   11.1496  H     
40   H       -11.0429    4.0477   11.3894  H     
41   H        -9.7376    2.7356   10.0156  H     
42   H        -8.0122    2.7920   10.2826  H     
43   H        -8.0358    0.7698   11.6547  H     
44   H        -8.7512    0.4789   10.0552  H     
45   H        -9.7986    0.6254   11.4771  H     
46   H       -11.1280    4.4829   13.7908  H     
47   H       -11.2475    6.0095   12.8573  H     
48   H        -9.7477    5.6175   13.6924  H     
@<TRIPOS>BOND
     1    1    2 2
     2    1    6 1
     3    2    3 1
     4    3    4 2
     5    3    9 1
     6    4    5 1
     7    4    7 1
     8    5    6 2
     9    5    8 1
    10    6   18 1
    11    7   10 1
    12    7   13 1
    13    8   11 2
    14    8   12 1
    15    9   10 2
    16   12   13 2
    17   12   17 1
    18   13   14 1
    19   14   15 2
    20   15   16 1
    21   16   17 2
    22   18   19 1
    23   19   20 1
    24   20   21 1
    25   21   22 1
    26   21   23 1
    27   22   25 1
    28   23   24 1
    29    1   26 1
    30    2   27 1
    31   10   28 1
    32   14   29 1
    33   15   30 1
    34   16   31 1
    35   17   32 1
    36   18   33 1
    37   19   34 1
    38   19   35 1
    39   20   36 1
    40   20   37 1
    41   21   38 1
    42   22   39 1
    43   22   40 1
    44   23   41 1
    45   23   42 1
    46   24   43 1
    47   24   44 1
    48   24   45 1
    49   25   46 1
    50   25   47 1
    51   25   48 1
@<TRIPOS>PROPERTY_DATA
  Total_Score	| 3.3559
  Crash		| -0.7817
  Polar		| 0.0000
  FragIndex	| 1
  FragRMSD	| 0.204

