@<TRIPOS>MOLECULE
BindingDB_50008356
 55 58 0 0 0
SMALL
NO_CHARGES


@<TRIPOS>ATOM
1    N        -2.3740    4.8445   16.6458  N     
2    C        -4.6007    4.8639   15.5932  C     
3    C        -3.4253    4.2457   16.0584  C     
4    C        -4.6408    6.2604   15.8043  C     
5    C        -1.4845    3.8394   16.8804  C     
6    C        -3.5607    6.9604   16.4016  C     
7    C        -2.4049    6.2257   16.8329  C     
8    N        -1.9692    2.6548   16.4416  N     
9    C        -3.1682    2.8937   15.9257  C     
10   C        -5.5539    4.0129   14.9431  C     
11   C        -1.3326    6.9375   17.4088  C     
12   C        -3.5745    8.3717   16.5686  C     
13   O        -5.6263    6.8983   15.4546  O     
14   C        -4.0937    2.0465   15.3132  C     
15   C        -5.2841    2.6151   14.8270  C     
16   N        -6.6797    4.5574   14.4218  N     
17   C        -2.4960    9.0717   17.1466  C     
18   C        -0.1563    3.8656   17.5055  C     
19   C        -1.3706    8.3335   17.5641  C     
20   N        -8.4310    5.1305   11.1712  N     
21   C        -7.5400    4.0862   13.3808  C     
22   O        -2.6507   10.4383   17.2551  O     
23   C        -7.2846    4.9449   12.1136  C     
24   C        -8.7828    3.8987   10.3804  C     
25   C        -9.6225    5.8656   11.7201  C     
26   C        -1.6809   11.2480   17.9401  C     
27   C        -9.3323    6.8694   12.8655  C     
28   C        -9.8806    2.9367   10.9073  C     
29   H        -0.4952    6.4601   17.7227  H     
30   H        -4.3865    8.9150   16.2647  H     
31   H        -3.9036    1.0465   15.2108  H     
32   H        -5.9486    1.9710   14.4026  H     
33   H        -6.8937    5.4562   14.7152  H     
34   H         0.5154    4.5067   16.9352  H     
35   H         0.2814    2.8673   17.5498  H     
36   H        -0.2597    4.2355   18.5217  H     
37   H        -0.5658    8.7977   17.9838  H     
38   H        -8.0412    5.7778   10.4794  H     
39   H        -7.3979    3.0310   13.1257  H     
40   H        -8.5660    4.1949   13.7368  H     
41   H        -6.4281    4.5258   11.5778  H     
42   H        -6.9622    5.9500   12.4074  H     
43   H        -9.1102    4.2303    9.3959  H     
44   H        -7.8862    3.3011   10.2094  H     
45   H       -10.0667    6.4430   10.9098  H     
46   H       -10.3868    5.1674   12.0707  H     
47   H        -1.5699   10.9341   18.9781  H     
48   H        -2.0294   12.2811   17.9334  H     
49   H        -0.7135   11.2051   17.4371  H     
50   H        -8.9064    6.3720   13.7376  H     
51   H       -10.2703    7.3400   13.1771  H     
52   H        -8.6471    7.6506   12.5254  H     
53   H        -9.5881    2.4947   11.8615  H     
54   H       -10.0265    2.1280   10.1840  H     
55   H       -10.8308    3.4542   11.0215  H     
@<TRIPOS>BOND
     1    1    3 1
     2    1    5 1
     3    1    7 1
     4    2    3 2
     5    2    4 1
     6    2   10 1
     7    3    9 1
     8    4    6 1
     9    4   13 2
    10    5    8 2
    11    5   18 1
    12    6    7 1
    13    6   12 2
    14    7   11 2
    15    8    9 1
    16    9   14 2
    17   10   15 2
    18   10   16 1
    19   11   19 1
    20   12   17 1
    21   14   15 1
    22   16   21 1
    23   17   19 2
    24   17   22 1
    25   20   23 1
    26   20   24 1
    27   20   25 1
    28   21   23 1
    29   22   26 1
    30   24   28 1
    31   25   27 1
    32   11   29 1
    33   12   30 1
    34   14   31 1
    35   15   32 1
    36   16   33 1
    37   18   34 1
    38   18   35 1
    39   18   36 1
    40   19   37 1
    41   20   38 1
    42   21   39 1
    43   21   40 1
    44   23   41 1
    45   23   42 1
    46   24   43 1
    47   24   44 1
    48   25   45 1
    49   25   46 1
    50   26   47 1
    51   26   48 1
    52   26   49 1
    53   27   50 1
    54   27   51 1
    55   27   52 1
    56   28   53 1
    57   28   54 1
    58   28   55 1
@<TRIPOS>PROPERTY_DATA
  Total_Score	| 5.5783
  Crash		| -2.1087
  Polar		| 1.3358
  FragIndex	| 1
  FragRMSD	| 1.086

