@<TRIPOS>MOLECULE
BindingDB_50317140
 57 60 0 0 0
SMALL
NO_CHARGES


@<TRIPOS>ATOM
1    C        -4.9808    2.6990   14.0995  C     
2    C        -3.9916    2.0971   14.9016  C     
3    C        -3.3030    2.8968   15.8195  C     
4    C        -3.6534    4.2275   15.9498  C     
5    C        -4.6877    4.8662   15.2354  C     
6    C        -5.3506    4.0709   14.2455  C     
7    N        -2.7849    4.8222   16.7719  N     
8    C        -4.8475    6.2348   15.5600  C     
9    N        -2.2612    2.6630   16.6268  N     
10   C        -1.9579    3.8423   17.2087  C     
11   O        -5.8086    6.8301   15.0995  O     
12   C        -3.8864    6.9394   16.3504  C     
13   C        -2.8047    6.1903   16.9109  C     
14   C        -1.6916    6.8692   17.4390  C     
15   C        -1.6311    8.2670   17.4185  C     
16   C        -2.7592    9.0348   17.0471  C     
17   C        -3.8777    8.3585   16.5092  C     
18   O        -0.4144    8.8335   17.6600  O     
19   C         0.2110    9.2980   16.4455  C     
20   O        -2.7592   10.4177   17.0036  O     
21   C        -1.8314   11.2020   17.7826  C     
22   O        -4.9035    9.1231   16.0532  O     
23   N        -6.2495    4.6493   13.3917  N     
24   C        -6.4977    4.3053   12.0219  C     
25   C        -7.4361    3.1017   11.7408  C     
26   N        -8.9052    3.1922   12.0223  N     
27   C        -9.3100    3.1267   13.4644  C     
28   C        -9.6395    4.2340   11.2275  C     
29   C        -9.6917    5.6747   11.7957  C     
30   C        -8.8110    1.8742   14.2241  C     
31   H        -5.4212    2.1043   13.4016  H     
32   H        -3.7336    1.1139   14.7736  H     
33   H        -1.1717    3.9640   17.8504  H     
34   H        -0.8622    6.3492   17.7320  H     
35   H         0.4185    8.4744   15.7578  H     
36   H         1.1532    9.7677   16.7244  H     
37   H        -0.4023   10.0433   15.9340  H     
38   H        -1.8220   10.8971   18.8283  H     
39   H        -2.1532   12.2419   17.7263  H     
40   H        -0.8117   11.1520   17.3995  H     
41   H        -5.6733    8.8978   16.6308  H     
42   H        -6.5710    5.5261   13.6379  H     
43   H        -6.9104    5.1832   11.5284  H     
44   H        -5.5373    4.1224   11.5206  H     
45   H        -7.3499    2.8914   10.6689  H     
46   H        -7.0339    2.2193   12.2334  H     
47   H        -9.2617    2.3187   11.6370  H     
48   H        -8.9905    4.0210   14.0047  H     
49   H       -10.4044    3.0841   13.5118  H     
50   H        -9.2242    4.2826   10.2131  H     
51   H       -10.6712    3.8863   11.1182  H     
52   H       -10.3985    5.7285   12.6358  H     
53   H       -10.0352    6.3607   11.0143  H     
54   H        -8.7125    6.0072   12.1503  H     
55   H        -8.8827    0.9818   13.5916  H     
56   H        -9.4222    1.7181   15.1163  H     
57   H        -7.7723    2.0063   14.5437  H     
@<TRIPOS>BOND
     1    1    2 2
     2    1    6 1
     3    2    3 1
     4    3    4 2
     5    3    9 1
     6    4    5 1
     7    4    7 1
     8    5    6 2
     9    5    8 1
    10    6   23 1
    11    7   10 1
    12    7   13 1
    13    8   11 2
    14    8   12 1
    15    9   10 2
    16   12   13 2
    17   12   17 1
    18   13   14 1
    19   14   15 2
    20   15   16 1
    21   15   18 1
    22   16   17 2
    23   16   20 1
    24   17   22 1
    25   18   19 1
    26   20   21 1
    27   23   24 1
    28   24   25 1
    29   25   26 1
    30   26   27 1
    31   26   28 1
    32   27   30 1
    33   28   29 1
    34    1   31 1
    35    2   32 1
    36   10   33 1
    37   14   34 1
    38   19   35 1
    39   19   36 1
    40   19   37 1
    41   21   38 1
    42   21   39 1
    43   21   40 1
    44   22   41 1
    45   23   42 1
    46   24   43 1
    47   24   44 1
    48   25   45 1
    49   25   46 1
    50   26   47 1
    51   27   48 1
    52   27   49 1
    53   28   50 1
    54   28   51 1
    55   29   52 1
    56   29   53 1
    57   29   54 1
    58   30   55 1
    59   30   56 1
    60   30   57 1
@<TRIPOS>PROPERTY_DATA
  Total_Score	| 3.8516
  Crash		| -2.0702
  Polar		| 0.0006
  FragIndex	| 1
  FragRMSD	| 0.815

