@<TRIPOS>MOLECULE
BindingDB_50008344
 52 55 0 0 0
SMALL
NO_CHARGES


@<TRIPOS>ATOM
1    N        -2.8077    5.0292   16.6335  N     
2    C        -4.8406    5.2078   15.2516  C     
3    C        -3.7858    4.5031   15.8748  C     
4    C        -4.7975    6.5995   15.4381  C     
5    C        -2.0325    3.9639   16.9890  C     
6    C        -3.7975    7.2147   16.2294  C     
7    C        -2.7871    6.4079   16.8472  C     
8    N        -2.5086    2.8268   16.4378  N     
9    C        -3.5957    3.1427   15.7376  C     
10   C        -5.7417    4.4422   14.4346  C     
11   C        -1.7990    7.0502   17.6348  C     
12   C        -3.7735    8.6205   16.4185  C     
13   O        -5.6011    7.3031   14.8352  O     
14   C        -4.4638    2.3858   14.9421  C     
15   C        -5.5325    3.0408   14.2993  C     
16   N        -6.7840    5.0480   13.8019  N     
17   C        -2.7829    9.2319   17.2035  C     
18   C        -0.8384    3.9132   17.8497  C     
19   C        -1.7981    8.4446   17.8178  C     
20   N        -9.6448    5.3193   12.2037  N     
21   C        -6.9722    5.1762   12.3899  C     
22   O        -2.7781   10.5712   17.3921  O     
23   C        -8.3306    4.6904   11.8117  C     
24   C       -10.0859    5.1037   13.6173  C     
25   C        -9.8772    6.7203   11.6981  C     
26   C        -9.9134    3.6562   14.1364  C     
27   C        -9.2984    7.9135   12.5036  C     
28   H        -1.0638    6.5259   18.0924  H     
29   H        -4.4823    9.2207   15.9896  H     
30   H        -4.3228    1.3751   14.8318  H     
31   H        -6.1936    2.4674   13.7659  H     
32   H        -7.3032    5.6733   14.3444  H     
33   H        -0.0374    4.5150   17.4169  H     
34   H        -0.4719    2.8921   17.9638  H     
35   H        -1.0965    4.2926   18.8384  H     
36   H        -1.0792    8.8820   18.4023  H     
37   H       -10.3184    4.7626   11.6678  H     
38   H        -6.8727    6.2387   12.1855  H     
39   H        -6.1559    4.7214   11.8252  H     
40   H        -2.6546   10.9482   16.4976  H     
41   H        -8.3775    3.6136   11.9608  H     
42   H        -8.2599    4.8162   10.7279  H     
43   H        -9.5743    5.7953   14.2863  H     
44   H       -11.1589    5.3105   13.6927  H     
45   H        -9.5421    6.8062   10.6597  H     
46   H       -10.9555    6.8627   11.6581  H     
47   H       -10.2978    2.9463   13.4018  H     
48   H       -10.4653    3.5286   15.0724  H     
49   H        -8.8615    3.4387   14.3294  H     
50   H        -9.8481    8.0454   13.4383  H     
51   H        -9.3931    8.8319   11.9234  H     
52   H        -8.2492    7.7625   12.7447  H     
@<TRIPOS>BOND
     1    1    3 1
     2    1    5 1
     3    1    7 1
     4    2    3 2
     5    2    4 1
     6    2   10 1
     7    3    9 1
     8    4    6 1
     9    4   13 2
    10    5    8 2
    11    5   18 1
    12    6    7 1
    13    6   12 2
    14    7   11 2
    15    8    9 1
    16    9   14 2
    17   10   15 2
    18   10   16 1
    19   11   19 1
    20   12   17 1
    21   14   15 1
    22   16   21 1
    23   17   19 2
    24   17   22 1
    25   20   23 1
    26   20   24 1
    27   20   25 1
    28   21   23 1
    29   24   26 1
    30   25   27 1
    31   11   28 1
    32   12   29 1
    33   14   30 1
    34   15   31 1
    35   16   32 1
    36   18   33 1
    37   18   34 1
    38   18   35 1
    39   19   36 1
    40   20   37 1
    41   21   38 1
    42   21   39 1
    43   22   40 1
    44   23   41 1
    45   23   42 1
    46   24   43 1
    47   24   44 1
    48   25   45 1
    49   25   46 1
    50   26   47 1
    51   26   48 1
    52   26   49 1
    53   27   50 1
    54   27   51 1
    55   27   52 1
@<TRIPOS>PROPERTY_DATA
  Total_Score	| 4.4585
  Crash		| -1.0623
  Polar		| 0.0000
  FragIndex	| 1
  FragRMSD	| 0.497

