@<TRIPOS>MOLECULE
BindingDB_50008351
 52 55 0 0 0
SMALL
NO_CHARGES


@<TRIPOS>ATOM
1    N        -2.1663    4.9836   16.7015  N     
2    C        -4.4051    4.9107   15.7309  C     
3    C        -4.4799    6.3104   15.9088  C     
4    C        -3.2051    4.3304   16.1719  C     
5    C        -3.4058    7.0481   16.4671  C     
6    C        -2.2155    6.3533   16.8492  C     
7    C        -1.2343    4.0409   16.9710  C     
8    N        -1.6762    2.8186   16.6093  N     
9    C        -2.9046    2.9810   16.0938  C     
10   C        -5.3504    4.0302   15.1069  C     
11   C        -1.1161    7.0609   17.3377  C     
12   C        -3.4557    8.4583   16.6377  C     
13   O        -5.4813    6.9146   15.5512  O     
14   C        -3.8440    2.1015   15.5454  C     
15   C        -5.0496    2.6328   15.0426  C     
16   N        -6.4909    4.5332   14.6012  N     
17   C        -2.3530    9.1794   17.1500  C     
18   C        -1.1888    8.4805   17.4900  C     
19   N        -8.4531    4.9056   11.3521  N     
20   C        -7.3394    3.9965   13.5804  C     
21   O        -2.5402   10.5652   17.2295  O     
22   C        -7.3802    4.9977   12.4001  C     
23   C        -8.3713    3.7535   10.3932  C     
24   C        -9.8378    5.2832   11.8017  C     
25   C        -1.6386   11.3882   17.9764  C     
26   C       -10.1029    6.7639   11.4935  C     
27   C        -8.2759    2.3146   10.9545  C     
28   H        -0.3125    4.2138   17.3796  H     
29   H        -0.2430    6.6171   17.5729  H     
30   H        -4.2993    8.9709   16.3756  H     
31   H        -3.6560    1.0981   15.5046  H     
32   H        -5.7407    1.9684   14.6896  H     
33   H        -6.7466    5.4307   14.8909  H     
34   H        -0.3497    8.9161   17.8360  H     
35   H        -8.1916    5.6932   10.7426  H     
36   H        -7.0188    3.0299   13.2024  H     
37   H        -8.3064    3.8288   14.0456  H     
38   H        -6.4088    4.9297   11.8879  H     
39   H        -7.4295    6.0271   12.7890  H     
40   H        -9.2447    3.7988    9.7353  H     
41   H        -7.5115    3.9238    9.7433  H     
42   H       -10.6151    4.6705   11.3420  H     
43   H        -9.9976    5.1881   12.8782  H     
44   H        -1.5980   11.0833   19.0162  H     
45   H        -1.9919   12.4383   17.9514  H     
46   H        -0.6450   11.3892   17.5429  H     
47   H        -9.4174    7.4014   12.0577  H     
48   H       -11.1254    7.0205   11.7653  H     
49   H        -9.9644    6.9498   10.4307  H     
50   H        -7.2360    2.0585   11.1480  H     
51   H        -8.6441    1.5974   10.2214  H     
52   H        -8.8618    2.2197   11.8666  H     
@<TRIPOS>BOND
     1    1    4 1
     2    1    6 1
     3    1    7 1
     4    2    3 1
     5    2    4 2
     6    2   10 1
     7    3    5 1
     8    3   13 2
     9    4    9 1
    10    5    6 1
    11    5   12 2
    12    6   11 2
    13    7    8 2
    14    8    9 1
    15    9   14 2
    16   10   15 2
    17   10   16 1
    18   11   18 1
    19   12   17 1
    20   14   15 1
    21   16   20 1
    22   17   18 2
    23   17   21 1
    24   19   22 1
    25   19   23 1
    26   19   24 1
    27   20   22 1
    28   21   25 1
    29   23   27 1
    30   24   26 1
    31    7   28 1
    32   11   29 1
    33   12   30 1
    34   14   31 1
    35   15   32 1
    36   16   33 1
    37   18   34 1
    38   19   35 1
    39   20   36 1
    40   20   37 1
    41   22   38 1
    42   22   39 1
    43   23   40 1
    44   23   41 1
    45   24   42 1
    46   24   43 1
    47   25   44 1
    48   25   45 1
    49   25   46 1
    50   26   47 1
    51   26   48 1
    52   26   49 1
    53   27   50 1
    54   27   51 1
    55   27   52 1
@<TRIPOS>PROPERTY_DATA
  Total_Score	| 5.8579
  Crash		| -1.7597
  Polar		| 1.4009
  FragIndex	| 1
  FragRMSD	| 1.058

