@<TRIPOS>MOLECULE
BindingDB_50317133
 42 45 0 0 0
SMALL
NO_CHARGES


@<TRIPOS>ATOM
1    C        -4.9416    3.1272   13.9998  C     
2    C        -4.0193    2.4946   14.8554  C     
3    C        -3.2830    3.2876   15.7424  C     
4    C        -3.4878    4.6548   15.7589  C     
5    C        -4.4079    5.3398   14.9417  C     
6    C        -5.1668    4.5378   14.0280  C     
7    N        -2.6760    5.2101   16.6669  N     
8    C        -4.4281    6.7384   15.1383  C     
9    N        -2.3403    3.0091   16.6527  N     
10   C        -1.9815    4.1850   17.2130  C     
11   O        -5.1966    7.4316   14.4853  O     
12   C        -3.5810    7.3722   16.0836  C     
13   C        -2.6853    6.5730   16.8650  C     
14   C        -1.8346    7.1946   17.8062  C     
15   C        -1.8550    8.5872   17.9857  C     
16   C        -2.7261    9.3777   17.2192  C     
17   C        -3.5837    8.7763   16.2820  C     
18   N        -6.0733    5.1334   13.2035  N     
19   C        -6.9120    4.5574   12.1979  C     
20   C        -8.0449    3.6521   12.7663  C     
21   N        -9.2561    3.4493   11.9054  N     
22   C       -10.2667    4.5361   12.0309  C     
23   C        -8.9612    3.1202   10.4801  C     
24   H        -5.4415    2.5282   13.3478  H     
25   H        -3.8821    1.4827   14.8230  H     
26   H        -1.2741    4.2671   17.9456  H     
27   H        -1.1911    6.6367   18.3663  H     
28   H        -1.2367    9.0257   18.6725  H     
29   H        -2.7447   10.3912   17.3524  H     
30   H        -4.2081    9.3808   15.7417  H     
31   H        -6.1674    6.0911   13.2851  H     
32   H        -7.3708    5.3930   11.6665  H     
33   H        -6.3011    4.0106   11.4776  H     
34   H        -7.6454    2.6583   12.9548  H     
35   H        -8.3415    4.0397   13.7475  H     
36   H        -9.7132    2.6155   12.2851  H     
37   H       -10.5255    4.7013   13.0783  H     
38   H       -11.1879    4.2514   11.5179  H     
39   H        -9.9013    5.4763   11.6095  H     
40   H        -8.5949    3.9958    9.9418  H     
41   H        -9.8687    2.7702    9.9826  H     
42   H        -8.2121    2.3282   10.4128  H     
@<TRIPOS>BOND
     1    1    2 2
     2    1    6 1
     3    2    3 1
     4    3    4 2
     5    3    9 1
     6    4    5 1
     7    4    7 1
     8    5    6 2
     9    5    8 1
    10    6   18 1
    11    7   10 1
    12    7   13 1
    13    8   11 2
    14    8   12 1
    15    9   10 2
    16   12   13 2
    17   12   17 1
    18   13   14 1
    19   14   15 2
    20   15   16 1
    21   16   17 2
    22   18   19 1
    23   19   20 1
    24   20   21 1
    25   21   22 1
    26   21   23 1
    27    1   24 1
    28    2   25 1
    29   10   26 1
    30   14   27 1
    31   15   28 1
    32   16   29 1
    33   17   30 1
    34   18   31 1
    35   19   32 1
    36   19   33 1
    37   20   34 1
    38   20   35 1
    39   21   36 1
    40   22   37 1
    41   22   38 1
    42   22   39 1
    43   23   40 1
    44   23   41 1
    45   23   42 1
@<TRIPOS>PROPERTY_DATA
  Total_Score	| 3.2245
  Crash		| -0.6712
  Polar		| 0.0000
  FragIndex	| 1
  FragRMSD	| 0.335

