@<TRIPOS>MOLECULE
BindingDB_50008347
 49 52 0 0 0
SMALL
NO_CHARGES


@<TRIPOS>ATOM
1    N        -2.3089    5.1817   16.7212  N     
2    C        -4.4433    5.0648   15.5338  C     
3    C        -4.5683    6.4547   15.7113  C     
4    C        -3.2670    4.5031   16.0935  C     
5    C        -3.5529    7.2198   16.3368  C     
6    C        -2.3967    6.5405   16.8513  C     
7    C        -1.4182    4.2497   17.1451  C     
8    N        -1.8355    3.0119   16.8347  N     
9    C        -3.0131    3.1521   16.2012  C     
10   C        -5.3938    4.1123   15.0533  C     
11   C        -1.3859    7.2687   17.5056  C     
12   C        -3.6260    8.6262   16.4980  C     
13   O        -5.6442    7.0011   15.4830  O     
14   C        -3.9662    2.2317   15.7563  C     
15   C        -5.1703    2.7237   15.2158  C     
16   N        -6.5771    4.3645   14.4556  N     
17   C        -2.6146    9.3464   17.1595  C     
18   C        -1.4942    8.6590   17.6729  C     
19   N        -8.2357    4.9710   11.2444  N     
20   C        -6.8219    5.2414   13.3831  C     
21   O        -2.7332   10.6917   17.3055  O     
22   C        -7.1711    4.4004   12.1067  C     
23   C        -8.2485    4.3925    9.8465  C     
24   C        -9.5913    5.0976   11.8990  C     
25   C        -8.0119    5.5289    8.8406  C     
26   C       -10.0619    6.5642   11.8680  C     
27   H        -0.5521    4.4485   17.6528  H     
28   H        -0.5553    6.7946   17.8574  H     
29   H        -4.4358    9.1494   16.1367  H     
30   H        -3.8045    1.2186   15.8342  H     
31   H        -5.8719    2.0402   14.8928  H     
32   H        -7.2685    3.6662   14.5769  H     
33   H        -0.7516    9.1590   18.1626  H     
34   H        -7.9078    5.9412   11.1016  H     
35   H        -7.6336    5.8709   13.6934  H     
36   H        -5.9477    5.8931   13.1295  H     
37   H        -2.0260   10.9685   17.9246  H     
38   H        -7.4799    3.3715   12.3520  H     
39   H        -6.2266    4.3178   11.5552  H     
40   H        -7.4588    3.6516    9.6819  H     
41   H        -9.1879    3.8842    9.6002  H     
42   H       -10.3677    4.4929   11.4182  H     
43   H        -9.5943    4.7646   12.9499  H     
44   H        -8.7435    6.3237    8.9848  H     
45   H        -8.0881    5.1665    7.8141  H     
46   H        -7.0139    5.9460    8.9869  H     
47   H        -9.3522    7.2148   12.3835  H     
48   H       -11.0373    6.6560   12.3529  H     
49   H       -10.1570    6.9049   10.8313  H     
@<TRIPOS>BOND
     1    1    4 1
     2    1    6 1
     3    1    7 1
     4    2    3 1
     5    2    4 2
     6    2   10 1
     7    3    5 1
     8    3   13 2
     9    4    9 1
    10    5    6 1
    11    5   12 2
    12    6   11 2
    13    7    8 2
    14    8    9 1
    15    9   14 2
    16   10   15 2
    17   10   16 1
    18   11   18 1
    19   12   17 1
    20   14   15 1
    21   16   20 1
    22   17   18 2
    23   17   21 1
    24   19   22 1
    25   19   23 1
    26   19   24 1
    27   20   22 1
    28   23   25 1
    29   24   26 1
    30    7   27 1
    31   11   28 1
    32   12   29 1
    33   14   30 1
    34   15   31 1
    35   16   32 1
    36   18   33 1
    37   19   34 1
    38   20   35 1
    39   20   36 1
    40   21   37 1
    41   22   38 1
    42   22   39 1
    43   23   40 1
    44   23   41 1
    45   24   42 1
    46   24   43 1
    47   25   44 1
    48   25   45 1
    49   25   46 1
    50   26   47 1
    51   26   48 1
    52   26   49 1
@<TRIPOS>PROPERTY_DATA
  Total_Score	| 3.4496
  Crash		| -3.3336
  Polar		| 1.6482
  FragIndex	| 1
  FragRMSD	| 1.085

