@<TRIPOS>MOLECULE
BindingDB_50008352
 46 49 0 0 0
SMALL
NO_CHARGES


@<TRIPOS>ATOM
1    N        -2.6538    5.1990   16.5478  N     
2    C        -4.4422    5.3949   14.8606  C     
3    C        -3.5049    4.6853   15.6406  C     
4    C        -4.4637    6.7794   15.1080  C     
5    C        -1.9781    4.1203   17.0385  C     
6    C        -3.5887    7.3890   16.0434  C     
7    C        -2.6552    6.5765   16.7669  C     
8    N        -2.3891    2.9798   16.4399  N     
9    C        -3.3320    3.3160   15.5650  C     
10   C        -5.2241    4.6318   13.9329  C     
11   C        -1.7639    7.2099   17.6627  C     
12   C        -3.6074    8.7917   16.2745  C     
13   O        -5.2412    7.4934   14.4878  O     
14   C        -4.0793    2.5554   14.6635  C     
15   C        -4.9970    3.2263   13.8286  C     
16   N        -6.1571    5.2537   13.1600  N     
17   C        -2.7250    9.3889   17.1908  C     
18   C        -0.9493    4.0492   18.0855  C     
19   C        -1.7956    8.5928   17.8753  C     
20   N        -9.3513    3.5549   11.8388  N     
21   C        -7.0346    4.7177   12.1680  C     
22   O        -2.7526   10.7289   17.4286  O     
23   C        -8.1550    3.7840   12.7155  C     
24   C       -10.3910    4.6174   11.9371  C     
25   C        -9.0213    3.2174   10.4226  C     
26   H        -1.0696    6.6819   18.1758  H     
27   H        -4.2675    9.3950   15.7697  H     
28   H        -3.9484    1.5445   14.6052  H     
29   H        -5.4891    2.6665   13.1376  H     
30   H        -6.2278    6.2112   13.2663  H     
31   H        -0.0645    4.6062   17.7748  H     
32   H        -0.6526    3.0150   18.2782  H     
33   H        -1.3570    4.4640   19.0065  H     
34   H        -1.1478    9.0274   18.5332  H     
35   H        -9.7996    2.7164   12.2163  H     
36   H        -7.5086    5.5742   11.6827  H     
37   H        -6.4497    4.1954   11.4087  H     
38   H        -3.6771   11.0183   17.2631  H     
39   H        -8.4803    4.1554   13.6925  H     
40   H        -7.7255    2.7971   12.9031  H     
41   H       -10.6484    4.8026   12.9783  H     
42   H       -11.2980    4.2863   11.4351  H     
43   H       -10.0531    5.5499   11.4846  H     
44   H        -8.6282    4.0835    9.8856  H     
45   H        -9.9133    2.8647    9.8968  H     
46   H        -8.2772    2.4134   10.3791  H     
@<TRIPOS>BOND
     1    1    3 1
     2    1    5 1
     3    1    7 1
     4    2    3 2
     5    2    4 1
     6    2   10 1
     7    3    9 1
     8    4    6 1
     9    4   13 2
    10    5    8 2
    11    5   18 1
    12    6    7 1
    13    6   12 2
    14    7   11 2
    15    8    9 1
    16    9   14 2
    17   10   15 2
    18   10   16 1
    19   11   19 1
    20   12   17 1
    21   14   15 1
    22   16   21 1
    23   17   19 2
    24   17   22 1
    25   20   23 1
    26   20   24 1
    27   20   25 1
    28   21   23 1
    29   11   26 1
    30   12   27 1
    31   14   28 1
    32   15   29 1
    33   16   30 1
    34   18   31 1
    35   18   32 1
    36   18   33 1
    37   19   34 1
    38   20   35 1
    39   21   36 1
    40   21   37 1
    41   22   38 1
    42   23   39 1
    43   23   40 1
    44   24   41 1
    45   24   42 1
    46   24   43 1
    47   25   44 1
    48   25   45 1
    49   25   46 1
@<TRIPOS>PROPERTY_DATA
  Total_Score	| 3.9686
  Crash		| -1.0323
  Polar		| 0.0115
  FragIndex	| 1
  FragRMSD	| 0.396

