@<TRIPOS>MOLECULE
BindingDB_50306584
 42 43 0 0 0
SMALL
NO_CHARGES


@<TRIPOS>ATOM
1    C       -22.8999  -20.5973  -19.2536  C     
2    C       -21.6218  -20.2346  -19.7352  C     
3    C       -21.4562  -19.9422  -21.1030  C     
4    C       -22.5704  -19.8923  -21.9550  C     
5    C       -23.8675  -20.1734  -21.4695  C     
6    C       -24.0218  -20.5555  -20.1078  C     
7    C       -25.0700  -20.1122  -22.3216  C     
8    C       -25.4736  -21.4660  -22.9788  C     
9    N       -26.7649  -21.3266  -23.6087  N     
10   C       -24.4684  -21.9441  -23.9562  C     
11   O       -23.2269  -22.2598  -23.5093  O     
12   O       -24.8429  -22.4853  -25.1371  O     
13   C       -27.9392  -21.4551  -23.0108  C     
14   C       -29.1031  -21.3012  -23.7139  C     
15   O       -28.0054  -21.6991  -21.8068  O     
16   O       -29.1181  -21.1325  -25.0608  O     
17   O       -30.2961  -21.4220  -23.0900  O     
18   O       -20.6551  -20.2230  -18.7286  O     
19   C       -19.4300  -19.4575  -18.9767  C     
20   C       -19.6863  -17.9986  -18.8607  C     
21   C       -20.4494  -17.4286  -17.7884  C     
22   C       -20.8206  -16.0586  -17.8997  C     
23   C       -20.3171  -15.2370  -18.9314  C     
24   C       -19.4798  -15.7756  -19.9095  C     
25   C       -19.2048  -17.1553  -19.8843  C     
26   N       -20.7802  -18.1407  -16.6622  N     
27   O       -21.6961  -17.8241  -15.9568  O     
28   O       -20.1843  -19.2946  -16.3556  O     
29   H       -23.0270  -20.8960  -18.2816  H     
30   H       -20.5164  -19.7676  -21.4831  H     
31   H       -22.4247  -19.6732  -22.9500  H     
32   H       -24.9318  -20.8146  -19.7282  H     
33   H       -25.9100  -19.7911  -21.6816  H     
34   H       -24.9643  -19.3509  -23.1149  H     
35   H       -25.5277  -22.2421  -22.2088  H     
36   H       -26.7687  -21.0948  -24.5511  H     
37   H       -18.7307  -19.7631  -18.1971  H     
38   H       -19.0188  -19.7546  -19.9316  H     
39   H       -21.4190  -15.6185  -17.2037  H     
40   H       -20.5530  -14.2328  -18.9736  H     
41   H       -19.1092  -15.1731  -20.6508  H     
42   H       -18.6230  -17.5285  -20.6356  H     
@<TRIPOS>BOND
     1    1    2 2
     2    1    6 1
     3    2    3 1
     4    2   18 1
     5    3    4 2
     6    4    5 1
     7    5    6 2
     8    5    7 1
     9    8    7 1
    10    8    9 1
    11    8   10 1
    12    9   13 am
    13   10   11 2
    14   10   12 1
    15   13   14 1
    16   13   15 2
    17   14   16 1
    18   14   17 2
    19   18   19 1
    20   19   20 1
    21   20   21 2
    22   20   25 1
    23   21   22 1
    24   21   26 am
    25   22   23 2
    26   23   24 1
    27   24   25 2
    28   26   27 2
    29   26   28 1
    30    1   29 1
    31    3   30 1
    32    4   31 1
    33    6   32 1
    34    7   33 1
    35    7   34 1
    36    8   35 1
    37    9   36 1
    38   19   37 1
    39   19   38 1
    40   22   39 1
    41   23   40 1
    42   24   41 1
    43   25   42 1
@<TRIPOS>PROPERTY_DATA
  Total_Score	| 11.3733
  Crash		| -1.4745
  Polar		| 9.6142
  FragIndex	| 1
  FragRMSD	| 0.715

