@<TRIPOS>MOLECULE
BindingDB_50306586
 40 41 0 0 0
SMALL
NO_CHARGES


@<TRIPOS>ATOM
1    C       -21.4287  -20.0886  -21.1272  C     
2    C       -21.5520  -20.5249  -19.7896  C     
3    C       -22.8276  -20.8603  -19.2991  C     
4    C       -23.9671  -20.7450  -20.1083  C     
5    C       -23.8650  -20.2957  -21.4454  C     
6    C       -22.5828  -19.9641  -21.9491  C     
7    C       -25.0833  -20.1789  -22.2957  C     
8    C       -25.5308  -21.5374  -22.9386  C     
9    N       -26.8049  -21.3619  -23.5734  N     
10   C       -24.5624  -22.0781  -23.9192  C     
11   O       -24.9532  -22.6089  -25.1031  O     
12   O       -23.2450  -22.1957  -23.6235  O     
13   C       -27.9965  -21.4985  -23.0048  C     
14   C       -29.1462  -21.3311  -23.7403  C     
15   O       -28.0946  -21.8028  -21.8234  O     
16   O       -29.1098  -21.1423  -25.0796  O     
17   O       -30.3613  -21.3631  -23.1500  O     
18   O       -20.4953  -20.6383  -18.9179  O     
19   C       -19.3703  -19.7597  -19.0616  C     
20   C       -19.7014  -18.3185  -18.9133  C     
21   C       -20.4057  -17.8505  -17.7760  C     
22   C       -20.7770  -16.4973  -17.6704  C     
23   C       -20.4523  -15.5951  -18.7001  C     
24   C       -19.7443  -16.0418  -19.8298  C     
25   C       -19.3739  -17.3945  -19.9339  C     
26   H       -20.5096  -19.8581  -21.5004  H     
27   H       -22.9274  -21.1839  -18.3310  H     
28   H       -24.8804  -20.9793  -19.7111  H     
29   H       -22.4785  -19.6353  -22.9057  H     
30   H       -25.8956  -19.7869  -21.6718  H     
31   H       -24.9259  -19.4359  -23.0829  H     
32   H       -25.6292  -22.2834  -22.1432  H     
33   H       -26.7966  -21.1474  -24.5188  H     
34   H       -18.6365  -20.0258  -18.2818  H     
35   H       -18.9081  -19.9699  -20.0282  H     
36   H       -20.6600  -18.4977  -17.0242  H     
37   H       -21.2881  -16.1677  -16.8481  H     
38   H       -20.7313  -14.6159  -18.6278  H     
39   H       -19.5021  -15.3875  -20.5764  H     
40   H       -18.8643  -17.7050  -20.7661  H     
@<TRIPOS>BOND
     1    1    2 2
     2    1    6 1
     3    2    3 1
     4    2   18 1
     5    3    4 2
     6    4    5 1
     7    5    6 2
     8    5    7 1
     9    8    7 1
    10    8    9 1
    11    8   10 1
    12    9   13 am
    13   10   11 2
    14   10   12 1
    15   13   14 1
    16   13   15 2
    17   14   16 1
    18   14   17 2
    19   18   19 1
    20   19   20 1
    21   20   21 2
    22   20   25 1
    23   21   22 1
    24   22   23 2
    25   23   24 1
    26   24   25 2
    27    1   26 1
    28    3   27 1
    29    4   28 1
    30    6   29 1
    31    7   30 1
    32    7   31 1
    33    8   32 1
    34    9   33 1
    35   19   34 1
    36   19   35 1
    37   21   36 1
    38   22   37 1
    39   23   38 1
    40   24   39 1
    41   25   40 1
@<TRIPOS>PROPERTY_DATA
  Total_Score	| 12.2306
  Crash		| -0.9384
  Polar		| 8.6890
  FragIndex	| 1
  FragRMSD	| 0.920

