@<TRIPOS>MOLECULE
BindingDB_50306581
 52 53 0 0 0
SMALL
NO_CHARGES


@<TRIPOS>ATOM
1    C       -21.3880  -19.8863  -21.1746  C     
2    C       -21.6396  -20.1692  -19.8184  C     
3    C       -22.9299  -20.5537  -19.4265  C     
4    C       -23.9888  -20.5287  -20.3462  C     
5    C       -23.7782  -20.1316  -21.6823  C     
6    C       -22.4580  -19.8464  -22.0951  C     
7    C       -24.9288  -20.0882  -22.6332  C     
8    C       -25.4987  -21.4897  -23.0201  C     
9    N       -26.8021  -21.3191  -23.6093  N     
10   C       -24.5771  -22.1886  -23.9611  C     
11   O       -24.9931  -22.6877  -25.1481  O     
12   O       -23.2659  -22.3197  -23.6609  O     
13   C       -27.9796  -21.4354  -23.0029  C     
14   C       -29.1405  -21.3817  -23.7464  C     
15   O       -28.0683  -21.5940  -21.7938  O     
16   O       -30.3436  -21.5501  -23.1656  O     
17   O       -29.1029  -21.2860  -25.0984  O     
18   O       -20.6113  -19.9895  -18.9396  O     
19   S       -20.6996  -19.0108  -17.5610  S     
20   C       -20.0480  -17.4154  -17.9252  C     
21   O       -22.2855  -18.7564  -17.0267  O     
22   O       -19.7806  -19.7049  -16.3140  O     
23   C       -20.2726  -16.3686  -17.0129  C     
24   C       -19.7625  -15.0779  -17.2601  C     
25   C       -18.9936  -14.7740  -18.4228  C     
26   C       -18.7911  -15.8601  -19.3312  C     
27   C       -19.3180  -17.1542  -19.0980  C     
28   C       -18.4638  -13.3597  -18.6485  C     
29   C       -19.5635  -12.3139  -18.2689  C     
30   C       -17.2073  -13.1175  -17.7546  C     
31   C       -18.0309  -13.0620  -20.1291  C     
32   H       -20.4348  -19.6103  -21.4600  H     
33   H       -23.0994  -20.8397  -18.4667  H     
34   H       -24.9332  -20.7659  -20.0209  H     
35   H       -22.2659  -19.5907  -23.0635  H     
36   H       -25.7185  -19.4811  -22.1614  H     
37   H       -24.6692  -19.5395  -23.5477  H     
38   H       -25.5667  -22.1217  -22.1253  H     
39   H       -26.8082  -21.0964  -24.5531  H     
40   H       -20.8267  -16.5297  -16.1648  H     
41   H       -19.9381  -14.3496  -16.5736  H     
42   H       -18.2830  -15.7173  -20.1943  H     
43   H       -19.1736  -17.8875  -19.7991  H     
44   H       -20.5070  -12.5455  -18.7758  H     
45   H       -19.2588  -11.2995  -18.5562  H     
46   H       -19.7610  -12.3047  -17.1871  H     
47   H       -17.4417  -13.2219  -16.6888  H     
48   H       -16.8260  -12.1087  -17.9082  H     
49   H       -16.4132  -13.8320  -18.0015  H     
50   H       -17.2197  -13.7259  -20.4528  H     
51   H       -17.6908  -12.0301  -20.2567  H     
52   H       -18.8729  -13.2071  -20.8191  H     
@<TRIPOS>BOND
     1    1    2 2
     2    1    6 1
     3    2    3 1
     4    2   18 1
     5    3    4 2
     6    4    5 1
     7    5    6 2
     8    5    7 1
     9    8    7 1
    10    8    9 1
    11    8   10 1
    12    9   13 am
    13   10   11 2
    14   10   12 1
    15   13   14 1
    16   13   15 2
    17   14   16 1
    18   14   17 2
    19   18   19 1
    20   19   20 1
    21   19   21 2
    22   19   22 2
    23   20   23 2
    24   20   27 1
    25   23   24 1
    26   24   25 2
    27   25   26 1
    28   25   28 1
    29   26   27 2
    30   28   29 1
    31   28   30 1
    32   28   31 1
    33    1   32 1
    34    3   33 1
    35    4   34 1
    36    6   35 1
    37    7   36 1
    38    7   37 1
    39    8   38 1
    40    9   39 1
    41   23   40 1
    42   24   41 1
    43   26   42 1
    44   27   43 1
    45   29   44 1
    46   29   45 1
    47   29   46 1
    48   30   47 1
    49   30   48 1
    50   30   49 1
    51   31   50 1
    52   31   51 1
    53   31   52 1
@<TRIPOS>PROPERTY_DATA
  Total_Score	| 11.1841
  Crash		| -1.3343
  Polar		| 8.5384
  FragIndex	| 1
  FragRMSD	| 0.800

