@<TRIPOS>MOLECULE
BindingDB_50306585
 40 41 0 0 0
SMALL
NO_CHARGES


@<TRIPOS>ATOM
1    C       -21.5448  -20.5027  -20.7264  C     
2    C       -21.8990  -20.9728  -19.4406  C     
3    C       -23.2606  -21.1472  -19.1278  C     
4    C       -24.2512  -20.8343  -20.0732  C     
5    C       -23.9041  -20.3808  -21.3668  C     
6    C       -22.5360  -20.2169  -21.6844  C     
7    C       -24.9635  -20.1355  -22.3796  C     
8    C       -25.5005  -21.4658  -22.9996  C     
9    N       -26.7813  -21.2518  -23.5969  N     
10   C       -24.5600  -22.0388  -23.9912  C     
11   O       -25.0120  -22.6013  -25.1305  O     
12   O       -23.2523  -22.1817  -23.6537  O     
13   C       -27.9616  -21.4222  -23.0082  C     
14   C       -29.1194  -21.2618  -23.7278  C     
15   O       -28.0496  -21.7601  -21.8327  O     
16   O       -30.3323  -21.3372  -23.1319  O     
17   O       -29.0992  -21.0783  -25.0699  O     
18   O       -20.9987  -21.2072  -18.4459  O     
19   S       -19.7483  -20.1715  -17.9461  S     
20   C       -20.3786  -18.5518  -18.0858  C     
21   O       -19.3279  -20.5183  -16.3522  O     
22   O       -18.3976  -20.3545  -18.9522  O     
23   C       -21.3132  -18.1159  -17.1249  C     
24   C       -21.8955  -16.8378  -17.2184  C     
25   C       -21.5453  -15.9837  -18.2838  C     
26   C       -20.6120  -16.4122  -19.2482  C     
27   C       -20.0342  -17.6936  -19.1513  C     
28   F       -22.0856  -14.8004  -18.3749  F     
29   H       -20.5641  -20.3711  -20.9782  H     
30   H       -23.5374  -21.4748  -18.1961  H     
31   H       -25.2365  -20.9521  -19.8155  H     
32   H       -22.2519  -19.8980  -22.6134  H     
33   H       -25.7619  -19.5797  -21.8849  H     
34   H       -24.5971  -19.4870  -23.1813  H     
35   H       -25.6161  -22.2182  -22.2157  H     
36   H       -26.7921  -20.9621  -24.5217  H     
37   H       -21.5905  -18.7292  -16.3524  H     
38   H       -22.5798  -16.5360  -16.5178  H     
39   H       -20.3597  -15.7961  -20.0284  H     
40   H       -19.3715  -17.9948  -19.8716  H     
@<TRIPOS>BOND
     1    1    2 2
     2    1    6 1
     3    2    3 1
     4    2   18 1
     5    3    4 2
     6    4    5 1
     7    5    6 2
     8    5    7 1
     9    8    7 1
    10    8    9 1
    11    8   10 1
    12    9   13 am
    13   10   11 2
    14   10   12 1
    15   13   14 1
    16   13   15 2
    17   14   16 1
    18   14   17 2
    19   18   19 1
    20   19   20 1
    21   19   21 2
    22   19   22 2
    23   20   23 2
    24   20   27 1
    25   23   24 1
    26   24   25 2
    27   25   26 1
    28   25   28 1
    29   26   27 2
    30    1   29 1
    31    3   30 1
    32    4   31 1
    33    6   32 1
    34    7   33 1
    35    7   34 1
    36    8   35 1
    37    9   36 1
    38   23   37 1
    39   24   38 1
    40   26   39 1
    41   27   40 1
@<TRIPOS>PROPERTY_DATA
  Total_Score	| 11.4903
  Crash		| -1.1100
  Polar		| 9.6050
  FragIndex	| 1
  FragRMSD	| 0.847

