@<TRIPOS>MOLECULE
BindingDB_50306579
 40 41 0 0 0
SMALL
NO_CHARGES


@<TRIPOS>ATOM
1    C       -22.8698  -20.8945  -19.2946  C     
2    C       -21.5903  -20.5724  -19.7912  C     
3    C       -21.4707  -20.1436  -21.1340  C     
4    C       -22.6102  -19.9779  -21.9442  C     
5    C       -23.8913  -20.2800  -21.4409  C     
6    C       -24.0122  -20.7493  -20.1074  C     
7    C       -25.0908  -20.1376  -22.3032  C     
8    C       -25.5440  -21.4740  -22.9606  C     
9    N       -26.8284  -21.2965  -23.5736  N     
10   C       -24.5769  -21.9628  -23.9757  C     
11   O       -24.9635  -22.2968  -25.2341  O     
12   O       -23.2950  -22.2125  -23.6232  O     
13   C       -28.0120  -21.4832  -23.0032  C     
14   C       -29.1686  -21.3532  -23.7342  C     
15   O       -28.0956  -21.7784  -21.8166  O     
16   O       -30.3826  -21.4773  -23.1464  O     
17   O       -29.1431  -21.2032  -25.0825  O     
18   O       -20.5294  -20.6961  -18.9277  O     
19   C       -19.3908  -19.8058  -19.0639  C     
20   C       -19.7340  -18.3637  -18.8953  C     
21   C       -20.4927  -17.9178  -17.7834  C     
22   C       -20.8903  -16.5689  -17.6826  C     
23   C       -20.5318  -15.6502  -18.6861  C     
24   C       -19.7535  -16.0705  -19.7779  C     
25   C       -19.3532  -17.4162  -19.8768  C     
26   F       -20.8854  -18.7477  -16.8578  F     
27   H       -22.9787  -21.2241  -18.3374  H     
28   H       -20.5509  -19.9373  -21.5301  H     
29   H       -22.4866  -19.6404  -22.8995  H     
30   H       -24.9311  -20.9978  -19.7288  H     
31   H       -25.9086  -19.7477  -21.6850  H     
32   H       -24.9234  -19.3873  -23.0822  H     
33   H       -25.6130  -22.2513  -22.1890  H     
34   H       -26.8310  -21.0084  -24.4965  H     
35   H       -18.6690  -20.0859  -18.2880  H     
36   H       -18.9132  -20.0053  -20.0308  H     
37   H       -21.4664  -16.2528  -16.8934  H     
38   H       -20.8330  -14.6747  -18.6171  H     
39   H       -19.5107  -15.4064  -20.5168  H     
40   H       -18.8037  -17.7032  -20.6890  H     
@<TRIPOS>BOND
     1    1    2 2
     2    1    6 1
     3    2    3 1
     4    2   18 1
     5    3    4 2
     6    4    5 1
     7    5    6 2
     8    5    7 1
     9    8    7 1
    10    8    9 1
    11    8   10 1
    12    9   13 am
    13   10   11 2
    14   10   12 1
    15   13   14 1
    16   13   15 2
    17   14   16 1
    18   14   17 2
    19   18   19 1
    20   19   20 1
    21   20   21 2
    22   20   25 1
    23   21   22 1
    24   21   26 1
    25   22   23 2
    26   23   24 1
    27   24   25 2
    28    1   27 1
    29    3   28 1
    30    4   29 1
    31    6   30 1
    32    7   31 1
    33    7   32 1
    34    8   33 1
    35    9   34 1
    36   19   35 1
    37   19   36 1
    38   22   37 1
    39   23   38 1
    40   24   39 1
    41   25   40 1
@<TRIPOS>PROPERTY_DATA
  Total_Score	| 12.3347
  Crash		| -0.8580
  Polar		| 8.7793
  FragIndex	| 1
  FragRMSD	| 0.659

