@<TRIPOS>MOLECULE
BindingDB_50306580
 40 41 0 0 0
SMALL
NO_CHARGES


@<TRIPOS>ATOM
1    C       -23.2712  -21.2704  -19.0855  C     
2    C       -21.9133  -21.1266  -19.4237  C     
3    C       -21.5733  -20.6759  -20.7177  C     
4    C       -22.5721  -20.3377  -21.6421  C     
5    C       -23.9408  -20.4594  -21.2996  C     
6    C       -24.2739  -20.9216  -20.0030  C     
7    C       -25.0107  -20.1511  -22.2791  C     
8    C       -25.5341  -21.4299  -23.0108  C     
9    N       -26.8197  -21.1737  -23.5941  N     
10   C       -24.5819  -21.8866  -24.0528  C     
11   O       -23.3699  -22.3650  -23.6980  O     
12   O       -24.8975  -21.8981  -25.3685  O     
13   C       -28.0005  -21.4190  -23.0378  C     
14   C       -29.1572  -21.2195  -23.7489  C     
15   O       -28.0810  -21.8472  -21.8892  O     
16   O       -29.1462  -21.0153  -25.0881  O     
17   O       -30.3646  -21.3026  -23.1455  O     
18   O       -20.9979  -21.3967  -18.4472  O     
19   S       -19.8576  -20.2894  -17.8566  S     
20   C       -20.6272  -18.7290  -17.8240  C     
21   O       -19.3625  -20.7623  -16.3070  O     
22   O       -18.5128  -20.2878  -18.8869  O     
23   C       -20.6657  -17.8981  -18.9608  C     
24   C       -21.4007  -16.6959  -18.9399  C     
25   C       -22.0999  -16.3147  -17.7775  C     
26   C       -22.0668  -17.1433  -16.6415  C     
27   C       -21.3362  -18.3458  -16.6672  C     
28   Br      -23.0857  -14.7405  -17.7403  Br    
29   H       -23.5354  -21.5941  -18.1514  H     
30   H       -20.5942  -20.6032  -20.9965  H     
31   H       -22.2992  -20.0284  -22.5825  H     
32   H       -25.2561  -21.0232  -19.7271  H     
33   H       -25.8297  -19.6674  -21.7380  H     
34   H       -24.6624  -19.4261  -23.0197  H     
35   H       -25.6303  -22.2623  -22.3041  H     
36   H       -26.8241  -20.8145  -24.4990  H     
37   H       -20.1769  -18.1635  -19.8206  H     
38   H       -21.4423  -16.1084  -19.7753  H     
39   H       -22.5873  -16.8827  -15.8014  H     
40   H       -21.3381  -18.9421  -15.8337  H     
@<TRIPOS>BOND
     1    1    2 2
     2    1    6 1
     3    2    3 1
     4    2   18 1
     5    3    4 2
     6    4    5 1
     7    5    6 2
     8    5    7 1
     9    8    7 1
    10    8    9 1
    11    8   10 1
    12    9   13 am
    13   10   11 2
    14   10   12 1
    15   13   14 1
    16   13   15 2
    17   14   16 1
    18   14   17 2
    19   18   19 1
    20   19   20 1
    21   19   21 2
    22   19   22 2
    23   20   23 2
    24   20   27 1
    25   23   24 1
    26   24   25 2
    27   25   26 1
    28   25   28 1
    29   26   27 2
    30    1   29 1
    31    3   30 1
    32    4   31 1
    33    6   32 1
    34    7   33 1
    35    7   34 1
    36    8   35 1
    37    9   36 1
    38   23   37 1
    39   24   38 1
    40   26   39 1
    41   27   40 1
@<TRIPOS>PROPERTY_DATA
  Total_Score	| 11.0054
  Crash		| -1.0037
  Polar		| 9.5374
  FragIndex	| 1
  FragRMSD	| 0.896

