@<TRIPOS>MOLECULE
BindingDB_50306583
 40 41 0 0 0
SMALL
NO_CHARGES


@<TRIPOS>ATOM
1    C       -23.2228  -21.1487  -19.1450  C     
2    C       -21.8672  -20.9686  -19.4913  C     
3    C       -21.5475  -20.5061  -20.7914  C     
4    C       -22.5585  -20.2196  -21.7168  C     
5    C       -23.9234  -20.3938  -21.3725  C     
6    C       -24.2347  -20.8405  -20.0627  C     
7    C       -25.0195  -20.1387  -22.3425  C     
8    C       -25.5207  -21.4477  -23.0271  C     
9    N       -26.8071  -21.2553  -23.6352  N     
10   C       -24.5526  -21.9448  -24.0306  C     
11   O       -24.7665  -21.7878  -25.3581  O     
12   O       -23.3169  -22.3228  -23.6358  O     
13   C       -27.9794  -21.4573  -23.0441  C     
14   C       -29.1530  -21.3030  -23.7418  C     
15   O       -28.0474  -21.8262  -21.8717  O     
16   O       -30.3508  -21.3392  -23.1105  O     
17   O       -29.1598  -21.1732  -25.0897  O     
18   O       -20.9564  -21.1890  -18.5066  O     
19   S       -19.7391  -20.1075  -18.0244  S     
20   C       -20.3440  -18.4877  -18.2353  C     
21   O       -19.3343  -20.3972  -16.4074  O     
22   O       -18.3593  -20.3747  -18.9793  O     
23   C       -19.9366  -17.6723  -19.3175  C     
24   C       -20.4599  -16.3763  -19.4695  C     
25   C       -21.4017  -15.8823  -18.5474  C     
26   C       -21.8195  -16.6854  -17.4705  C     
27   C       -21.2915  -17.9845  -17.3176  C     
28   H       -23.4705  -21.4794  -18.2092  H     
29   H       -20.5699  -20.3689  -21.0581  H     
30   H       -22.3002  -19.9062  -22.6575  H     
31   H       -25.2125  -20.9684  -19.7805  H     
32   H       -25.8322  -19.6530  -21.8022  H     
33   H       -24.7008  -19.4256  -23.1095  H     
34   H       -25.6258  -22.2472  -22.2881  H     
35   H       -26.8239  -21.0124  -24.5764  H     
36   H       -19.2607  -18.0197  -19.9999  H     
37   H       -20.1598  -15.7890  -20.2531  H     
38   H       -21.7824  -14.9360  -18.6575  H     
39   H       -22.5102  -16.3290  -16.8022  H     
40   H       -21.6143  -18.5556  -16.5328  H     
@<TRIPOS>BOND
     1    1    2 2
     2    1    6 1
     3    2    3 1
     4    2   18 1
     5    3    4 2
     6    4    5 1
     7    5    6 2
     8    5    7 1
     9    8    7 1
    10    8    9 1
    11    8   10 1
    12    9   13 am
    13   10   11 2
    14   10   12 1
    15   13   14 1
    16   13   15 2
    17   14   16 1
    18   14   17 2
    19   18   19 1
    20   19   20 1
    21   19   21 2
    22   19   22 2
    23   20   23 2
    24   20   27 1
    25   23   24 1
    26   24   25 2
    27   25   26 1
    28   26   27 2
    29    1   28 1
    30    3   29 1
    31    4   30 1
    32    6   31 1
    33    7   32 1
    34    7   33 1
    35    8   34 1
    36    9   35 1
    37   23   36 1
    38   24   37 1
    39   25   38 1
    40   26   39 1
    41   27   40 1
@<TRIPOS>PROPERTY_DATA
  Total_Score	| 11.5984
  Crash		| -1.1441
  Polar		| 9.6851
  FragIndex	| 1
  FragRMSD	| 0.851

