@<TRIPOS>MOLECULE
BindingDB_50306582
 54 56 0 0 0
SMALL
NO_CHARGES


@<TRIPOS>ATOM
1    C       -22.9272  -20.9618  -19.4280  C     
2    C       -21.6397  -20.5905  -19.8700  C     
3    C       -21.4719  -20.1601  -21.2008  C     
4    C       -22.5777  -20.0169  -22.0524  C     
5    C       -23.8785  -20.3406  -21.6009  C     
6    C       -24.0396  -20.8282  -20.2821  C     
7    C       -25.0548  -20.2005  -22.4997  C     
8    C       -25.5604  -21.5732  -23.0385  C     
9    N       -26.8446  -21.3835  -23.6472  N     
10   C       -24.6201  -22.1653  -24.0181  C     
11   O       -25.0399  -22.6688  -25.1968  O     
12   O       -23.3139  -22.3192  -23.7110  O     
13   C       -28.0224  -21.4831  -23.0428  C     
14   C       -29.1868  -21.2910  -23.7493  C     
15   O       -28.1027  -21.7374  -21.8481  O     
16   O       -30.3877  -21.4148  -23.1394  O     
17   O       -29.1786  -21.0656  -25.0841  O     
18   O       -20.5243  -20.6063  -19.0668  O     
19   C       -20.6125  -20.0124  -17.7541  C     
20   C       -21.1953  -18.6741  -17.7164  C     
21   C       -20.5034  -17.5436  -18.1107  C     
22   O       -22.3315  -18.5240  -17.2802  O     
23   C       -20.3899  -17.1927  -19.4739  C     
24   C       -19.6793  -16.0459  -19.8571  C     
25   C       -19.0549  -15.1873  -18.9099  C     
26   C       -19.2221  -15.5370  -17.5439  C     
27   C       -19.9379  -16.6840  -17.1492  C     
28   N       -18.3246  -14.0845  -19.3026  N     
29   C       -17.6074  -13.2145  -18.4093  C     
30   C       -16.7742  -12.2607  -19.2896  C     
31   C       -17.5139  -12.2743  -20.6290  C     
32   C       -18.1695  -13.6629  -20.6661  C     
33   H       -23.0710  -21.3062  -18.4772  H     
34   H       -20.5406  -19.9147  -21.5449  H     
35   H       -22.4293  -19.6923  -23.0122  H     
36   H       -24.9679  -21.0938  -19.9372  H     
37   H       -25.8497  -19.7020  -21.9350  H     
38   H       -24.8257  -19.5437  -23.3460  H     
39   H       -25.6439  -22.2839  -22.2095  H     
40   H       -26.8448  -21.1285  -24.5837  H     
41   H       -21.1792  -20.6840  -17.1006  H     
42   H       -19.6037  -19.9716  -17.3493  H     
43   H       -20.8296  -17.7688  -20.1944  H     
44   H       -19.6194  -15.8557  -20.8563  H     
45   H       -18.8174  -14.9617  -16.8028  H     
46   H       -20.0328  -16.8923  -16.1505  H     
47   H       -18.3166  -12.6436  -17.8011  H     
48   H       -16.9342  -13.7749  -17.7526  H     
49   H       -16.7202  -11.2521  -18.8671  H     
50   H       -15.7577  -12.6483  -19.4210  H     
51   H       -18.2794  -11.4914  -20.6397  H     
52   H       -16.8369  -12.1273  -21.4706  H     
53   H       -17.5343  -14.3710  -21.2065  H     
54   H       -19.1338  -13.5803  -21.1693  H     
@<TRIPOS>BOND
     1    1    2 2
     2    1    6 1
     3    2    3 1
     4    2   18 1
     5    3    4 2
     6    4    5 1
     7    5    6 2
     8    5    7 1
     9    8    7 1
    10    8    9 1
    11    8   10 1
    12    9   13 am
    13   10   11 2
    14   10   12 1
    15   13   14 1
    16   13   15 2
    17   14   16 1
    18   14   17 2
    19   18   19 1
    20   19   20 1
    21   20   21 1
    22   20   22 2
    23   21   23 2
    24   21   27 1
    25   23   24 1
    26   24   25 2
    27   25   26 1
    28   25   28 1
    29   26   27 2
    30   28   29 1
    31   28   32 1
    32   29   30 1
    33   30   31 1
    34   31   32 1
    35    1   33 1
    36    3   34 1
    37    4   35 1
    38    6   36 1
    39    7   37 1
    40    7   38 1
    41    8   39 1
    42    9   40 1
    43   19   41 1
    44   19   42 1
    45   23   43 1
    46   24   44 1
    47   26   45 1
    48   27   46 1
    49   29   47 1
    50   29   48 1
    51   30   49 1
    52   30   50 1
    53   31   51 1
    54   31   52 1
    55   32   53 1
    56   32   54 1
@<TRIPOS>PROPERTY_DATA
  Total_Score	| 12.4348
  Crash		| -1.7703
  Polar		| 8.5624
  FragIndex	| 1
  FragRMSD	| 1.163

