@<TRIPOS>MOLECULE
BindingDB_2976
 43 45 0 0 0
SMALL
NO_CHARGES


@<TRIPOS>ATOM
1    C         2.7916  -37.7776   19.4978  C     
2    C         1.9244  -37.7152   18.3041  C     
3    N         2.3035  -36.9183   20.6232  N     
4    N         0.8477  -36.9631   18.2629  N     
5    C         0.9787  -36.4342   20.5952  C     
6    C         0.3055  -36.3840   19.3510  C     
7    C        -1.7110  -35.5088   20.3993  C     
8    C        -1.0099  -35.8860   19.2467  C     
9    C        -1.1211  -35.6770   21.6610  C     
10   C         0.2056  -36.1343   21.7561  C     
11   Cl       -2.0280  -35.4067   23.0636  Cl    
12   O         2.1443  -38.3549   17.2813  O     
13   C         4.2717  -37.5162   18.9899  C     
14   C         3.0664  -36.7348   21.7623  C     
15   O         2.8983  -35.6196   22.5381  O     
16   F         5.2494  -37.5318   19.9532  F     
17   F         4.7106  -38.4292   18.0522  F     
18   F         4.3679  -36.2853   18.3904  F     
19   C         2.6566  -39.0501   19.9627  C     
20   C         2.4733  -40.1042   20.4952  C     
21   C         2.2010  -41.1992   21.2251  C     
22   C         3.0186  -41.3490   22.5197  C     
23   C         1.5360  -40.9360   22.5975  C     
24   C         3.4459  -35.2440   23.8161  C     
25   O         3.9431  -37.6694   22.1995  O     
26   C         2.8296  -36.0988   24.9617  C     
27   C         4.9907  -35.2739   23.8392  C     
28   H         0.3258  -36.9599   17.4474  H     
29   H        -2.6771  -35.1749   20.3171  H     
30   H        -1.4814  -35.8362   18.3409  H     
31   H         0.5852  -36.3003   22.6861  H     
32   H         1.9271  -42.1239   20.7217  H     
33   H         3.2201  -42.3758   22.8237  H     
34   H         3.7408  -40.5682   22.7599  H     
35   H         1.3559  -39.8983   22.8875  H     
36   H         0.8575  -41.7087   22.9611  H     
37   H         3.1315  -34.2109   23.9767  H     
38   H         1.7476  -35.9685   24.9688  H     
39   H         3.2235  -35.7967   25.9314  H     
40   H         3.0539  -37.1564   24.8097  H     
41   H         5.3636  -36.2935   23.7575  H     
42   H         5.3543  -34.8438   24.7723  H     
43   H         5.3734  -34.6846   23.0062  H     
@<TRIPOS>BOND
     1    1    2 1
     2    1    3 1
     3    1   13 1
     4    1   19 1
     5    2    4 1
     6    2   12 2
     7    3    5 1
     8    3   14 1
     9    4    6 1
    10    5    6 2
    11    5   10 1
    12    6    8 1
    13    7    8 2
    14    7    9 1
    15    9   10 2
    16    9   11 1
    17   13   16 1
    18   13   17 1
    19   13   18 1
    20   14   15 1
    21   14   25 2
    22   15   24 1
    23   19   20 3
    24   20   21 1
    25   21   22 1
    26   21   23 1
    27   22   23 1
    28   24   26 1
    29   24   27 1
    30    4   28 1
    31    7   29 1
    32    8   30 1
    33   10   31 1
    34   21   32 1
    35   22   33 1
    36   22   34 1
    37   23   35 1
    38   23   36 1
    39   24   37 1
    40   26   38 1
    41   26   39 1
    42   26   40 1
    43   27   41 1
    44   27   42 1
    45   27   43 1
@<TRIPOS>PROPERTY_DATA
  Total_Score	| 0.6602
  Crash		| -8.6597
  Polar		| 0.8585
  FragIndex	| 1
  FragRMSD	| 1.155

