@<TRIPOS>MOLECULE
BindingDB_2975
 40 42 0 0 0
SMALL
NO_CHARGES


@<TRIPOS>ATOM
1    C         2.8124  -37.8066   19.4683  C     
2    C         1.8102  -37.7087   18.3799  C     
3    N         2.4538  -36.9766   20.6624  N     
4    N         0.7481  -36.9355   18.4633  N     
5    C         1.1363  -36.4790   20.7849  C     
6    C         0.3398  -36.3752   19.6169  C     
7    C        -1.5641  -35.5175   20.8796  C     
8    C        -0.9720  -35.8566   19.6521  C     
9    C        -0.8582  -35.7349   22.0696  C     
10   C         0.4677  -36.2163   22.0219  C     
11   Cl       -1.6271  -35.5055   23.5600  Cl    
12   O         1.8845  -38.3618   17.3375  O     
13   C         4.2142  -37.5099   18.7910  C     
14   C         3.3335  -36.7912   21.7114  C     
15   O         3.2096  -35.7412   22.5686  O     
16   F         5.3189  -37.6508   19.5897  F     
17   F         4.5095  -38.3258   17.7086  F     
18   F         4.2545  -36.2201   18.3058  F     
19   C         2.7182  -39.0769   19.9225  C     
20   C         2.5432  -40.1299   20.4539  C     
21   C         2.2348  -41.2232   21.1721  C     
22   C         2.9820  -41.3834   22.5138  C     
23   C         1.5150  -40.9294   22.5178  C     
24   C         3.9844  -35.4203   23.7279  C     
25   O         4.3528  -37.6404   21.9507  O     
26   C         3.4638  -36.1027   25.0196  C     
27   H         0.1476  -36.9067   17.7046  H     
28   H        -2.5372  -35.1874   20.8919  H     
29   H        -1.5223  -35.7895   18.7926  H     
30   H         0.9208  -36.4192   22.9176  H     
31   H         1.9710  -42.1535   20.6684  H     
32   H         3.1537  -42.4104   22.8197  H     
33   H         3.7083  -40.6081   22.7871  H     
34   H         1.3788  -39.8803   22.8139  H     
35   H         0.8028  -41.6655   22.8770  H     
36   H         5.0361  -35.6960   23.5540  H     
37   H         3.9327  -34.3289   23.8651  H     
38   H         2.4262  -35.8132   25.2102  H     
39   H         4.0693  -35.7860   25.8720  H     
40   H         3.5197  -37.1808   24.9406  H     
@<TRIPOS>BOND
     1    1    2 1
     2    1    3 1
     3    1   13 1
     4    1   19 1
     5    2    4 1
     6    2   12 2
     7    3    5 1
     8    3   14 1
     9    4    6 1
    10    5    6 2
    11    5   10 1
    12    6    8 1
    13    7    8 2
    14    7    9 1
    15    9   10 2
    16    9   11 1
    17   13   16 1
    18   13   17 1
    19   13   18 1
    20   14   15 1
    21   14   25 2
    22   15   24 1
    23   19   20 3
    24   20   21 1
    25   21   22 1
    26   21   23 1
    27   22   23 1
    28   24   26 1
    29    4   27 1
    30    7   28 1
    31    8   29 1
    32   10   30 1
    33   21   31 1
    34   22   32 1
    35   22   33 1
    36   23   34 1
    37   23   35 1
    38   24   36 1
    39   24   37 1
    40   26   38 1
    41   26   39 1
    42   26   40 1
@<TRIPOS>PROPERTY_DATA
  Total_Score	| 0.3275
  Crash		| -7.5535
  Polar		| 0.7366
  FragIndex	| 1
  FragRMSD	| 1.212

