@<TRIPOS>MOLECULE
BindingDB_2972
 46 48 0 0 0
SMALL
NO_CHARGES


@<TRIPOS>ATOM
1    C         2.6305  -37.8849   19.2995  C     
2    C         1.6110  -37.6304   18.2563  C     
3    N         2.3851  -37.1320   20.5763  N     
4    N         0.6435  -36.7514   18.4373  N     
5    C         1.1237  -36.5557   20.7791  C     
6    C         0.3076  -36.2779   19.6525  C     
7    C        -1.4840  -35.4151   21.0629  C     
8    C        -0.9618  -35.6753   19.7871  C     
9    C        -0.7464  -35.7936   22.1974  C     
10   C         0.5220  -36.3767   22.0491  C     
11   O         1.6308  -38.1885   17.1636  O     
12   C         4.0403  -37.6351   18.6153  C     
13   C         3.3241  -37.1027   21.5987  C     
14   O         3.3051  -36.1722   22.5995  O     
15   F         5.1569  -37.9873   19.3356  F     
16   F         4.2329  -38.3277   17.4371  F     
17   F         4.1965  -36.3125   18.2929  F     
18   C         2.4738  -39.1801   19.7028  C     
19   C         2.3117  -40.1948   20.2942  C     
20   C         2.1961  -41.2395   21.1501  C     
21   C         3.0802  -41.2589   22.3967  C     
22   C         1.6146  -40.8056   22.5172  C     
23   C         4.2589  -36.0327   23.6632  C     
24   C         4.1841  -34.5999   24.2564  C     
25   O         4.2796  -38.0664   21.7161  O     
26   C         3.0667  -34.3629   25.3072  C     
27   C         1.7700  -35.1724   25.0840  C     
28   H         0.0381  -36.5661   17.6975  H     
29   H        -2.4154  -35.0096   21.1634  H     
30   H        -1.5320  -35.4703   18.9637  H     
31   H        -1.1398  -35.6825   23.1364  H     
32   H         0.9759  -36.7235   22.8857  H     
33   H         1.8506  -42.2107   20.7852  H     
34   H         3.2702  -42.2259   22.8437  H     
35   H         3.8151  -40.4542   22.4895  H     
36   H         1.5084  -39.7448   22.7510  H     
37   H         0.9115  -41.5130   22.9636  H     
38   H         4.0764  -36.7797   24.4421  H     
39   H         5.2627  -36.2005   23.2497  H     
40   H         5.1402  -34.3870   24.7439  H     
41   H         4.0511  -33.8615   23.4545  H     
42   H         3.4664  -34.5706   26.3048  H     
43   H         2.8079  -33.3051   25.2742  H     
44   H         1.3604  -34.9496   24.1060  H     
45   H         1.0465  -34.8733   25.8385  H     
46   H         1.9577  -36.2472   25.1660  H     
@<TRIPOS>BOND
     1    1    2 1
     2    1    3 1
     3    1   12 1
     4    1   18 1
     5    2    4 1
     6    2   11 2
     7    3    5 1
     8    3   13 1
     9    4    6 1
    10    5    6 2
    11    5   10 1
    12    6    8 1
    13    7    8 2
    14    7    9 1
    15    9   10 2
    16   12   15 1
    17   12   16 1
    18   12   17 1
    19   13   14 1
    20   13   25 2
    21   14   23 1
    22   18   19 3
    23   19   20 1
    24   20   21 1
    25   20   22 1
    26   21   22 1
    27   23   24 1
    28   24   26 1
    29   26   27 1
    30    4   28 1
    31    7   29 1
    32    8   30 1
    33    9   31 1
    34   10   32 1
    35   20   33 1
    36   21   34 1
    37   21   35 1
    38   22   36 1
    39   22   37 1
    40   23   38 1
    41   23   39 1
    42   24   40 1
    43   24   41 1
    44   26   42 1
    45   26   43 1
    46   27   44 1
    47   27   45 1
    48   27   46 1
@<TRIPOS>PROPERTY_DATA
  Total_Score	| 1.9901
  Crash		| -6.4136
  Polar		| 0.5221
  FragIndex	| 1
  FragRMSD	| 1.184

