@<TRIPOS>MOLECULE
BindingDB_2978
 40 42 0 0 0
SMALL
NO_CHARGES


@<TRIPOS>ATOM
1    C         2.4294  -37.7608   19.3949  C     
2    C         1.4558  -37.5533   18.2985  C     
3    N         2.0985  -36.9774   20.6306  N     
4    N         0.4146  -36.7482   18.4366  N     
5    C         0.8197  -36.4265   20.7881  C     
6    C         0.0294  -36.2576   19.6262  C     
7    C        -1.8432  -35.4068   20.9575  C     
8    C        -1.2783  -35.7112   19.6945  C     
9    C        -1.1029  -35.6586   22.1375  C     
10   C         0.1993  -36.1490   22.0501  C     
11   F        -1.6377  -35.4745   23.3102  F     
12   O         1.5553  -38.1117   17.2069  O     
13   C         3.8792  -37.5025   18.8146  C     
14   C         2.9631  -36.8967   21.6932  C     
15   O         3.0026  -35.7696   22.4501  O     
16   F         4.9289  -37.6735   19.6819  F     
17   F         4.1972  -38.3182   17.7490  F     
18   F         3.9831  -36.2166   18.3421  F     
19   C         2.3122  -39.0733   19.7388  C     
20   C         2.2257  -40.1484   20.2291  C     
21   C         2.1435  -41.2184   21.0394  C     
22   C         3.1978  -41.0524   22.1579  C     
23   C         1.7138  -41.0387   22.4954  C     
24   C         3.7462  -35.5097   23.6624  C     
25   C         5.2755  -35.6130   23.4344  C     
26   O         3.7866  -37.9380   22.0345  O     
27   H        -0.1399  -36.6071   17.6646  H     
28   H        -2.7823  -35.0807   21.0220  H     
29   H        -1.8257  -35.5903   18.8633  H     
30   H         0.6863  -36.3691   22.9257  H     
31   H         2.1344  -42.2140   20.5987  H     
32   H         3.7490  -41.9457   22.4337  H     
33   H         3.7010  -40.0902   22.3102  H     
34   H         1.2569  -40.0789   22.7262  H     
35   H         1.3255  -41.9394   22.9602  H     
36   H         3.5060  -34.4959   24.0009  H     
37   H         3.4457  -36.2321   24.4558  H     
38   H         5.5008  -36.6440   23.0887  H     
39   H         5.8283  -35.4021   24.3672  H     
40   H         5.5947  -34.9063   22.6745  H     
@<TRIPOS>BOND
     1    1    2 1
     2    1    3 1
     3    1   13 1
     4    1   19 1
     5    2    4 1
     6    2   12 2
     7    3    5 1
     8    3   14 1
     9    4    6 1
    10    5    6 2
    11    5   10 1
    12    6    8 1
    13    7    8 2
    14    7    9 1
    15    9   10 2
    16    9   11 1
    17   13   16 1
    18   13   17 1
    19   13   18 1
    20   14   15 1
    21   14   26 2
    22   15   24 1
    23   19   20 3
    24   20   21 1
    25   21   22 1
    26   21   23 1
    27   22   23 1
    28   24   25 1
    29    4   27 1
    30    7   28 1
    31    8   29 1
    32   10   30 1
    33   21   31 1
    34   22   32 1
    35   22   33 1
    36   23   34 1
    37   23   35 1
    38   24   36 1
    39   24   37 1
    40   25   38 1
    41   25   39 1
    42   25   40 1
@<TRIPOS>PROPERTY_DATA
  Total_Score	| 0.2959
  Crash		| -7.1582
  Polar		| 0.4786
  FragIndex	| 1
  FragRMSD	| 1.137

