@<TRIPOS>MOLECULE
BindingDB_2979
 43 45 0 0 0
SMALL
NO_CHARGES


@<TRIPOS>ATOM
1    C         2.7656  -37.7760   19.4161  C     
2    C         1.8095  -37.6769   18.2961  C     
3    N         2.3535  -37.0020   20.6268  N     
4    N         0.7339  -36.9181   18.3720  N     
5    C         1.0057  -36.6040   20.7340  C     
6    C         0.2416  -36.4608   19.5451  C     
7    C        -1.7494  -35.8589   20.8164  C     
8    C        -1.1045  -36.0381   19.5819  C     
9    C        -1.0626  -36.1349   22.0062  C     
10   C         0.2824  -36.5277   21.9584  C     
11   F        -1.6897  -36.0921   23.1531  F     
12   O         1.9579  -38.2798   17.2389  O     
13   C         4.1948  -37.4366   18.8222  C     
14   C         3.1805  -36.8447   21.7237  C     
15   O         2.9556  -35.8958   22.6817  O     
16   F         5.2588  -37.5564   19.6846  F     
17   F         4.5618  -38.2368   17.7557  F     
18   F         4.2354  -36.1514   18.3382  F     
19   C         2.7083  -39.0654   19.8777  C     
20   C         2.4711  -40.1024   20.4110  C     
21   C         2.1493  -41.1733   21.1676  C     
22   C         2.8644  -41.3057   22.5198  C     
23   C         1.4271  -40.7397   22.4697  C     
24   C         3.6334  -35.7223   23.9446  C     
25   C         5.1108  -35.2910   23.7613  C     
26   O         4.1820  -37.7243   21.9838  O     
27   C         2.8291  -34.6788   24.7501  C     
28   H         0.1872  -36.8287   17.5794  H     
29   H        -2.7353  -35.5955   20.8596  H     
30   H        -1.6429  -35.9364   18.7176  H     
31   H         0.7140  -36.8211   22.8361  H     
32   H         1.7904  -42.0991   20.7127  H     
33   H         2.9112  -42.2941   22.9928  H     
34   H         3.6594  -40.5860   22.7050  H     
35   H         1.3517  -39.6815   22.7206  H     
36   H         0.6320  -41.4238   22.8043  H     
37   H         3.6089  -36.6650   24.5058  H     
38   H         5.6913  -36.1051   23.3149  H     
39   H         5.5707  -35.0528   24.7266  H     
40   H         5.1618  -34.4157   23.1048  H     
41   H         2.8500  -33.7177   24.2341  H     
42   H         3.2593  -34.5694   25.7396  H     
43   H         1.7964  -35.0114   24.8584  H     
@<TRIPOS>BOND
     1    1    2 1
     2    1    3 1
     3    1   13 1
     4    1   19 1
     5    2    4 1
     6    2   12 2
     7    3    5 1
     8    3   14 1
     9    4    6 1
    10    5    6 2
    11    5   10 1
    12    6    8 1
    13    7    8 2
    14    7    9 1
    15    9   10 2
    16    9   11 1
    17   13   16 1
    18   13   17 1
    19   13   18 1
    20   14   15 1
    21   14   26 2
    22   15   24 1
    23   19   20 3
    24   20   21 1
    25   21   22 1
    26   21   23 1
    27   22   23 1
    28   24   25 1
    29   24   27 1
    30    4   28 1
    31    7   29 1
    32    8   30 1
    33   10   31 1
    34   21   32 1
    35   22   33 1
    36   22   34 1
    37   23   35 1
    38   23   36 1
    39   24   37 1
    40   25   38 1
    41   25   39 1
    42   25   40 1
    43   27   41 1
    44   27   42 1
    45   27   43 1
@<TRIPOS>PROPERTY_DATA
  Total_Score	| 1.1480
  Crash		| -7.2616
  Polar		| 0.4509
  FragIndex	| 1
  FragRMSD	| 1.060

