@<TRIPOS>MOLECULE
BindingDB_2955
 37 38 0 0 0
SMALL
NO_CHARGES


@<TRIPOS>ATOM
1    C         2.6264  -38.2211   20.3556  C     
2    C         2.2566  -37.6565   19.0447  C     
3    N         2.1647  -37.3340   21.4368  N     
4    N         1.1641  -36.9160   18.9284  N     
5    C         0.8977  -36.7702   21.3143  C     
6    C         0.4145  -36.5327   20.0022  C     
7    C        -1.6313  -35.5663   20.8988  C     
8    C        -0.8314  -35.9236   19.7949  C     
9    C        -1.1908  -35.8475   22.2030  C     
10   C         0.0592  -36.4557   22.4104  C     
11   F        -1.9562  -35.5404   23.2208  F     
12   O         2.8996  -37.8850   18.0313  O     
13   C         2.0586  -39.6693   20.5067  C     
14   C         2.4942  -40.3726   21.8170  C     
15   C         3.0059  -36.9592   22.4607  C     
16   O         2.7511  -35.8350   23.1827  O     
17   O         4.1609  -37.6200   22.7512  O     
18   C         3.4387  -35.2284   24.2982  C     
19   C         3.1937  -36.0484   25.5876  C     
20   C         4.9469  -35.0317   24.0021  C     
21   H         3.7218  -38.3012   20.3468  H     
22   H         0.8871  -36.6274   18.0429  H     
23   H        -2.5434  -35.1401   20.7394  H     
24   H        -1.1785  -35.7625   18.8503  H     
25   H         0.3366  -36.6761   23.3705  H     
26   H         0.9685  -39.6547   20.4667  H     
27   H         2.4002  -40.2856   19.6724  H     
28   H         3.5807  -40.3723   21.9118  H     
29   H         2.1482  -41.4074   21.8156  H     
30   H         2.0694  -39.8687   22.6866  H     
31   H         2.9897  -34.2387   24.4556  H     
32   H         2.1226  -36.0669   25.8120  H     
33   H         3.7245  -35.6117   26.4394  H     
34   H         3.5299  -37.0828   25.4610  H     
35   H         5.4119  -36.0007   23.8051  H     
36   H         5.4493  -34.5310   24.8525  H     
37   H         5.0546  -34.4040   23.1016  H     
@<TRIPOS>BOND
     1    1    2 1
     2    1    3 1
     3    1   13 1
     4    2    4 1
     5    2   12 2
     6    3    5 1
     7    3   15 1
     8    4    6 1
     9    5    6 2
    10    5   10 1
    11    6    8 1
    12    7    8 2
    13    7    9 1
    14    9   10 2
    15    9   11 1
    16   13   14 1
    17   15   16 1
    18   15   17 2
    19   16   18 1
    20   18   19 1
    21   18   20 1
    22    1   21 1
    23    4   22 1
    24    7   23 1
    25    8   24 1
    26   10   25 1
    27   13   26 1
    28   13   27 1
    29   14   28 1
    30   14   29 1
    31   14   30 1
    32   18   31 1
    33   19   32 1
    34   19   33 1
    35   19   34 1
    36   20   35 1
    37   20   36 1
    38   20   37 1
@<TRIPOS>PROPERTY_DATA
  Total_Score	| 8.7622
  Crash		| -0.5265
  Polar		| 2.0499
  FragIndex	| 1
  FragRMSD	| 0.394

