@<TRIPOS>MOLECULE
BindingDB_2971
 46 48 0 0 0
SMALL
NO_CHARGES


@<TRIPOS>ATOM
1    C         2.7294  -37.8182   19.4197  C     
2    C         1.7118  -37.6362   18.3648  C     
3    N         2.4405  -37.0652   20.6819  N     
4    N         0.6483  -36.8799   18.5460  N     
5    C         1.1557  -36.5085   20.8737  C     
6    C         0.3110  -36.3633   19.7467  C     
7    C        -1.4509  -35.3345   21.1087  C     
8    C        -0.9717  -35.7684   19.8522  C     
9    C        -0.6807  -35.5852   22.2551  C     
10   C         0.5938  -36.1874   22.1571  C     
11   O         1.7269  -38.2086   17.2771  O     
12   C         4.1386  -37.5548   18.7374  C     
13   C         3.3535  -37.0394   21.7045  C     
14   O         3.3493  -36.0663   22.6713  O     
15   F         5.2326  -37.8561   19.4884  F     
16   F         4.3622  -38.2852   17.5845  F     
17   F         4.2738  -36.2374   18.3794  F     
18   C         2.5737  -39.1173   19.7772  C     
19   C         2.3829  -40.1732   20.2939  C     
20   C         2.1325  -41.2404   21.0770  C     
21   C         2.9789  -41.3442   22.3575  C     
22   C         1.5092  -40.8817   22.4493  C     
23   C         4.2795  -35.9445   23.7733  C     
24   C         3.8247  -34.8854   24.8238  C     
25   O         4.3149  -37.9885   21.8444  O     
26   C         3.0537  -33.7116   24.1677  C     
27   C         2.9899  -35.5426   25.9489  C     
28   H         0.0160  -36.7796   17.8228  H     
29   H        -2.3826  -34.9092   21.1859  H     
30   H        -1.5741  -35.6727   19.0334  H     
31   H        -1.0676  -35.3330   23.1840  H     
32   H         1.0426  -36.4116   23.0300  H     
33   H         1.8485  -42.1902   20.6311  H     
34   H         3.1715  -42.3627   22.6866  H     
35   H         3.7393  -40.5775   22.5144  H     
36   H         1.3713  -39.8199   22.6853  H     
37   H         0.7995  -41.6087   22.8549  H     
38   H         4.4020  -36.9217   24.2601  H     
39   H         5.2567  -35.6335   23.3728  H     
40   H         4.7302  -34.4641   25.2936  H     
41   H         3.7117  -33.1951   23.4542  H     
42   H         2.7312  -32.9894   24.9276  H     
43   H         2.1720  -34.0773   23.6397  H     
44   H         2.0549  -35.9172   25.5471  H     
45   H         2.7755  -34.8194   26.7460  H     
46   H         3.5436  -36.3627   26.4073  H     
@<TRIPOS>BOND
     1    1    2 1
     2    1    3 1
     3    1   12 1
     4    1   18 1
     5    2    4 1
     6    2   11 2
     7    3    5 1
     8    3   13 1
     9    4    6 1
    10    5    6 2
    11    5   10 1
    12    6    8 1
    13    7    8 2
    14    7    9 1
    15    9   10 2
    16   12   15 1
    17   12   16 1
    18   12   17 1
    19   13   14 1
    20   13   25 2
    21   14   23 1
    22   18   19 3
    23   19   20 1
    24   20   21 1
    25   20   22 1
    26   21   22 1
    27   23   24 1
    28   24   26 1
    29   24   27 1
    30    4   28 1
    31    7   29 1
    32    8   30 1
    33    9   31 1
    34   10   32 1
    35   20   33 1
    36   21   34 1
    37   21   35 1
    38   22   36 1
    39   22   37 1
    40   23   38 1
    41   23   39 1
    42   24   40 1
    43   26   41 1
    44   26   42 1
    45   26   43 1
    46   27   44 1
    47   27   45 1
    48   27   46 1
@<TRIPOS>PROPERTY_DATA
  Total_Score	| 2.9408
  Crash		| -6.7513
  Polar		| 0.6512
  FragIndex	| 1
  FragRMSD	| 1.173

