@<TRIPOS>MOLECULE
BindingDB_2977
 41 43 0 0 0
SMALL
NO_CHARGES


@<TRIPOS>ATOM
1    C         2.8346  -37.8063   19.3698  C     
2    C         1.9690  -37.7355   18.1701  C     
3    N         2.3612  -36.9559   20.5033  N     
4    N         0.8999  -36.9726   18.1395  N     
5    C         1.0386  -36.4880   20.4850  C     
6    C         0.3692  -36.4030   19.2362  C     
7    C        -1.7180  -35.7503   20.3001  C     
8    C        -0.9715  -35.9695   19.1378  C     
9    C        -1.1274  -35.9484   21.5578  C     
10   C         0.2355  -36.2908   21.6397  C     
11   Cl       -2.0759  -35.9156   22.9568  Cl    
12   O         2.1705  -38.3986   17.1545  O     
13   C         4.3121  -37.5089   18.8867  C     
14   C         3.0874  -36.8371   21.6750  C     
15   O         2.9414  -35.7679   22.4975  O     
16   F         5.2761  -37.5608   19.8562  F     
17   F         4.7711  -38.3935   17.9357  F     
18   F         4.3879  -36.2687   18.2949  F     
19   C         2.6938  -39.0655   19.8770  C     
20   C         2.4317  -40.0546   20.4875  C     
21   C         2.1542  -41.0503   21.3651  C     
22   C         2.9862  -41.1302   22.6461  C     
23   C         1.5900  -40.4795   22.6885  C     
24   C         3.3809  -35.5780   23.7519  C     
25   C         3.5414  -36.5960   24.6199  C     
26   O         3.9888  -37.7795   22.0701  O     
27   C         3.5699  -34.1993   24.1488  C     
28   H         0.3603  -36.9823   17.3347  H     
29   H        -2.6987  -35.4920   20.1936  H     
30   H        -1.4476  -35.9330   18.2293  H     
31   H         0.6098  -36.4892   22.5704  H     
32   H         1.6092  -41.9301   21.0277  H     
33   H         3.0515  -42.1014   23.1290  H     
34   H         3.8403  -40.4606   22.6676  H     
35   H         1.6020  -39.3991   22.8662  H     
36   H         0.8036  -41.0888   23.1425  H     
37   H         3.8636  -36.4593   25.5530  H     
38   H         3.2592  -37.5068   24.3768  H     
39   H         4.3730  -33.7722   23.5479  H     
40   H         3.8351  -34.0856   25.2023  H     
41   H         2.6500  -33.6340   23.9806  H     
@<TRIPOS>BOND
     1    1    2 1
     2    1    3 1
     3    1   13 1
     4    1   19 1
     5    2    4 1
     6    2   12 2
     7    3    5 1
     8    3   14 1
     9    4    6 1
    10    5    6 2
    11    5   10 1
    12    6    8 1
    13    7    8 2
    14    7    9 1
    15    9   10 2
    16    9   11 1
    17   13   16 1
    18   13   17 1
    19   13   18 1
    20   14   15 1
    21   14   26 2
    22   15   24 1
    23   19   20 3
    24   20   21 1
    25   21   22 1
    26   21   23 1
    27   22   23 1
    28   24   25 2
    29   24   27 1
    30    4   28 1
    31    7   29 1
    32    8   30 1
    33   10   31 1
    34   21   32 1
    35   22   33 1
    36   22   34 1
    37   23   35 1
    38   23   36 1
    39   25   37 1
    40   25   38 1
    41   27   39 1
    42   27   40 1
    43   27   41 1
@<TRIPOS>PROPERTY_DATA
  Total_Score	| 1.0422
  Crash		| -7.4249
  Polar		| 0.6720
  FragIndex	| 1
  FragRMSD	| 1.296

