@<TRIPOS>MOLECULE
BindingDB_2969
 43 45 0 0 0
SMALL
NO_CHARGES


@<TRIPOS>ATOM
1    C         2.5864  -37.7348   19.4913  C     
2    C         1.6203  -37.6336   18.3757  C     
3    N         2.1876  -36.9013   20.6639  N     
4    N         0.5324  -36.8969   18.4419  N     
5    C         0.8701  -36.3855   20.7532  C     
6    C         0.0747  -36.3289   19.5832  C     
7    C        -1.8451  -35.4291   20.8038  C     
8    C        -1.2443  -35.8221   19.5863  C     
9    C        -1.1289  -35.5494   22.0001  C     
10   C         0.1989  -36.0321   21.9791  C     
11   O         1.7606  -38.2745   17.3354  O     
12   C         4.0399  -37.4694   18.9160  C     
13   C         3.0318  -36.6999   21.7248  C     
14   O         2.9868  -35.5533   22.4744  O     
15   F         5.0832  -37.6191   19.7926  F     
16   F         4.3816  -38.2822   17.8649  F     
17   F         4.1376  -36.1967   18.4295  F     
18   C         2.4801  -39.0047   19.9351  C     
19   C         2.3818  -40.0840   20.4467  C     
20   C         2.2094  -41.2018   21.1677  C     
21   C         3.0358  -41.3228   22.4540  C     
22   C         1.5446  -40.9449   22.5388  C     
23   C         3.6996  -35.1755   23.6624  C     
24   C         3.0037  -35.7272   24.9318  C     
25   O         3.9233  -37.6421   22.1235  O     
26   C         5.1943  -35.5802   23.6146  C     
27   H        -0.0419  -36.8746   17.6624  H     
28   H        -2.8151  -35.1144   20.8144  H     
29   H        -1.7928  -35.7991   18.7278  H     
30   H        -1.5813  -35.3100   22.8925  H     
31   H         0.6504  -36.1489   22.8903  H     
32   H         1.9418  -42.1428   20.6887  H     
33   H         3.2699  -42.3447   22.7402  H     
34   H         3.7547  -40.5270   22.6792  H     
35   H         1.3259  -39.9092   22.8305  H     
36   H         0.8994  -41.7457   22.9146  H     
37   H         3.6432  -34.0872   23.7218  H     
38   H         1.9754  -35.3663   24.9731  H     
39   H         3.5191  -35.3850   25.8315  H     
40   H         2.9915  -36.8229   24.9213  H     
41   H         5.2936  -36.6591   23.6202  H     
42   H         5.7601  -35.1545   24.4456  H     
43   H         5.6296  -35.2023   22.6949  H     
@<TRIPOS>BOND
     1    1    2 1
     2    1    3 1
     3    1   12 1
     4    1   18 1
     5    2    4 1
     6    2   11 2
     7    3    5 1
     8    3   13 1
     9    4    6 1
    10    5    6 2
    11    5   10 1
    12    6    8 1
    13    7    8 2
    14    7    9 1
    15    9   10 2
    16   12   15 1
    17   12   16 1
    18   12   17 1
    19   13   14 1
    20   13   25 2
    21   14   23 1
    22   18   19 3
    23   19   20 1
    24   20   21 1
    25   20   22 1
    26   21   22 1
    27   23   24 1
    28   23   26 1
    29    4   27 1
    30    7   28 1
    31    8   29 1
    32    9   30 1
    33   10   31 1
    34   20   32 1
    35   21   33 1
    36   21   34 1
    37   22   35 1
    38   22   36 1
    39   23   37 1
    40   24   38 1
    41   24   39 1
    42   24   40 1
    43   26   41 1
    44   26   42 1
    45   26   43 1
@<TRIPOS>PROPERTY_DATA
  Total_Score	| 0.6144
  Crash		| -7.8303
  Polar		| 0.4938
  FragIndex	| 1
  FragRMSD	| 1.153

