@<TRIPOS>MOLECULE
BindingDB_50331792
 29 30 0 0 0
SMALL
NO_CHARGES


@<TRIPOS>ATOM
1    O        36.9258    2.5116   13.9590  O     
2    C        36.9736    1.0934   13.7904  C     
3    C        36.1257    0.6241   12.6049  C     
4    C        38.3697    0.6063   13.3859  C     
5    C        36.8643   -0.6334   12.0865  C     
6    O        38.1634   -0.6413   12.7108  O     
7    C        39.2886    0.4087   14.5221  C     
8    O        40.4087    1.1678   14.6463  O     
9    N        36.0948   -1.8614   12.2768  N     
10   C        34.9873   -2.1007   11.5382  C     
11   N        34.3160   -3.2404   11.6749  N     
12   C        34.7034   -4.1790   12.5303  C     
13   C        35.8437   -4.0081   13.2852  C     
14   C        36.4967   -2.8282   13.1576  C     
15   O        34.5474   -1.3165   10.7097  O     
16   O        34.0160   -5.1888   12.6046  O     
17   C        36.3465   -5.0933   14.1167  C     
18   O        38.9967   -0.4916   15.4904  O     
19   H        36.7180    2.6626   14.9192  H     
20   H        36.6275    0.5909   14.7018  H     
21   H        35.0984    0.4307   12.9225  H     
22   H        36.1077    1.4013   11.8254  H     
23   H        38.8154    1.3199   12.6753  H     
24   H        37.0540   -0.5153   11.0121  H     
25   H        33.5262   -3.3934   11.1390  H     
26   H        37.3109   -2.6822   13.7084  H     
27   H        35.5621   -5.4000   14.8101  H     
28   H        37.2234   -4.8024   14.6986  H     
29   H        36.6151   -5.9442   13.4885  H     
@<TRIPOS>BOND
     1    2    1 1
     2    2    3 1
     3    2    4 1
     4    3    5 1
     5    4    6 1
     6    4    7 1
     7    5    6 1
     8    5    9 1
     9    7    8 1
    10    7   18 2
    11    9   10 1
    12    9   14 1
    13   10   11 1
    14   10   15 2
    15   11   12 1
    16   12   13 1
    17   12   16 2
    18   13   14 2
    19   13   17 1
    20    1   19 1
    21    2   20 1
    22    3   21 1
    23    3   22 1
    24    4   23 1
    25    5   24 1
    26   11   25 1
    27   14   26 1
    28   17   27 1
    29   17   28 1
    30   17   29 1
@<TRIPOS>PROPERTY_DATA
  Total_Score	| 3.0657
  Crash		| -1.0313
  Polar		| 2.9634
  FragIndex	| 1
  FragRMSD	| 0.374

