@<TRIPOS>MOLECULE
BindingDB_50292723
 32 33 0 0 0
SMALL
NO_CHARGES


@<TRIPOS>ATOM
1    O        39.2732   -1.0572   15.4411  O     
2    C        39.7891   -0.2656   14.3740  C     
3    C        38.6906    0.2016   13.3883  C     
4    C        37.4277    0.7716   14.0551  C     
5    O        37.6785    2.0700   14.5867  O     
6    C        36.3955    0.6739   12.9113  C     
7    O        36.4135    1.7597   11.9482  O     
8    C        36.8678   -0.6236   12.1871  C     
9    O        38.2338   -0.8818   12.5732  O     
10   N        36.0245   -1.7900   12.4407  N     
11   C        35.0149   -2.1315   11.6086  C     
12   O        34.6697   -1.4506   10.6526  O     
13   N        34.3394   -3.2647   11.8024  N     
14   C        34.6177   -4.0796   12.8165  C     
15   O        33.9883   -5.1205   12.9343  O     
16   C        35.5876   -3.7480   13.7098  C     
17   C        36.2669   -2.6009   13.5185  C     
18   P        36.0843    3.2134   12.4010  P     
19   O        37.3609    3.9574   12.8371  O     
20   O        35.5867    3.9537   11.1476  O     
21   O        35.0637    3.3126   13.4140  O     
22   H        39.0100   -0.4212   16.1381  H     
23   H        40.3077    0.5990   14.7933  H     
24   H        40.5187   -0.8698   13.8318  H     
25   H        39.1251    0.9618   12.7285  H     
26   H        37.1036    0.1257   14.8750  H     
27   H        36.8917    2.2991   15.1220  H     
28   H        35.3829    0.5409   13.3066  H     
29   H        36.9241   -0.4388   11.1079  H     
30   H        33.6339   -3.5083   11.1831  H     
31   H        35.7961   -4.3383   14.4827  H     
32   H        36.9701   -2.3675   14.1798  H     
@<TRIPOS>BOND
     1    1    2 1
     2    3    2 1
     3    3    4 1
     4    3    9 1
     5    4    5 1
     6    4    6 1
     7    6    7 1
     8    6    8 1
     9    7   18 1
    10    8    9 1
    11    8   10 1
    12   10   11 1
    13   10   17 1
    14   11   12 2
    15   11   13 1
    16   13   14 1
    17   14   15 2
    18   14   16 1
    19   16   17 2
    20   18   19 1
    21   18   20 1
    22   18   21 2
    23    1   22 1
    24    2   23 1
    25    2   24 1
    26    3   25 1
    27    4   26 1
    28    5   27 1
    29    6   28 1
    30    8   29 1
    31   13   30 1
    32   16   31 1
    33   17   32 1
@<TRIPOS>PROPERTY_DATA
  Total_Score	| 4.2682
  Crash		| -2.0107
  Polar		| 5.6950
  FragIndex	| 1
  FragRMSD	| 0.402

