@<TRIPOS>MOLECULE
BindingDB_50292718
 41 43 0 0 0
SMALL
NO_CHARGES


@<TRIPOS>ATOM
1    C        35.5039   -3.9590   13.6985  C     
2    C        36.2767   -2.8679   13.5415  C     
3    N        36.0889   -1.9936   12.5045  N     
4    C        35.0719   -2.2373   11.6469  C     
5    N        34.3141   -3.3235   11.7989  N     
6    C        34.5153   -4.1835   12.7935  C     
7    O        33.8069   -5.1759   12.8757  O     
8    O        34.7960   -1.5060   10.7048  O     
9    C        36.9515   -0.8292   12.3300  C     
10   O        38.2089   -0.9330   13.0283  O     
11   C        38.4524    0.2760   13.7569  C     
12   C        37.0619    0.8677   14.0555  C     
13   C        36.2719    0.4883   12.7936  C     
14   O        36.3764    1.4909   11.7800  O     
15   O        37.0945    2.2749   14.2945  O     
16   C        39.3823    0.0124   14.9804  C     
17   N        39.2324   -1.3380   15.6206  N     
18   C        40.4985   -1.9527   16.0909  C     
19   C        40.0802   -3.1272   16.9972  C     
20   C        38.6135   -2.8421   17.3688  C     
21   C        38.3294   -1.4449   16.7916  C     
22   H        35.6567   -4.5840   14.4578  H     
23   H        36.9900   -2.7160   14.2120  H     
24   H        33.6014   -3.4961   11.1657  H     
25   H        37.2271   -0.7553   11.2715  H     
26   H        38.9702    0.9679   13.0806  H     
27   H        36.6113    0.3790   14.9177  H     
28   H        35.2143    0.3486   13.0284  H     
29   H        35.5956    2.0729   11.9026  H     
30   H        37.7153    2.3963   15.0429  H     
31   H        40.4058    0.0986   14.5997  H     
32   H        39.2592    0.8098   15.7185  H     
33   H        38.8682   -1.9696   14.9055  H     
34   H        41.0921   -2.3076   15.2440  H     
35   H        41.0944   -1.2345   16.6647  H     
36   H        40.1587   -4.0772   16.4607  H     
37   H        40.7121   -3.1720   17.8885  H     
38   H        37.9552   -3.5810   16.9014  H     
39   H        38.4587   -2.8629   18.4505  H     
40   H        38.5645   -0.6842   17.5431  H     
41   H        37.2784   -1.3614   16.5155  H     
@<TRIPOS>BOND
     1    1    2 2
     2    1    6 1
     3    2    3 1
     4    3    4 1
     5    9    3 1
     6    4    5 1
     7    4    8 2
     8    5    6 1
     9    6    7 2
    10    9   10 1
    11    9   13 1
    12   10   11 1
    13   11   12 1
    14   11   16 1
    15   12   13 1
    16   12   15 1
    17   13   14 1
    18   16   17 1
    19   17   18 1
    20   17   21 1
    21   18   19 1
    22   19   20 1
    23   20   21 1
    24    1   22 1
    25    2   23 1
    26    5   24 1
    27    9   25 1
    28   11   26 1
    29   12   27 1
    30   13   28 1
    31   14   29 1
    32   15   30 1
    33   16   31 1
    34   16   32 1
    35   17   33 1
    36   18   34 1
    37   18   35 1
    38   19   36 1
    39   19   37 1
    40   20   38 1
    41   20   39 1
    42   21   40 1
    43   21   41 1
@<TRIPOS>PROPERTY_DATA
  Total_Score	| 5.4735
  Crash		| -1.0125
  Polar		| 4.1717
  FragIndex	| 1
  FragRMSD	| 0.171

