@<TRIPOS>MOLECULE
BindingDB_50342006
 46 48 0 0 0
SMALL
NO_CHARGES


@<TRIPOS>ATOM
1    C        37.3304    1.0370   13.8264  C     
2    C        36.3170    0.6973   12.7187  C     
3    C        36.9088   -0.6037   12.1101  C     
4    O        38.2519   -0.7333   12.6074  O     
5    C        38.6486    0.4881   13.2342  C     
6    N        36.0950   -1.7847   12.3876  N     
7    O        36.2582    1.7222   11.7191  O     
8    O        37.3923    2.4301   14.1354  O     
9    C        39.7677    0.2201   14.2806  C     
10   N        41.1208   -0.1816   13.7633  N     
11   C        41.8690    0.9292   13.0952  C     
12   C        43.3280    0.5228   12.7461  C     
13   C        43.3687   -0.7675   11.8760  C     
14   C        42.5830   -1.8989   12.6185  C     
15   C        41.1370   -1.4432   12.9543  C     
16   C        44.7469   -1.1414   11.5009  C     
17   O        45.3374   -2.2697   11.9636  O     
18   O        45.3812   -0.4899   10.5027  O     
19   C        36.3670   -2.5853   13.4661  C     
20   C        35.6680   -3.7148   13.6968  C     
21   C        34.6708   -4.0463   12.8344  C     
22   N        34.3865   -3.2553   11.8054  N     
23   C        35.0718   -2.1324   11.5763  C     
24   O        34.7189   -1.4751   10.6076  O     
25   O        34.0225   -5.0725   12.9843  O     
26   H        37.0674    0.4898   14.7393  H     
27   H        35.3099    0.5520   13.1254  H     
28   H        37.0228   -0.4810   11.0301  H     
29   H        39.0215    1.1910   12.4809  H     
30   H        35.4841    2.2854   11.9433  H     
31   H        36.9207    2.5460   14.9910  H     
32   H        39.8858    1.1175   14.9019  H     
33   H        39.4175   -0.5653   14.9612  H     
34   H        41.6621   -0.3973   14.6064  H     
35   H        41.3476    1.2354   12.1821  H     
36   H        41.9157    1.7988   13.7640  H     
37   H        43.8021    1.3500   12.2071  H     
38   H        43.8897    0.3617   13.6744  H     
39   H        42.8389   -0.5610   10.9403  H     
40   H        42.5345   -2.7889   11.9847  H     
41   H        43.1039   -2.1658   13.5428  H     
42   H        40.6505   -2.2455   13.5118  H     
43   H        40.5918   -1.3009   12.0203  H     
44   H        37.0895   -2.3464   14.1027  H     
45   H        35.8830   -4.2939   14.4755  H     
46   H        33.6696   -3.4995   11.2004  H     
@<TRIPOS>BOND
     1    1    2 1
     2    1    5 1
     3    1    8 1
     4    2    3 1
     5    2    7 1
     6    3    4 1
     7    3    6 1
     8    4    5 1
     9    5    9 1
    10    6   19 1
    11    6   23 1
    12    9   10 1
    13   10   11 1
    14   10   15 1
    15   11   12 1
    16   12   13 1
    17   13   14 1
    18   13   16 1
    19   14   15 1
    20   16   17 1
    21   16   18 2
    22   19   20 2
    23   20   21 1
    24   21   22 1
    25   21   25 2
    26   22   23 1
    27   23   24 2
    28    1   26 1
    29    2   27 1
    30    3   28 1
    31    5   29 1
    32    7   30 1
    33    8   31 1
    34    9   32 1
    35    9   33 1
    36   10   34 1
    37   11   35 1
    38   11   36 1
    39   12   37 1
    40   12   38 1
    41   13   39 1
    42   14   40 1
    43   14   41 1
    44   15   42 1
    45   15   43 1
    46   19   44 1
    47   20   45 1
    48   22   46 1
@<TRIPOS>PROPERTY_DATA
  Total_Score	| 7.9001
  Crash		| -0.6145
  Polar		| 8.0876
  FragIndex	| 1
  FragRMSD	| 0.331

