@<TRIPOS>MOLECULE
BindingDB_50292720
 42 44 0 0 0
SMALL
NO_CHARGES


@<TRIPOS>ATOM
1    C        35.5281   -3.8787   13.7018  C     
2    C        36.2576   -2.7618   13.5505  C     
3    N        36.0970   -1.9223   12.4798  N     
4    C        35.0931   -2.1892   11.6190  C     
5    N        34.3554   -3.2884   11.7840  N     
6    C        34.5609   -4.1404   12.7830  C     
7    O        33.8625   -5.1365   12.8697  O     
8    O        34.8110   -1.4693   10.6702  O     
9    C        36.9709   -0.7673   12.2972  C     
10   O        38.2387   -0.8738   12.9690  O     
11   C        38.5230    0.3177   13.6948  C     
12   C        37.1489    0.9540   13.9912  C     
13   C        36.3025    0.5437   12.7782  C     
14   O        36.3308    1.5240   11.7392  O     
15   O        37.2384    2.3722   14.1368  O     
16   C        39.4122    0.0658   14.9559  C     
17   N        38.9632   -1.0429   15.8707  N     
18   C        39.4158   -0.8815   17.2923  C     
19   C        38.7696   -1.9655   18.1905  C     
20   O        39.0601   -3.2852   17.6898  O     
21   C        38.6510   -3.4808   16.3223  C     
22   C        39.3177   -2.4252   15.3954  C     
23   H        35.6780   -4.4846   14.4780  H     
24   H        36.9084   -2.5429   14.2576  H     
25   H        33.6420   -3.4719   11.1535  H     
26   H        37.2323   -0.6898   11.2293  H     
27   H        39.0825    0.9830   13.0230  H     
28   H        36.7158    0.5220   14.8966  H     
29   H        35.2597    0.3985   13.0712  H     
30   H        35.5541    2.1008   11.8890  H     
31   H        36.8233    2.5799   15.0005  H     
32   H        40.4348   -0.1218   14.6238  H     
33   H        39.4450    1.0189   15.4992  H     
34   H        37.9418   -0.9987   15.8959  H     
35   H        40.5061   -0.9577   17.3503  H     
36   H        39.1302    0.0995   17.6805  H     
37   H        39.1674   -1.8802   19.2000  H     
38   H        37.6893   -1.8208   18.2362  H     
39   H        38.9537   -4.4819   16.0121  H     
40   H        37.5612   -3.4356   16.2586  H     
41   H        38.9822   -2.5929   14.3779  H     
42   H        40.4015   -2.5743   15.4117  H     
@<TRIPOS>BOND
     1    1    2 2
     2    1    6 1
     3    2    3 1
     4    3    4 1
     5    9    3 1
     6    4    5 1
     7    4    8 2
     8    5    6 1
     9    6    7 2
    10    9   10 1
    11    9   13 1
    12   10   11 1
    13   11   12 1
    14   11   16 1
    15   12   13 1
    16   12   15 1
    17   13   14 1
    18   16   17 1
    19   17   18 1
    20   17   22 1
    21   18   19 1
    22   19   20 1
    23   20   21 1
    24   21   22 1
    25    1   23 1
    26    2   24 1
    27    5   25 1
    28    9   26 1
    29   11   27 1
    30   12   28 1
    31   13   29 1
    32   14   30 1
    33   15   31 1
    34   16   32 1
    35   16   33 1
    36   17   34 1
    37   18   35 1
    38   18   36 1
    39   19   37 1
    40   19   38 1
    41   21   39 1
    42   21   40 1
    43   22   41 1
    44   22   42 1
@<TRIPOS>PROPERTY_DATA
  Total_Score	| 6.0864
  Crash		| -1.0869
  Polar		| 5.2283
  FragIndex	| 1
  FragRMSD	| 0.172

