@<TRIPOS>MOLECULE
BindingDB_50292719
 44 46 0 0 0
SMALL
NO_CHARGES


@<TRIPOS>ATOM
1    C        35.5087   -3.9215   13.6847  C     
2    C        36.2639   -2.8187   13.5230  C     
3    N        36.0940   -1.9768   12.4562  N     
4    C        35.0917   -2.2489   11.5882  C     
5    N        34.3440   -3.3419   11.7509  N     
6    C        34.5410   -4.1805   12.7657  C     
7    O        33.8464   -5.1812   12.8596  O     
8    O        34.8228   -1.5395   10.6272  O     
9    C        36.9659   -0.8224   12.2669  C     
10   O        38.2279   -0.9485   12.9620  O     
11   C        38.5607    0.3202   13.5262  C     
12   C        37.2059    0.9482   13.9019  C     
13   C        36.3039    0.5046   12.7368  C     
14   O        36.2848    1.4671   11.6781  O     
15   O        37.3045    2.3669   14.0567  O     
16   C        39.5873    0.2176   14.6949  C     
17   N        39.2452   -0.7474   15.7996  N     
18   C        39.7978   -0.3439   17.1389  C     
19   C        39.2669   -1.2518   18.2807  C     
20   C        39.5061   -2.7510   17.9709  C     
21   C        38.9974   -3.1267   16.5574  C     
22   C        39.5962   -2.1745   15.4903  C     
23   H        35.6510   -4.5217   14.4651  H     
24   H        36.9431   -2.6241   14.2182  H     
25   H        33.6392   -3.5341   11.1133  H     
26   H        37.2326   -0.7502   11.2060  H     
27   H        39.0183    0.9223   12.7328  H     
28   H        36.8323    0.5063   14.8299  H     
29   H        35.2759    0.3577   13.0790  H     
30   H        35.5836    2.1119   11.9142  H     
31   H        36.9223    2.5717   14.9391  H     
32   H        40.5658   -0.0375   14.2702  H     
33   H        39.6902    1.2315   15.0918  H     
34   H        38.2283   -0.7187   15.9005  H     
35   H        40.8933   -0.3733   17.1267  H     
36   H        39.5012    0.6807   17.3745  H     
37   H        39.7686   -0.9982   19.2195  H     
38   H        38.1968   -1.0741   18.4139  H     
39   H        40.5772   -2.9683   18.0388  H     
40   H        38.9908   -3.3645   18.7160  H     
41   H        39.2756   -4.1601   16.3338  H     
42   H        37.9080   -3.0541   16.5351  H     
43   H        39.1965   -2.4766   14.5180  H     
44   H        40.6854   -2.3015   15.4520  H     
@<TRIPOS>BOND
     1    1    2 2
     2    1    6 1
     3    2    3 1
     4    3    4 1
     5    9    3 1
     6    4    5 1
     7    4    8 2
     8    5    6 1
     9    6    7 2
    10    9   10 1
    11    9   13 1
    12   10   11 1
    13   11   12 1
    14   11   16 1
    15   12   13 1
    16   12   15 1
    17   13   14 1
    18   16   17 1
    19   17   18 1
    20   17   22 1
    21   18   19 1
    22   19   20 1
    23   20   21 1
    24   21   22 1
    25    1   23 1
    26    2   24 1
    27    5   25 1
    28    9   26 1
    29   11   27 1
    30   12   28 1
    31   13   29 1
    32   14   30 1
    33   15   31 1
    34   16   32 1
    35   16   33 1
    36   17   34 1
    37   18   35 1
    38   18   36 1
    39   19   37 1
    40   19   38 1
    41   20   39 1
    42   20   40 1
    43   21   41 1
    44   21   42 1
    45   22   43 1
    46   22   44 1
@<TRIPOS>PROPERTY_DATA
  Total_Score	| 5.7972
  Crash		| -0.9142
  Polar		| 5.0308
  FragIndex	| 1
  FragRMSD	| 0.233

