@<TRIPOS>MOLECULE
BindingDB_50118239
 36 37 0 0 0
SMALL
NO_CHARGES


@<TRIPOS>ATOM
1    C        36.9612   -0.6756   12.1893  C     
2    C        35.6202   -3.7830   13.7161  C     
3    C        36.3627   -2.6768   13.5034  C     
4    N        36.1396   -1.8540   12.4316  N     
5    C        35.1155   -2.1620   11.6014  C     
6    N        34.3798   -3.2564   11.8132  N     
7    C        34.6145   -4.0665   12.8435  C     
8    O        33.9268   -5.0664   12.9860  O     
9    O        34.8035   -1.4881   10.6270  O     
10   O        38.2672   -0.7550   12.7800  O     
11   C        38.4952    0.3911   13.6192  C     
12   C        37.1164    1.0090   13.9231  C     
13   C        36.2873    0.6225   12.6978  C     
14   C        39.2592   -0.0658   14.8950  C     
15   O        38.4711   -1.0160   15.6341  O     
16   O        36.3265    1.6464   11.7078  O     
17   O        37.1771    2.4180   14.1385  O     
18   P        39.1638   -1.7897   16.7890  P     
19   O        39.8199   -0.7647   17.5686  O     
20   O        38.1699   -2.4744   17.7743  O     
21   O        40.3288   -2.5950   16.1378  O     
22   P        39.9126   -3.9160   15.3948  P     
23   O        38.7836   -4.6978   16.1090  O     
24   O        41.0320   -4.7937   15.1274  O     
25   O        39.3279   -3.4807   14.0247  O     
26   H        37.1416   -0.6037   11.1133  H     
27   H        35.8004   -4.3757   14.5018  H     
28   H        37.0753   -2.4748   14.1558  H     
29   H        33.6563   -3.4727   11.2049  H     
30   H        39.1132    1.1082   13.0615  H     
31   H        36.6740    0.5443   14.8062  H     
32   H        35.2456    0.4743   12.9756  H     
33   H        40.1743   -0.5789   14.5884  H     
34   H        39.5319    0.8331   15.4679  H     
35   H        35.5283    2.1988   11.8599  H     
36   H        36.7792    2.5745   15.0234  H     
@<TRIPOS>BOND
     1    1    4 1
     2    1   10 1
     3    1   13 1
     4    2    3 2
     5    2    7 1
     6    3    4 1
     7    4    5 1
     8    5    6 1
     9    5    9 2
    10    6    7 1
    11    7    8 2
    12   10   11 1
    13   11   12 1
    14   11   14 1
    15   12   13 1
    16   12   17 1
    17   13   16 1
    18   14   15 1
    19   15   18 1
    20   18   19 2
    21   18   20 1
    22   18   21 1
    23   21   22 1
    24   22   23 1
    25   22   24 2
    26   22   25 1
    27    1   26 1
    28    2   27 1
    29    3   28 1
    30    6   29 1
    31   11   30 1
    32   12   31 1
    33   13   32 1
    34   14   33 1
    35   14   34 1
    36   16   35 1
    37   17   36 1
@<TRIPOS>PROPERTY_DATA
  Total_Score	| 5.7571
  Crash		| -0.9961
  Polar		| 6.9737
  FragIndex	| 1
  FragRMSD	| 0.703

