@<TRIPOS>MOLECULE
BindingDB_50292715
 53 55 0 0 0
SMALL
NO_CHARGES


@<TRIPOS>ATOM
1    C        35.4449   -3.9703   13.7449  C     
2    C        36.4422   -2.8490   13.7643  C     
3    N        36.0765   -1.8890   12.6118  N     
4    C        35.0758   -2.2176   11.7490  C     
5    N        34.3660   -3.3370   11.8669  N     
6    C        34.5440   -4.2433   12.8255  C     
7    O        33.9095   -5.3056   12.8491  O     
8    O        34.8122   -1.3862   10.7984  O     
9    C        36.9457   -0.8106   12.3450  C     
10   O        38.2831   -0.7791   13.0596  O     
11   C        38.5283    0.5389   13.6167  C     
12   C        37.1286    1.0855   13.9438  C     
13   C        36.2817    0.5394   12.7232  C     
14   O        36.3542    1.4751   11.6243  O     
15   O        37.1897    2.5190   14.1544  O     
16   C        39.4638    0.3440   14.9418  C     
17   N        39.8080   -0.8948   15.7161  N     
18   C        40.7551   -1.7554   14.9017  C     
19   C        41.1460   -3.1037   15.5384  C     
20   C        39.8862   -3.9828   15.8799  C     
21   C        38.8128   -3.0332   16.6395  C     
22   C        38.4398   -1.5290   16.2062  C     
23   C        39.5789   -5.0397   14.8525  C     
24   O        38.4380   -5.7990   15.0118  O     
25   O        40.1954   -5.0898   13.5933  O     
26   C        37.7988   -6.7244   14.1247  C     
27   C        38.1708   -6.7562   12.6129  C     
28   H        35.5637   -4.6782   14.4811  H     
29   H        37.3244   -2.7064   14.2508  H     
30   H        33.5771   -3.4836   11.1207  H     
31   H        37.2748   -0.8075   11.2482  H     
32   H        39.0376    1.2143   12.8752  H     
33   H        36.7160    0.6044   14.8529  H     
34   H        35.2096    0.3980   13.0462  H     
35   H        35.6029    2.0973   11.7506  H     
36   H        36.7812    2.7032   15.0325  H     
37   H        40.4388    0.8514   14.7183  H     
38   H        39.0708    0.9845   15.7471  H     
39   H        40.4452   -0.5697   16.5039  H     
40   H        40.3613   -1.9909   13.8706  H     
41   H        41.7314   -1.2006   14.6745  H     
42   H        41.8301   -3.6417   14.8722  H     
43   H        41.7208   -2.8727   16.4723  H     
44   H        40.2870   -4.6475   16.6891  H     
45   H        37.8540   -3.5869   16.5319  H     
46   H        38.9745   -3.1486   17.7095  H     
47   H        38.3636   -1.0070   17.1850  H     
48   H        37.2174   -1.4154   15.7192  H     
49   H        37.9852   -7.7225   14.5291  H     
50   H        36.7086   -6.5709   14.1341  H     
51   H        38.0499   -5.7460   12.1840  H     
52   H        37.5308   -7.4547   12.0574  H     
53   H        39.2145   -7.0893   12.5035  H     
@<TRIPOS>BOND
     1    1    2 2
     2    1    6 1
     3    2    3 1
     4    3    4 1
     5    9    3 1
     6    4    5 1
     7    4    8 2
     8    5    6 1
     9    6    7 2
    10    9   10 1
    11    9   13 1
    12   10   11 1
    13   11   12 1
    14   11   16 1
    15   12   13 1
    16   12   15 1
    17   13   14 1
    18   16   17 1
    19   17   18 1
    20   17   22 1
    21   18   19 1
    22   19   20 1
    23   20   21 1
    24   20   23 1
    25   21   22 1
    26   23   24 1
    27   23   25 2
    28   24   26 1
    29   26   27 1
    30    1   28 1
    31    2   29 1
    32    5   30 1
    33    9   31 1
    34   11   32 1
    35   12   33 1
    36   13   34 1
    37   14   35 1
    38   15   36 1
    39   16   37 1
    40   16   38 1
    41   17   39 1
    42   18   40 1
    43   18   41 1
    44   19   42 1
    45   19   43 1
    46   20   44 1
    47   21   45 1
    48   21   46 1
    49   22   47 1
    50   22   48 1
    51   26   49 1
    52   26   50 1
    53   27   51 1
    54   27   52 1
    55   27   53 1
@<TRIPOS>PROPERTY_DATA
  Total_Score	| 6.8183
  Crash		| -1.3422
  Polar		| 6.1341
  FragIndex	| 1
  FragRMSD	| 0.253

