@<TRIPOS>MOLECULE
BindingDB_50292724
 32 33 0 0 0
SMALL
NO_CHARGES


@<TRIPOS>ATOM
1    C        35.2944   -4.9862   13.6861  C     
2    C        36.0507   -3.9386   14.0574  C     
3    N        35.9930   -2.7374   13.4003  N     
4    C        35.1570   -2.6285   12.3424  C     
5    N        34.3962   -3.6657   11.9876  N     
6    C        34.4437   -4.8255   12.6401  C     
7    O        33.7080   -5.7396   12.2996  O     
8    O        35.0241   -1.6143   11.6712  O     
9    C        36.7942   -1.6481   13.9340  C     
10   O        36.6433   -0.3544   13.3354  O     
11   C        37.7401    0.4588   13.7905  C     
12   C        38.8774   -0.5037   14.2531  C     
13   C        38.3140   -1.8718   13.8087  C     
14   O        38.6829   -2.1421   12.4545  O     
15   O        39.0503   -0.3295   15.6807  O     
16   C        38.1421    1.4345   12.6604  C     
17   O        36.9935    1.9353   11.9852  O     
18   P        39.6316   -1.4771   16.5628  P     
19   O        40.2961   -0.8402   17.7951  O     
20   O        38.4709   -2.3349   17.1023  O     
21   O        40.6180   -2.3155   15.9300  O     
22   H        35.3535   -5.8511   14.1749  H     
23   H        36.6514   -4.0626   14.8418  H     
24   H        33.7828   -3.5723   11.2413  H     
25   H        36.5246   -1.5444   14.9956  H     
26   H        37.3755    1.0577   14.6334  H     
27   H        39.8227   -0.2886   13.7424  H     
28   H        38.6569   -2.6990   14.4288  H     
29   H        38.3282   -3.0349   12.2591  H     
30   H        38.7010    2.2752   13.0762  H     
31   H        38.7699    0.9236   11.9281  H     
32   H        36.3906    2.2516   12.6921  H     
@<TRIPOS>BOND
     1    1    2 2
     2    1    6 1
     3    2    3 1
     4    3    4 1
     5    9    3 1
     6    4    5 1
     7    4    8 2
     8    5    6 1
     9    6    7 2
    10    9   10 1
    11    9   13 1
    12   10   11 1
    13   11   12 1
    14   11   16 1
    15   12   13 1
    16   12   15 1
    17   13   14 1
    18   15   18 1
    19   16   17 1
    20   18   19 1
    21   18   20 1
    22   18   21 2
    23    1   22 1
    24    2   23 1
    25    5   24 1
    26    9   25 1
    27   11   26 1
    28   12   27 1
    29   13   28 1
    30   14   29 1
    31   16   30 1
    32   16   31 1
    33   17   32 1
@<TRIPOS>PROPERTY_DATA
  Total_Score	| 0.9412
  Crash		| -0.6753
  Polar		| 2.1245
  FragIndex	| 1
  FragRMSD	| 1.411

