@<TRIPOS>MOLECULE
BindingDB_50342010
 68 72 0 0 0
SMALL
NO_CHARGES


@<TRIPOS>ATOM
1    C        37.7332    1.5397   12.8899  C     
2    C        37.3538    0.3059   13.7407  C     
3    C        38.5113   -0.6305   14.1664  C     
4    C        37.7871   -1.9938   14.2738  C     
5    C        36.3363   -1.7603   13.7779  C     
6    O        36.4506   -0.5473   13.0166  O     
7    N        35.7434   -2.9115   13.1167  N     
8    C        35.1277   -2.8681   11.9130  C     
9    O        34.9627   -1.8357   11.2610  O     
10   N        34.5738   -3.9631   11.4083  N     
11   C        34.6358   -5.1396   12.0407  C     
12   O        34.0935   -6.1148   11.5437  O     
13   C        35.2165   -5.2220   13.2589  C     
14   C        35.7456   -4.1074   13.7893  C     
15   P        39.7825   -1.2167   16.3372  P     
16   O        40.8942   -0.5690   16.9850  O     
17   O        39.1657   -0.1562   15.3672  O     
18   O        40.9684   -4.8722   15.5076  O     
19   O        38.7213   -1.4596   17.4328  O     
20   O        40.3089   -2.4762   15.5747  O     
21   P        40.0244   -3.8727   16.1984  P     
22   O        38.6867   -4.3657   15.9706  O     
23   O        40.3799   -3.9209   17.6953  O     
24   O        38.2442    2.5597   13.7770  O     
25   P        38.5927    3.9447   13.1557  P     
26   O        39.0527    4.9320   14.2764  O     
27   O        37.4905    4.5071   12.4024  O     
28   O        39.7857    3.8002   12.1865  O     
29   O        35.7491    7.9136   14.7537  O     
30   C        36.2606    6.5787   14.6762  C     
31   C        37.4821    6.3956   15.6050  C     
32   C        38.2356    5.0548   15.4636  C     
33   C        39.0914    5.1324   16.7405  C     
34   O        40.2345    5.9834   16.5511  O     
35   C        38.0998    5.7570   17.7566  C     
36   O        37.0877    6.4237   16.9837  O     
37   N        37.4701    4.8541   18.6856  N     
38   C        37.7179    3.5401   18.9024  C     
39   N        37.0027    3.0585   19.9422  N     
40   C        36.2610    4.0881   20.3799  C     
41   C        35.3366    4.2088   21.4401  C     
42   N        35.0834    3.1820   22.2763  N     
43   N        34.7026    5.4017   21.6257  N     
44   C        34.9680    6.4654   20.8130  C     
45   N        35.8865    6.3730   19.8049  N     
46   C        36.5296    5.2009   19.5846  C     
47   H        38.4795    1.2712   12.1331  H     
48   H        36.8248    1.8757   12.3693  H     
49   H        36.8334    0.6693   14.6378  H     
50   H        39.2427   -0.6802   13.3524  H     
51   H        38.2939   -2.7374   13.6504  H     
52   H        37.7585   -2.3570   15.3051  H     
53   H        35.7009   -1.5468   14.6487  H     
54   H        34.0883   -3.9153   10.5722  H     
55   H        35.2404   -6.0812   13.7604  H     
56   H        36.1603   -4.1820   14.6899  H     
57   H        34.9689    7.8383   15.3495  H     
58   H        35.4610    5.8625   14.9343  H     
59   H        36.5553    6.4208   13.6324  H     
60   H        38.1611    7.2275   15.4017  H     
61   H        37.5268    4.2232   15.5892  H     
62   H        39.4600    4.1488   17.0605  H     
63   H        40.8049    5.5167   15.9012  H     
64   H        38.6271    6.5142   18.3443  H     
65   H        38.3688    2.9737   18.3461  H     
66   H        34.4474    3.2957   23.0000  H     
67   H        35.5434    2.3312   22.1599  H     
68   H        34.4770    7.3514   20.9613  H     
@<TRIPOS>BOND
     1    2    1 1
     2    1   24 1
     3    2    3 1
     4    2    6 1
     5    3    4 1
     6    3   17 1
     7    4    5 1
     8    5    6 1
     9    5    7 1
    10    7    8 1
    11    7   14 1
    12    8    9 2
    13    8   10 1
    14   10   11 1
    15   11   12 2
    16   11   13 1
    17   13   14 2
    18   15   16 2
    19   15   17 1
    20   15   19 1
    21   15   20 1
    22   18   21 1
    23   20   21 1
    24   21   22 2
    25   21   23 1
    26   24   25 1
    27   25   26 1
    28   25   27 2
    29   25   28 1
    30   32   26 1
    31   29   30 1
    32   31   30 1
    33   31   32 1
    34   31   36 1
    35   32   33 1
    36   33   34 1
    37   33   35 1
    38   35   36 1
    39   35   37 1
    40   37   38 1
    41   37   46 1
    42   38   39 2
    43   39   40 1
    44   40   41 1
    45   40   46 2
    46   41   42 1
    47   41   43 2
    48   43   44 1
    49   44   45 2
    50   45   46 1
    51    1   47 1
    52    1   48 1
    53    2   49 1
    54    3   50 1
    55    4   51 1
    56    4   52 1
    57    5   53 1
    58   10   54 1
    59   13   55 1
    60   14   56 1
    61   29   57 1
    62   30   58 1
    63   30   59 1
    64   31   60 1
    65   32   61 1
    66   33   62 1
    67   34   63 1
    68   35   64 1
    69   38   65 1
    70   42   66 1
    71   42   67 1
    72   44   68 1
@<TRIPOS>PROPERTY_DATA
  Total_Score	| 6.2817
  Crash		| -1.8802
  Polar		| 6.1730
  FragIndex	| 1
  FragRMSD	| 1.407

