@<TRIPOS>MOLECULE
BindingDB_50310540
 33 34 0 0 0
SMALL
NO_CHARGES


@<TRIPOS>ATOM
1    C        39.3217    0.3052   15.0274  C     
2    C        38.4872    0.6026   13.7598  C     
3    C        37.1043    1.2320   14.0100  C     
4    C        36.3198    0.8162   12.7585  C     
5    C        37.0300   -0.4848   12.2929  C     
6    O        38.2140   -0.6434   13.0980  O     
7    N        36.1337   -1.6297   12.3243  N     
8    C        35.1651   -1.7448   11.3912  C     
9    O        34.9664   -0.9248   10.5102  O     
10   N        34.3691   -2.7959   11.3779  N     
11   C        34.4800   -3.7890   12.2933  C     
12   C        35.4213   -3.6737   13.3040  C     
13   C        36.2313   -2.5927   13.2949  C     
14   P        39.5111   -1.4931   16.8425  P     
15   O        40.1334   -0.5752   17.7689  O     
16   O        38.6773   -0.7649   15.7505  O     
17   O        37.1448    2.6506   14.1797  O     
18   O        36.3711    1.8061   11.7290  O     
19   N        33.6815   -4.8565   12.1515  N     
20   O        38.5327   -2.3769   17.6363  O     
21   O        40.5744   -2.4205   16.2220  O     
22   H        40.3324    0.0172   14.7079  H     
23   H        39.3903    1.2110   15.6447  H     
24   H        39.0647    1.2500   13.0975  H     
25   H        36.6272    0.7729   14.8844  H     
26   H        35.2716    0.6413   13.0139  H     
27   H        37.4078   -0.3628   11.2705  H     
28   H        35.5013   -4.3695   14.0108  H     
29   H        36.9083   -2.5035   14.0234  H     
30   H        36.9302    2.8076   15.1238  H     
31   H        35.5463    2.3240   11.8218  H     
32   H        33.7322   -5.6047   12.7699  H     
33   H        33.0723   -4.8899   11.3965  H     
@<TRIPOS>BOND
     1    2    1 1
     2    1   16 1
     3    2    3 1
     4    2    6 1
     5    3    4 1
     6    3   17 1
     7    4    5 1
     8    4   18 1
     9    5    6 1
    10    5    7 1
    11    7    8 1
    12    7   13 1
    13    8    9 2
    14    8   10 1
    15   10   11 2
    16   11   12 1
    17   11   19 1
    18   12   13 2
    19   14   15 2
    20   14   16 1
    21   14   20 1
    22   14   21 1
    23    1   22 1
    24    1   23 1
    25    2   24 1
    26    3   25 1
    27    4   26 1
    28    5   27 1
    29   12   28 1
    30   13   29 1
    31   17   30 1
    32   18   31 1
    33   19   32 1
    34   19   33 1
@<TRIPOS>PROPERTY_DATA
  Total_Score	| 2.6174
  Crash		| -1.3676
  Polar		| 5.2846
  FragIndex	| 1
  FragRMSD	| 0.410

