@<TRIPOS>MOLECULE
BindingDB_50292721
 74 78 0 0 0
SMALL
NO_CHARGES


@<TRIPOS>ATOM
1    C        35.6174   -6.6035   13.8606  C     
2    C        35.4774   -5.2998   13.2208  C     
3    C        36.0138   -4.2057   13.7999  C     
4    N        35.9488   -2.9584   13.2245  N     
5    C        35.2448   -2.8141   12.0855  C     
6    O        35.0974   -1.7466   11.5101  O     
7    N        34.6736   -3.8806   11.5283  N     
8    C        34.7951   -5.1024   12.0444  C     
9    O        34.2430   -6.0218   11.4537  O     
10   C        36.6191   -1.8681   13.9119  C     
11   C        38.1441   -2.0953   13.9696  C     
12   C        38.6128   -0.8190   14.6925  C     
13   C        37.6068    0.2276   14.1149  C     
14   O        36.5752   -0.5144   13.4122  O     
15   C        38.2419    1.3032   13.1870  C     
16   O        37.8272    2.6512   13.4584  O     
17   P        36.4660    3.1508   12.9023  P     
18   O        35.3915    3.0257   13.8528  O     
19   O        36.6400    4.6443   12.5683  O     
20   O        36.1042    2.4484   11.5843  O     
21   O        38.4035   -0.8988   16.1327  O     
22   P        39.2731   -1.8331   17.0201  P     
23   O        38.3823   -2.6079   17.8557  O     
24   O        40.3758   -2.6257   16.2660  O     
25   P        40.2335   -4.1742   16.1040  P     
26   O        40.7247   -4.8347   17.2816  O     
27   O        38.7836   -4.6574   15.8516  O     
28   O        41.0813   -4.5982   14.8632  O     
29   C        42.4098   -4.0369   14.7569  C     
30   C        42.9871   -4.2960   13.3442  C     
31   C        42.3014   -3.4866   12.2126  C     
32   C        42.3816   -4.4859   11.0516  C     
33   C        42.2895   -5.8575   11.7544  C     
34   O        42.9087   -5.6952   13.0361  O     
35   N        40.9853   -6.4400   11.9567  N     
36   C        39.7574   -5.8751   11.8716  C     
37   N        38.7872   -6.7825   12.0806  N     
38   C        39.4030   -7.9464   12.3249  C     
39   C        40.7778   -7.7353   12.2697  C     
40   N        41.6463   -8.7553   12.4862  N     
41   C        41.1741  -10.0034   12.7635  C     
42   N        39.8305  -10.2329   12.8107  N     
43   C        38.9267   -9.2412   12.5936  C     
44   N        37.6133   -9.5122   12.6304  N     
45   O        43.6313   -4.3517   10.3711  O     
46   O        42.9933   -2.2386   11.9680  O     
47   P        42.3395   -1.2101   10.9947  P     
48   O        43.3538   -0.2683   10.5890  O     
49   O        41.7472   -1.8280    9.7037  O     
50   O        41.2340   -0.4100   11.7208  O     
51   O        39.9872   -0.8776   17.9915  O     
52   H        35.2721   -7.4221   13.2266  H     
53   H        35.0451   -6.6348   14.7815  H     
54   H        36.6639   -6.7995   14.1018  H     
55   H        36.4839   -4.3235   14.6714  H     
56   H        34.1422   -3.7725   10.7183  H     
57   H        36.1985   -1.8482   14.9334  H     
58   H        38.4188   -3.0074   14.4821  H     
59   H        38.5591   -2.1412   12.9464  H     
60   H        39.6576   -0.5948   14.4481  H     
61   H        37.1138    0.7486   14.9352  H     
62   H        39.3188    1.3299   13.3502  H     
63   H        38.0997    1.0417   12.1334  H     
64   H        42.4230   -2.9546   14.9178  H     
65   H        43.0711   -4.5074   15.5013  H     
66   H        44.0549   -4.0457   13.3667  H     
67   H        41.2529   -3.3097   12.4812  H     
68   H        41.5821   -4.3284   10.3357  H     
69   H        42.8749   -6.5737   11.1744  H     
70   H        39.5616   -4.8990   11.6557  H     
71   H        41.8264  -10.7704   12.9331  H     
72   H        37.3067  -10.4122   12.8137  H     
73   H        36.9690   -8.8137   12.4687  H     
74   H        43.6067   -5.0122    9.6435  H     
@<TRIPOS>BOND
     1    1    2 1
     2    2    3 2
     3    2    8 1
     4    3    4 1
     5    4    5 1
     6   10    4 1
     7    5    6 2
     8    5    7 1
     9    7    8 1
    10    8    9 2
    11   10   11 1
    12   10   14 1
    13   11   12 1
    14   12   13 1
    15   12   21 1
    16   13   14 1
    17   13   15 1
    18   15   16 1
    19   16   17 1
    20   17   18 2
    21   17   19 1
    22   17   20 1
    23   21   22 1
    24   22   23 2
    25   22   24 1
    26   22   51 1
    27   24   25 1
    28   25   26 2
    29   25   27 1
    30   25   28 1
    31   28   29 1
    32   30   29 1
    33   30   31 1
    34   30   34 1
    35   31   32 1
    36   31   46 1
    37   32   33 1
    38   32   45 1
    39   33   34 1
    40   33   35 1
    41   35   36 1
    42   35   39 1
    43   36   37 2
    44   37   38 1
    45   38   39 2
    46   38   43 1
    47   39   40 1
    48   40   41 2
    49   41   42 1
    50   42   43 2
    51   43   44 1
    52   46   47 1
    53   47   48 2
    54   47   49 1
    55   47   50 1
    56    1   52 1
    57    1   53 1
    58    1   54 1
    59    3   55 1
    60    7   56 1
    61   10   57 1
    62   11   58 1
    63   11   59 1
    64   12   60 1
    65   13   61 1
    66   15   62 1
    67   15   63 1
    68   29   64 1
    69   29   65 1
    70   30   66 1
    71   31   67 1
    72   32   68 1
    73   33   69 1
    74   36   70 1
    75   41   71 1
    76   44   72 1
    77   44   73 1
    78   45   74 1
@<TRIPOS>PROPERTY_DATA
  Total_Score	| 5.7667
  Crash		| -2.1907
  Polar		| 7.2299
  FragIndex	| 1
  FragRMSD	| 1.470

