@<TRIPOS>MOLECULE
BindingDB_50298711
 33 34 0 0 0
SMALL
NO_CHARGES


@<TRIPOS>ATOM
1    O        39.1863   -0.3095   15.9241  O     
2    C        39.7522   -0.4742   14.6323  C     
3    C        38.8346    0.1070   13.5298  C     
4    C        37.5803    0.8190   14.0832  C     
5    O        37.8995    2.1470   14.5107  O     
6    C        36.5639    0.7095   12.9341  C     
7    C        37.0485   -0.5728   12.1924  C     
8    O        38.3304   -0.9646   12.7387  O     
9    N        36.0999   -1.6748   12.2659  N     
10   C        35.0999   -1.7792   11.3629  C     
11   O        34.8764   -0.9435   10.4968  O     
12   N        34.3105   -2.8440   11.3557  N     
13   C        34.4467   -3.8434   12.2699  C     
14   N        33.6783   -4.9370   12.1627  N     
15   C        35.3909   -3.7109   13.2781  C     
16   C        36.1966   -2.6312   13.2507  C     
17   P        36.1670    3.2445   12.4950  P     
18   O        35.6633    3.9940   11.3627  O     
19   O        36.5216    1.8178   11.9905  O     
20   O        35.0550    3.2896   13.5629  O     
21   O        37.4192    4.0051   12.9805  O     
22   H        39.4427    0.5960   16.2037  H     
23   H        40.7305    0.0152   14.6039  H     
24   H        39.9043   -1.5431   14.4658  H     
25   H        39.4128    0.7794   12.8816  H     
26   H        37.2004    0.2551   14.9411  H     
27   H        37.1713    2.3960   15.1215  H     
28   H        35.5584    0.5398   13.3458  H     
29   H        37.2642   -0.3410   11.1458  H     
30   H        33.7727   -5.6753   12.7941  H     
31   H        33.0460   -4.9956   11.4215  H     
32   H        35.4781   -4.3884   13.9987  H     
33   H        36.8701   -2.5471   13.9815  H     
@<TRIPOS>BOND
     1    1    2 1
     2    3    2 1
     3    3    4 1
     4    3    8 1
     5    4    5 1
     6    4    6 1
     7    6    7 1
     8    6   19 1
     9    7    8 1
    10    7    9 1
    11    9   10 1
    12    9   16 1
    13   10   11 2
    14   10   12 1
    15   12   13 2
    16   13   14 1
    17   13   15 1
    18   15   16 2
    19   17   18 2
    20   17   19 1
    21   17   20 1
    22   17   21 1
    23    1   22 1
    24    2   23 1
    25    2   24 1
    26    3   25 1
    27    4   26 1
    28    5   27 1
    29    6   28 1
    30    7   29 1
    31   14   30 1
    32   14   31 1
    33   15   32 1
    34   16   33 1
@<TRIPOS>PROPERTY_DATA
  Total_Score	| 2.1086
  Crash		| -2.4447
  Polar		| 5.8845
  FragIndex	| 1
  FragRMSD	| 0.586

