@<TRIPOS>MOLECULE
BindingDB_50300262
 43 45 0 0 0
SMALL
NO_CHARGES


@<TRIPOS>ATOM
1    C         5.6290    3.6811   26.1118  C     
2    C         4.3662    3.1517   26.4181  C     
3    C         4.1125    2.6526   27.7024  C     
4    C         5.1117    2.7162   28.6924  C     
5    C         6.4005    3.2086   28.3735  C     
6    C         6.6888    3.7186   27.0579  C     
7    O         2.8648    2.1242   27.9173  O     
8    C         2.7232    0.7262   27.5653  C     
9    C         1.5145    0.5919   26.7468  C     
10   O         0.4477   -0.1903   27.0149  O     
11   N        -0.4701    0.0595   26.1252  N     
12   C         0.0027    0.9893   25.2827  C     
13   N         1.2386    1.3310   25.6598  N     
14   C        -0.7021    1.5546   24.1985  C     
15   C         7.9363    4.2495   26.6296  C     
16   O         8.0044    5.4549   26.3933  O     
17   C         9.1520    3.6408   26.5564  C     
18   C         9.4980    2.8223   25.3836  C     
19   C        10.0411    3.7860   27.5775  C     
20   Cl        7.5876    3.0316   29.5991  Cl    
21   C        -0.9416    2.9480   24.1578  C     
22   C        -1.6314    3.5201   23.0653  C     
23   C        -2.1100    2.7021   22.0278  C     
24   C        -1.8828    1.3154   22.0647  C     
25   C        -1.1669    0.7431   23.1368  C     
26   Cl        4.6803    2.2087   30.2597  Cl    
27   C        10.7450    3.3530   24.6480  C     
28   H         5.7401    4.0729   25.1695  H     
29   H         3.6300    3.1406   25.7103  H     
30   H         3.5787    0.3094   27.0274  H     
31   H         2.5773    0.1440   28.4858  H     
32   H         9.6635    1.7791   25.6738  H     
33   H         8.6636    2.8154   24.6703  H     
34   H        10.9301    3.3648   27.5392  H     
35   H         9.8193    4.3494   28.3704  H     
36   H        -0.5893    3.5608   24.8930  H     
37   H        -1.7754    4.5313   23.0284  H     
38   H        -2.6159    3.1171   21.2421  H     
39   H        -2.2337    0.7207   21.3097  H     
40   H        -1.0174   -0.2676   23.1508  H     
41   H        10.5780    4.3779   24.3128  H     
42   H        10.9590    2.7316   23.7750  H     
43   H        11.6179    3.3304   25.3065  H     
@<TRIPOS>BOND
     1    1    2 2
     2    1    6 1
     3    2    3 1
     4    3    4 2
     5    3    7 1
     6    4    5 1
     7    4   26 1
     8    5    6 2
     9    5   20 1
    10    6   15 1
    11    7    8 1
    12    8    9 1
    13    9   10 1
    14    9   13 2
    15   10   11 1
    16   11   12 2
    17   12   13 1
    18   12   14 1
    19   14   21 2
    20   14   25 1
    21   15   16 2
    22   15   17 1
    23   17   18 1
    24   17   19 2
    25   18   27 1
    26   21   22 1
    27   22   23 2
    28   23   24 1
    29   24   25 2
    30    1   28 1
    31    2   29 1
    32    8   30 1
    33    8   31 1
    34   18   32 1
    35   18   33 1
    36   19   34 1
    37   19   35 1
    38   21   36 1
    39   22   37 1
    40   23   38 1
    41   24   39 1
    42   25   40 1
    43   27   41 1
    44   27   42 1
    45   27   43 1
@<TRIPOS>PROPERTY_DATA
  Total_Score	| 1.3005
  Crash		| -0.7412
  Polar		| 0.0000
  FragIndex	| 1
  FragRMSD	| 0.446

