@<TRIPOS>MOLECULE
BindingDB_50186226
 62 63 0 0 0
SMALL
NO_CHARGES


@<TRIPOS>ATOM
1    C         4.2005    2.5704   27.6233  C     
2    C         4.4331    3.2092   26.3882  C     
3    C         5.6763    3.7997   26.1230  C     
4    C         6.7185    3.7961   27.0886  C     
5    C         6.4723    3.1690   28.3456  C     
6    C         5.2106    2.5615   28.6057  C     
7    Cl        4.8640    1.8059   30.0927  Cl    
8    Cl        7.6472    3.1932   29.5792  Cl    
9    C         7.9265    4.4233   26.7685  C     
10   O         7.8997    5.5583   26.3052  O     
11   C         9.0909    3.7273   26.6283  C     
12   C         9.3065    2.8766   25.4515  C     
13   C        10.0544    3.8650   27.5586  C     
14   C        10.5470    3.2625   24.6144  C     
15   C         5.6345   -3.4460   30.5114  C     
16   C         5.6555   -4.3694   29.4506  C     
17   C         4.5248   -5.1749   29.1599  C     
18   C         3.3771   -5.0160   29.9775  C     
19   C         3.3533   -4.1158   31.0675  C     
20   C         4.4973   -3.3319   31.3259  C     
21   C         4.5479   -6.1141   28.1174  C     
22   N         5.5533   -6.2647   27.2839  N     
23   O         3.6093   -6.8779   27.9205  O     
24   C         2.1331   -3.9875   31.9180  C     
25   N         1.2544   -2.9603   31.4367  N     
26   C         1.4686   -1.6493   31.5297  C     
27   C         0.5128   -0.6721   31.0292  C     
28   O         2.4299   -1.2172   32.1560  O     
29   C        -0.3882   -1.0950   29.8371  C     
30   C         0.3475   -1.6281   28.5782  C     
31   N         1.4590   -0.8411   28.1472  N     
32   C         1.4143    0.2925   27.4685  C     
33   C         2.6367    0.9179   27.0204  C     
34   O         0.3487    0.8240   27.1868  O     
35   O         2.9717    2.0274   27.8840  O     
36   H         3.7081    3.2216   25.6654  H     
37   H         5.8200    4.2339   25.1993  H     
38   H         9.4089    1.8410   25.7806  H     
39   H         8.4425    2.9156   24.7812  H     
40   H        10.9054    3.3621   27.4814  H     
41   H         9.9376    4.4538   28.3511  H     
42   H        10.5020    4.3154   24.3244  H     
43   H        10.5843    2.6549   23.7058  H     
44   H        11.4652    3.0876   25.1782  H     
45   H         6.4527   -2.8673   30.6988  H     
46   H         6.5110   -4.4447   28.9049  H     
47   H         2.5378   -5.5719   29.7902  H     
48   H         4.5080   -2.6722   32.1071  H     
49   H         5.5217   -6.9569   26.6000  H     
50   H         6.3326   -5.6873   27.3294  H     
51   H         1.5842   -4.9296   31.9025  H     
52   H         2.3976   -3.8069   32.9632  H     
53   H         0.4295   -3.2402   31.0205  H     
54   H        -0.1380   -0.3802   31.8629  H     
55   H         1.0558    0.2327   30.7272  H     
56   H        -1.0903   -1.8575   30.1755  H     
57   H        -0.9824   -0.2217   29.5424  H     
58   H         0.7185   -2.6323   28.8012  H     
59   H        -0.3660   -1.7160   27.7517  H     
60   H         2.3390   -1.2271   28.3170  H     
61   H         3.4670    0.1898   26.9792  H     
62   H         2.4732    1.3011   26.0019  H     
@<TRIPOS>BOND
     1    1    2 2
     2    1    6 1
     3    1   35 1
     4    2    3 1
     5    3    4 2
     6    4    5 1
     7    4    9 1
     8    5    6 2
     9    5    8 1
    10    6    7 1
    11    9   10 2
    12    9   11 1
    13   11   12 1
    14   11   13 2
    15   12   14 1
    16   15   16 2
    17   15   20 1
    18   16   17 1
    19   17   18 2
    20   17   21 1
    21   18   19 1
    22   19   20 2
    23   19   24 1
    24   21   22 am
    25   21   23 2
    26   24   25 1
    27   25   26 am
    28   26   27 1
    29   26   28 2
    30   27   29 1
    31   29   30 1
    32   30   31 1
    33   31   32 am
    34   32   33 1
    35   32   34 2
    36   33   35 1
    37    2   36 1
    38    3   37 1
    39   12   38 1
    40   12   39 1
    41   13   40 1
    42   13   41 1
    43   14   42 1
    44   14   43 1
    45   14   44 1
    46   15   45 1
    47   16   46 1
    48   18   47 1
    49   20   48 1
    50   22   49 1
    51   22   50 1
    52   24   51 1
    53   24   52 1
    54   25   53 1
    55   27   54 1
    56   27   55 1
    57   29   56 1
    58   29   57 1
    59   30   58 1
    60   30   59 1
    61   31   60 1
    62   33   61 1
    63   33   62 1
@<TRIPOS>PROPERTY_DATA
  Total_Score	| 1.7433
  Crash		| -1.8249
  Polar		| 1.6847
  FragIndex	| 1
  FragRMSD	| 0.370

