@<TRIPOS>MOLECULE
BindingDB_50300265
 47 49 0 0 0
SMALL
NO_CHARGES


@<TRIPOS>ATOM
1    C         5.6224    3.6762   26.1807  C     
2    C         4.4002    3.0788   26.5229  C     
3    C         4.2004    2.5349   27.8042  C     
4    C         5.2253    2.6559   28.7730  C     
5    C         6.4608    3.2759   28.4387  C     
6    C         6.6881    3.7740   27.1172  C     
7    O         3.0017    1.9357   28.1149  O     
8    C         2.7725    0.6276   27.5434  C     
9    C         1.5810    0.6838   26.6844  C     
10   O         0.4916   -0.1133   26.7504  O     
11   N        -0.3683    0.3224   25.8706  N     
12   C         0.1565    1.3885   25.2350  C     
13   N         1.3822    1.6096   25.7403  N     
14   C        -0.5002    2.2287   24.2953  C     
15   C         7.8972    4.3614   26.6936  C     
16   O         7.8785    5.4690   26.1694  O     
17   C         9.0786    3.6794   26.5940  C     
18   C         9.3342    2.8204   25.4282  C     
19   C        10.0006    3.8082   27.5706  C     
20   Cl        7.6025    3.4976   29.6847  Cl    
21   C        -1.8193    1.9431   23.8634  C     
22   C        -2.5295    2.8595   23.0658  C     
23   C        -1.9375    4.0784   22.6818  C     
24   C        -0.6171    4.3593   23.0792  C     
25   C         0.0998    3.4379   23.8628  C     
26   O        -2.6787    5.0236   22.0259  O     
27   Cl        4.9052    2.0586   30.3391  Cl    
28   C        -2.1562    5.3579   20.7316  C     
29   C        10.5743    3.2350   24.5988  C     
30   H         5.7280    4.0304   25.2235  H     
31   H         3.6491    3.0369   25.8308  H     
32   H         3.6158    0.2337   26.9689  H     
33   H         2.5826   -0.0681   28.3605  H     
34   H         9.4575    1.7841   25.7612  H     
35   H         8.4819    2.8334   24.7438  H     
36   H        10.8542    3.3011   27.5364  H     
37   H         9.8437    4.3947   28.3590  H     
38   H        -2.2917    1.0846   24.1618  H     
39   H        -3.4910    2.6537   22.7899  H     
40   H        -0.1831    5.2478   22.8211  H     
41   H         1.0508    3.6876   24.1511  H     
42   H        -1.1327    5.7514   20.8067  H     
43   H        -2.7928    6.1386   20.3024  H     
44   H        -2.1746    4.4892   20.0581  H     
45   H        10.5015    4.2866   24.2996  H     
46   H        10.6356    2.6237   23.6946  H     
47   H        11.4933    3.0924   25.1720  H     
@<TRIPOS>BOND
     1    1    2 2
     2    1    6 1
     3    2    3 1
     4    3    4 2
     5    3    7 1
     6    4    5 1
     7    4   27 1
     8    5    6 2
     9    5   20 1
    10    6   15 1
    11    7    8 1
    12    8    9 1
    13    9   10 1
    14    9   13 2
    15   10   11 1
    16   11   12 2
    17   12   13 1
    18   12   14 1
    19   14   21 2
    20   14   25 1
    21   15   16 2
    22   15   17 1
    23   17   18 1
    24   17   19 2
    25   18   29 1
    26   21   22 1
    27   22   23 2
    28   23   24 1
    29   23   26 1
    30   24   25 2
    31   26   28 1
    32    1   30 1
    33    2   31 1
    34    8   32 1
    35    8   33 1
    36   18   34 1
    37   18   35 1
    38   19   36 1
    39   19   37 1
    40   21   38 1
    41   22   39 1
    42   24   40 1
    43   25   41 1
    44   28   42 1
    45   28   43 1
    46   28   44 1
    47   29   45 1
    48   29   46 1
    49   29   47 1
@<TRIPOS>PROPERTY_DATA
  Total_Score	| 1.0489
  Crash		| -1.0472
  Polar		| 0.0000
  FragIndex	| 1
  FragRMSD	| 0.455

