@<TRIPOS>MOLECULE
BindingDB_50300266
 43 45 0 0 0
SMALL
NO_CHARGES


@<TRIPOS>ATOM
1    C         5.6233    3.6931   26.1844  C     
2    C         4.3648    3.1459   26.4625  C     
3    C         4.1067    2.5624   27.7135  C     
4    C         5.1052    2.5760   28.7112  C     
5    C         6.3821    3.1394   28.4347  C     
6    C         6.6652    3.6852   27.1463  C     
7    O         2.8631    2.0232   27.9140  O     
8    C         2.7438    0.6321   27.5508  C     
9    C         1.4251    0.4546   26.9328  C     
10   O         0.4516   -0.3862   27.3408  O     
11   N        -0.5740   -0.2177   26.5551  N     
12   C        -0.2669    0.7193   25.6375  C     
13   N         0.9855    1.1398   25.8684  N     
14   C        -1.1369    1.2332   24.6442  C     
15   C         7.9107    4.2148   26.7704  C     
16   O         7.9584    5.1632   25.9953  O     
17   C         9.1009    3.5803   26.9933  C     
18   C         9.3315    2.2396   26.4420  C     
19   C        10.0795    4.2185   27.6602  C     
20   Cl        7.5158    3.2028   29.6998  Cl    
21   C        -2.5400    1.1417   24.8070  C     
22   C        -3.4168    1.6823   23.8492  C     
23   C        -2.9066    2.3125   22.6999  C     
24   C        -1.5141    2.4149   22.5232  C     
25   C        -0.6367    1.8887   23.4918  C     
26   Cl       -3.9643    2.9396   21.5378  Cl    
27   Cl        4.7073    1.9188   30.2327  Cl    
28   C        10.0226    2.2842   25.0605  C     
29   H         5.7792    4.0680   25.2405  H     
30   H         3.6373    3.1606   25.7421  H     
31   H         3.4944    0.2958   26.8277  H     
32   H         2.8139    0.0138   28.4471  H     
33   H         9.9449    1.6528   27.1308  H     
34   H         8.3910    1.6915   26.3367  H     
35   H        10.9637    3.7870   27.8052  H     
36   H         9.9449    5.1292   28.0400  H     
37   H        -2.9404    0.7003   25.6394  H     
38   H        -4.4269    1.6142   23.9969  H     
39   H        -1.1312    2.8744   21.6931  H     
40   H         0.3717    1.9834   23.3387  H     
41   H         9.3965    2.8185   24.3419  H     
42   H        10.1828    1.2690   24.6959  H     
43   H        10.9911    2.7847   25.1301  H     
@<TRIPOS>BOND
     1    1    2 2
     2    1    6 1
     3    2    3 1
     4    3    4 2
     5    3    7 1
     6    4    5 1
     7    4   27 1
     8    5    6 2
     9    5   20 1
    10    6   15 1
    11    7    8 1
    12    8    9 1
    13    9   10 1
    14    9   13 2
    15   10   11 1
    16   11   12 2
    17   12   13 1
    18   12   14 1
    19   14   21 2
    20   14   25 1
    21   15   16 2
    22   15   17 1
    23   17   18 1
    24   17   19 2
    25   18   28 1
    26   21   22 1
    27   22   23 2
    28   23   24 1
    29   23   26 1
    30   24   25 2
    31    1   29 1
    32    2   30 1
    33    8   31 1
    34    8   32 1
    35   18   33 1
    36   18   34 1
    37   19   35 1
    38   19   36 1
    39   21   37 1
    40   22   38 1
    41   24   39 1
    42   25   40 1
    43   28   41 1
    44   28   42 1
    45   28   43 1
@<TRIPOS>PROPERTY_DATA
  Total_Score	| 1.5276
  Crash		| -0.8335
  Polar		| 0.7730
  FragIndex	| 1
  FragRMSD	| 0.577

