@<TRIPOS>MOLECULE
BindingDB_50300263
 43 45 0 0 0
SMALL
NO_CHARGES


@<TRIPOS>ATOM
1    C         5.7681    3.5172   25.9540  C     
2    C         4.4607    3.1747   26.3157  C     
3    C         4.1847    2.5808   27.5644  C     
4    C         5.2458    2.3486   28.4794  C     
5    C         6.5879    2.6511   28.1037  C     
6    C         6.8528    3.2317   26.8304  C     
7    O         2.8871    2.2320   27.8237  O     
8    C         2.5955    0.8183   27.6765  C     
9    C         1.2701    0.6750   27.0717  C     
10   O         0.1684    0.1881   27.6823  O     
11   N        -0.8017    0.2037   26.8074  N     
12   C        -0.3299    0.6916   25.6434  C     
13   N         0.9656    1.0002   25.8139  N     
14   C        -1.0497    0.7934   24.4239  C     
15   C         8.1308    3.3982   26.3352  C     
16   O         8.4730    2.5416   25.5192  O     
17   C         8.9996    4.4450   26.6159  C     
18   C         9.9898    4.8513   25.6101  C     
19   C         8.9583    5.0893   27.8044  C     
20   Cl        7.8622    2.2719   29.1756  Cl    
21   C        -0.4210    1.2928   23.2544  C     
22   C        -1.0941    1.2968   22.0188  C     
23   C        -2.4164    0.8222   21.9359  C     
24   C        -3.0681    0.3663   23.0933  C     
25   C        -2.3884    0.3452   24.3252  C     
26   F        -3.0414    0.8179   20.7860  F     
27   Cl        4.8862    1.6473   29.9839  Cl    
28   C        11.2477    3.9477   25.5772  C     
29   H         5.9320    3.9564   25.0453  H     
30   H         3.6890    3.3136   25.6558  H     
31   H         3.3150    0.2683   27.0573  H     
32   H         2.5901    0.3694   28.6714  H     
33   H         9.5413    4.8518   24.6081  H     
34   H        10.3455    5.8842   25.7796  H     
35   H         9.6174    5.8028   28.0238  H     
36   H         8.2992    4.8647   28.5046  H     
37   H         0.5453    1.6259   23.2806  H     
38   H        -0.6183    1.6380   21.1811  H     
39   H        -4.0342    0.0347   23.0411  H     
40   H        -2.8810   -0.0157   25.1471  H     
41   H        11.7030    3.8960   26.5741  H     
42   H        11.9849    4.3648   24.8847  H     
43   H        11.0069    2.9357   25.2426  H     
@<TRIPOS>BOND
     1    1    2 2
     2    1    6 1
     3    2    3 1
     4    3    4 2
     5    3    7 1
     6    4    5 1
     7    4   27 1
     8    5    6 2
     9    5   20 1
    10    6   15 1
    11    7    8 1
    12    8    9 1
    13    9   10 1
    14    9   13 2
    15   10   11 1
    16   11   12 2
    17   12   13 1
    18   12   14 1
    19   14   21 2
    20   14   25 1
    21   15   16 2
    22   15   17 1
    23   17   18 1
    24   17   19 2
    25   18   28 1
    26   21   22 1
    27   22   23 2
    28   23   24 1
    29   23   26 1
    30   24   25 2
    31    1   29 1
    32    2   30 1
    33    8   31 1
    34    8   32 1
    35   18   33 1
    36   18   34 1
    37   19   35 1
    38   19   36 1
    39   21   37 1
    40   22   38 1
    41   24   39 1
    42   25   40 1
    43   28   41 1
    44   28   42 1
    45   28   43 1
@<TRIPOS>PROPERTY_DATA
  Total_Score	| 1.6363
  Crash		| -0.8362
  Polar		| 0.9893
  FragIndex	| 1
  FragRMSD	| 1.202

