@<TRIPOS>MOLECULE
BindingDB_7000
 43 45 0 0 0
SMALL
NO_CHARGES


@<TRIPOS>ATOM
1    C        78.3759   67.1142   56.0527  C     
2    C        79.1284   67.0606   57.2439  C     
3    C        80.1691   66.1174   57.4143  C     
4    C        80.3589   65.1479   56.3926  C     
5    C        78.6094   66.1686   55.0372  C     
6    C        79.5689   65.1369   55.2145  C     
7    C        79.6810   64.1574   54.1647  C     
8    C        78.0356   65.3356   52.8735  C     
9    N        77.8953   66.2427   53.8716  N     
10   N        78.9103   64.3163   53.0597  N     
11   C        77.2426   65.4398   51.6333  C     
12   F        77.3947   64.3432   50.8178  F     
13   F        75.9103   65.5478   51.9395  F     
14   F        77.6355   66.5457   50.9220  F     
15   N        80.4803   63.0636   54.2938  N     
16   C        79.4715   61.0269   53.5096  C     
17   C        80.7324   61.9337   53.4195  C     
18   C        81.0231   62.2323   51.9133  C     
19   C        81.9535   61.1788   54.0276  C     
20   C        81.0276   66.1579   58.5625  C     
21   C        81.3846   67.3762   59.2193  C     
22   C        82.2730   67.3571   60.3191  C     
23   C        82.8250   66.1529   60.7780  C     
24   C        81.5903   64.9517   59.0513  C     
25   C        82.4882   64.9442   60.1376  C     
26   Cl       83.9078   66.1637   62.0835  Cl    
27   Cl       80.8615   68.9087   58.7063  Cl    
28   H        77.6615   67.8394   55.9272  H     
29   H        78.9393   67.7472   57.9820  H     
30   H        81.1026   64.4548   56.5026  H     
31   H        80.9555   63.0136   55.1371  H     
32   H        79.2775   60.7363   54.5441  H     
33   H        79.6145   60.1197   52.9199  H     
34   H        78.5905   61.5522   53.1314  H     
35   H        80.1551   62.6818   51.4275  H     
36   H        81.2544   61.3075   51.3761  H     
37   H        81.8711   62.9124   51.8104  H     
38   H        82.8557   61.7915   53.9648  H     
39   H        82.1343   60.2466   53.4893  H     
40   H        81.7779   60.9344   55.0778  H     
41   H        82.5455   68.2326   60.7757  H     
42   H        81.3505   64.0573   58.6116  H     
43   H        82.9005   64.0636   60.4534  H     
@<TRIPOS>BOND
     1    1    2 1
     2    1    5 2
     3    2    3 2
     4    3    4 1
     5    3   20 1
     6    4    6 2
     7    5    6 1
     8    5    9 1
     9    6    7 1
    10    7   10 2
    11    7   15 1
    12    8    9 2
    13    8   10 1
    14    8   11 1
    15   11   12 1
    16   11   13 1
    17   11   14 1
    18   15   17 1
    19   16   17 1
    20   17   18 1
    21   17   19 1
    22   20   21 1
    23   20   24 2
    24   21   22 2
    25   21   27 1
    26   22   23 1
    27   23   25 2
    28   23   26 1
    29   24   25 1
    30    1   28 1
    31    2   29 1
    32    4   30 1
    33   15   31 1
    34   16   32 1
    35   16   33 1
    36   16   34 1
    37   18   35 1
    38   18   36 1
    39   18   37 1
    40   19   38 1
    41   19   39 1
    42   19   40 1
    43   22   41 1
    44   24   42 1
    45   25   43 1
@<TRIPOS>PROPERTY_DATA
  Total_Score	| 3.3204
  Crash		| -1.2070
  Polar		| 0.0005
  FragIndex	| 1
  FragRMSD	| 0.445

