@<TRIPOS>MOLECULE
BindingDB_6988
 40 42 0 0 0
SMALL
NO_CHARGES


@<TRIPOS>ATOM
1    C        78.5766   67.1087   56.0437  C     
2    C        79.4037   67.0630   57.1774  C     
3    C        80.3393   66.0170   57.3635  C     
4    C        80.3974   65.0003   56.3762  C     
5    C        78.6627   66.1005   55.0624  C     
6    C        79.5735   65.0204   55.2203  C     
7    C        79.6101   64.0374   54.1763  C     
8    C        77.9337   65.2430   52.9622  C     
9    N        77.8777   66.1783   53.9472  N     
10   N        78.7928   64.2005   53.1049  N     
11   C        77.0675   65.3711   51.7711  C     
12   F        77.2183   64.3236   50.8953  F     
13   F        75.7475   65.4189   52.1498  F     
14   F        77.3703   66.5219   51.0870  F     
15   N        80.4459   62.9689   54.2479  N     
16   C        81.0614   62.3734   51.9234  C     
17   C        80.6220   61.8667   53.3298  C     
18   C        81.7654   60.9838   53.9092  C     
19   C        79.3219   61.0070   53.2429  C     
20   C        81.2168   66.0075   58.4937  C     
21   C        81.7150   67.1752   59.1026  C     
22   C        82.5862   65.0354   60.1795  C     
23   C        81.7125   64.8347   59.1114  C     
24   S        82.7705   66.7286   60.3850  S     
25   H        77.9209   67.8851   55.9240  H     
26   H        79.3156   67.8124   57.8664  H     
27   H        81.0828   64.2503   56.4819  H     
28   H        80.9896   62.9216   55.0493  H     
29   H        80.2667   62.9407   51.4370  H     
30   H        81.3161   61.5344   51.2674  H     
31   H        81.9392   63.0223   52.0022  H     
32   H        82.6928   61.5566   53.9972  H     
33   H        81.9555   60.1193   53.2645  H     
34   H        81.5000   60.6134   54.9027  H     
35   H        78.9975   60.7073   54.2427  H     
36   H        79.4950   60.1025   52.6522  H     
37   H        78.5134   61.5650   52.7728  H     
38   H        81.5224   68.1397   58.8289  H     
39   H        83.0392   64.3121   60.7357  H     
40   H        81.4524   63.8935   58.8117  H     
@<TRIPOS>BOND
     1    1    2 1
     2    1    5 2
     3    2    3 2
     4    3    4 1
     5    3   20 1
     6    4    6 2
     7    5    6 1
     8    5    9 1
     9    6    7 1
    10    7   10 2
    11    7   15 1
    12    8    9 2
    13    8   10 1
    14    8   11 1
    15   11   12 1
    16   11   13 1
    17   11   14 1
    18   15   17 1
    19   16   17 1
    20   17   18 1
    21   17   19 1
    22   20   21 2
    23   20   23 1
    24   21   24 1
    25   22   23 2
    26   22   24 1
    27    1   25 1
    28    2   26 1
    29    4   27 1
    30   15   28 1
    31   16   29 1
    32   16   30 1
    33   16   31 1
    34   18   32 1
    35   18   33 1
    36   18   34 1
    37   19   35 1
    38   19   36 1
    39   19   37 1
    40   21   38 1
    41   22   39 1
    42   23   40 1
@<TRIPOS>PROPERTY_DATA
  Total_Score	| 4.0158
  Crash		| -0.4355
  Polar		| 0.0000
  FragIndex	| 1
  FragRMSD	| 0.496

