@<TRIPOS>MOLECULE
BindingDB_6994
 47 49 0 0 0
SMALL
NO_CHARGES


@<TRIPOS>ATOM
1    C        78.4401   67.0763   56.0030  C     
2    C        79.2036   67.0253   57.1775  C     
3    C        80.1980   66.0261   57.3568  C     
4    C        80.3723   65.0691   56.3226  C     
5    C        78.6362   66.1305   54.9789  C     
6    C        79.5917   65.0888   55.1453  C     
7    C        79.6923   64.1294   54.0873  C     
8    C        78.0386   65.3280   52.8276  C     
9    N        77.9023   66.2329   53.8316  N     
10   N        78.9229   64.3069   52.9832  N     
11   C        77.2327   65.4564   51.6008  C     
12   F        77.4826   64.4668   50.6730  F     
13   F        75.8900   65.4084   51.9052  F     
14   F        77.4912   66.6544   50.9808  F     
15   N        80.5031   63.0458   54.2021  N     
16   C        79.2879   61.1193   53.2384  C     
17   C        80.6330   61.9068   53.3251  C     
18   C        81.1203   62.3255   51.9011  C     
19   C        81.7047   60.9655   53.9625  C     
20   C        81.0524   66.0276   58.5090  C     
21   C        81.3712   67.2406   59.1876  C     
22   C        82.2104   67.2498   60.3192  C     
23   C        82.7975   66.0512   60.7974  C     
24   C        81.6272   64.8325   59.0218  C     
25   C        82.5110   64.8475   60.1122  C     
26   O        83.6962   65.9417   61.8379  O     
27   C        83.5542   66.7746   63.0112  C     
28   H        77.7471   67.8211   55.9030  H     
29   H        79.0310   67.7229   57.9132  H     
30   H        81.1010   64.3568   56.4181  H     
31   H        81.0278   62.9978   55.0177  H     
32   H        78.9151   60.8914   54.2364  H     
33   H        79.4133   60.1817   52.6945  H     
34   H        78.5281   61.7013   52.7171  H     
35   H        80.3726   62.9276   51.3831  H     
36   H        81.3175   61.4450   51.2785  H     
37   H        82.0415   62.9101   51.9655  H     
38   H        82.6751   61.4649   54.0275  H     
39   H        81.8320   60.0535   53.3720  H     
40   H        81.4076   60.6751   54.9717  H     
41   H        81.0161   68.1343   58.8303  H     
42   H        82.4015   68.1508   60.7666  H     
43   H        81.4225   63.9213   58.5970  H     
44   H        82.9405   63.9679   60.4298  H     
45   H        83.8636   67.8042   62.7774  H     
46   H        84.2092   66.3765   63.7894  H     
47   H        82.5175   66.7676   63.3841  H     
@<TRIPOS>BOND
     1    1    2 1
     2    1    5 2
     3    2    3 2
     4    3    4 1
     5    3   20 1
     6    4    6 2
     7    5    6 1
     8    5    9 1
     9    6    7 1
    10    7   10 2
    11    7   15 1
    12    8    9 2
    13    8   10 1
    14    8   11 1
    15   11   12 1
    16   11   13 1
    17   11   14 1
    18   15   17 1
    19   16   17 1
    20   17   18 1
    21   17   19 1
    22   20   21 1
    23   20   24 2
    24   21   22 2
    25   22   23 1
    26   23   25 2
    27   23   26 1
    28   24   25 1
    29   26   27 1
    30    1   28 1
    31    2   29 1
    32    4   30 1
    33   15   31 1
    34   16   32 1
    35   16   33 1
    36   16   34 1
    37   18   35 1
    38   18   36 1
    39   18   37 1
    40   19   38 1
    41   19   39 1
    42   19   40 1
    43   21   41 1
    44   22   42 1
    45   24   43 1
    46   25   44 1
    47   27   45 1
    48   27   46 1
    49   27   47 1
@<TRIPOS>PROPERTY_DATA
  Total_Score	| 4.5986
  Crash		| -0.5862
  Polar		| 0.0000
  FragIndex	| 1
  FragRMSD	| 0.520

