@<TRIPOS>MOLECULE
BindingDB_6998
 52 55 0 0 0
SMALL
NO_CHARGES


@<TRIPOS>ATOM
1    C        78.6660   67.1234   56.0490  C     
2    C        79.4853   67.0296   57.1822  C     
3    C        80.4089   65.9669   57.4003  C     
4    C        80.4260   64.9808   56.3619  C     
5    C        78.7086   66.1249   55.0665  C     
6    C        79.5876   65.0237   55.2186  C     
7    C        79.5769   64.0334   54.1791  C     
8    C        77.9164   65.2886   52.9772  C     
9    N        77.9090   66.2227   53.9602  N     
10   N        78.7481   64.2284   53.1181  N     
11   C        77.0244   65.4144   51.8047  C     
12   F        77.1535   64.3709   50.9246  F     
13   F        75.7156   65.4356   52.2103  F     
14   F        77.3014   66.5656   51.1132  F     
15   N        80.3509   62.9130   54.2505  N     
16   C        79.1976   61.0313   53.1009  C     
17   C        80.5141   61.8465   53.2870  C     
18   C        81.0527   62.3926   51.9306  C     
19   C        81.5824   60.8795   53.8892  C     
20   C        81.2671   65.9069   58.5917  C     
21   C        81.4805   67.0192   59.4663  C     
22   C        82.3187   66.9894   60.6109  C     
23   C        82.9850   65.7800   60.9001  C     
24   C        81.9570   64.7201   58.9760  C     
25   C        82.8021   64.6566   60.0911  C     
26   C        82.4781   68.1328   61.4599  C     
27   C        82.7006   70.4254   63.0872  C     
28   C        82.6330   69.1602   63.6915  C     
29   C        82.5240   68.0200   62.8749  C     
30   C        82.5691   69.4427   60.9233  C     
31   N        82.6728   70.5224   61.7354  N     
32   H        78.0414   67.9298   55.9419  H     
33   H        79.3740   67.7861   57.8445  H     
34   H        81.0709   64.2018   56.4028  H     
35   H        80.8766   62.8226   55.0569  H     
36   H        78.8430   60.6510   54.0610  H     
37   H        79.3637   60.1776   52.4408  H     
38   H        78.4046   61.6376   52.6631  H     
39   H        80.3334   63.0597   51.4535  H     
40   H        81.2583   61.5729   51.2415  H     
41   H        81.9801   62.9494   52.0862  H     
42   H        82.5190   61.4072   54.0850  H     
43   H        81.7938   60.0562   53.2036  H     
44   H        81.2336   60.4525   54.8309  H     
45   H        81.0066   67.8960   59.2970  H     
46   H        83.6199   65.7053   61.6999  H     
47   H        81.8682   63.8545   58.4627  H     
48   H        83.2903   63.7878   60.3172  H     
49   H        82.7714   71.2734   63.6527  H     
50   H        82.6528   69.0736   64.7088  H     
51   H        82.4489   67.1087   63.3306  H     
52   H        82.5650   69.6058   59.9155  H     
@<TRIPOS>BOND
     1    1    2 1
     2    1    5 2
     3    2    3 2
     4    3    4 1
     5    3   20 1
     6    4    6 2
     7    5    6 1
     8    5    9 1
     9    6    7 1
    10    7   10 2
    11    7   15 1
    12    8    9 2
    13    8   10 1
    14    8   11 1
    15   11   12 1
    16   11   13 1
    17   11   14 1
    18   15   17 1
    19   16   17 1
    20   17   18 1
    21   17   19 1
    22   20   21 1
    23   20   24 2
    24   21   22 2
    25   22   23 1
    26   22   26 1
    27   23   25 2
    28   24   25 1
    29   26   29 1
    30   26   30 2
    31   27   28 1
    32   27   31 2
    33   28   29 2
    34   30   31 1
    35    1   32 1
    36    2   33 1
    37    4   34 1
    38   15   35 1
    39   16   36 1
    40   16   37 1
    41   16   38 1
    42   18   39 1
    43   18   40 1
    44   18   41 1
    45   19   42 1
    46   19   43 1
    47   19   44 1
    48   21   45 1
    49   23   46 1
    50   24   47 1
    51   25   48 1
    52   27   49 1
    53   28   50 1
    54   29   51 1
    55   30   52 1
@<TRIPOS>PROPERTY_DATA
  Total_Score	| 4.8972
  Crash		| -0.5774
  Polar		| 0.0000
  FragIndex	| 1
  FragRMSD	| 0.547

