@<TRIPOS>MOLECULE
BindingDB_6992
 43 45 0 0 0
SMALL
NO_CHARGES


@<TRIPOS>ATOM
1    C        78.4959   67.1074   56.0319  C     
2    C        79.2779   67.0483   57.2031  C     
3    C        80.2643   66.0412   57.3933  C     
4    C        80.3915   65.0773   56.3541  C     
5    C        78.6326   66.1258   55.0359  C     
6    C        79.5710   65.0723   55.1988  C     
7    C        79.6117   64.0781   54.1608  C     
8    C        77.9267   65.2512   52.9200  C     
9    N        77.8606   66.1879   53.9084  N     
10   N        78.7907   64.2220   53.0834  N     
11   C        77.0733   65.3753   51.7159  C     
12   F        77.2313   64.3276   50.8350  F     
13   F        75.7522   65.4170   52.0749  F     
14   F        77.3765   66.5299   51.0412  F     
15   N        80.4346   63.0045   54.2560  N     
16   C        81.7387   60.9969   53.9972  C     
17   C        80.6014   61.8672   53.3764  C     
18   C        79.2967   61.0139   53.3244  C     
19   C        81.0544   62.2975   51.9470  C     
20   C        81.1059   66.0017   58.5754  C     
21   C        81.4222   67.1765   59.3116  C     
22   C        82.2328   67.1356   60.4616  C     
23   C        82.7983   65.9273   60.8913  C     
24   C        81.6759   64.7885   59.0501  C     
25   C        82.5309   64.7544   60.1741  C     
26   H        77.8175   67.8637   55.9087  H     
27   H        79.1112   67.7507   57.9227  H     
28   H        81.1245   64.3745   56.4316  H     
29   H        80.9822   62.9889   55.0568  H     
30   H        82.6704   61.5658   54.0652  H     
31   H        81.9306   60.1052   53.3933  H     
32   H        81.4708   60.6682   55.0060  H     
33   H        78.9745   60.7473   54.3335  H     
34   H        79.4537   60.0933   52.7605  H     
35   H        78.4846   61.5656   52.8451  H     
36   H        80.2667   62.8492   51.4289  H     
37   H        81.3001   61.4234   51.3367  H     
38   H        81.9385   62.9351   51.9982  H     
39   H        81.0800   68.0843   58.9988  H     
40   H        82.4260   67.9937   60.9932  H     
41   H        83.3947   65.8976   61.7196  H     
42   H        81.4693   63.9067   58.5906  H     
43   H        82.9488   63.8707   60.4796  H     
@<TRIPOS>BOND
     1    1    2 1
     2    1    5 2
     3    2    3 2
     4    3    4 1
     5    3   20 1
     6    4    6 2
     7    5    6 1
     8    5    9 1
     9    6    7 1
    10    7   10 2
    11    7   15 1
    12    8    9 2
    13    8   10 1
    14    8   11 1
    15   11   12 1
    16   11   13 1
    17   11   14 1
    18   15   17 1
    19   16   17 1
    20   17   18 1
    21   17   19 1
    22   20   21 1
    23   20   24 2
    24   21   22 2
    25   22   23 1
    26   23   25 2
    27   24   25 1
    28    1   26 1
    29    2   27 1
    30    4   28 1
    31   15   29 1
    32   16   30 1
    33   16   31 1
    34   16   32 1
    35   18   33 1
    36   18   34 1
    37   18   35 1
    38   19   36 1
    39   19   37 1
    40   19   38 1
    41   21   39 1
    42   22   40 1
    43   23   41 1
    44   24   42 1
    45   25   43 1
@<TRIPOS>PROPERTY_DATA
  Total_Score	| 4.1998
  Crash		| -0.5395
  Polar		| 0.0000
  FragIndex	| 1
  FragRMSD	| 0.487

