@<TRIPOS>MOLECULE
BindingDB_6991
 42 44 0 0 0
SMALL
NO_CHARGES


@<TRIPOS>ATOM
1    C        78.4946   67.1376   55.9873  C     
2    C        79.2845   67.0866   57.1468  C     
3    C        80.2434   66.0586   57.3466  C     
4    C        80.3652   65.0724   56.3322  C     
5    C        78.6283   66.1475   54.9983  C     
6    C        79.5535   65.0846   55.1721  C     
7    C        79.6005   64.0763   54.1475  C     
8    C        77.9285   65.2561   52.9040  C     
9    N        77.8694   66.2115   53.8655  N     
10   N        78.7823   64.2121   53.0733  N     
11   C        77.0916   65.3711   51.6937  C     
12   F        77.2798   64.3304   50.8149  F     
13   F        75.7705   65.4043   52.0646  F     
14   F        77.3861   66.5239   51.0100  F     
15   N        80.4637   63.0270   54.2263  N     
16   C        81.8436   61.0797   53.8871  C     
17   C        80.6738   61.9309   53.3007  C     
18   C        79.3968   61.0422   53.2240  C     
19   C        81.0937   62.4144   51.8734  C     
20   C        81.0566   66.0092   58.5297  C     
21   C        81.4796   67.1883   59.1980  C     
22   C        82.2742   67.1233   60.3598  C     
23   C        82.6641   65.8668   60.8516  C     
24   C        81.4826   64.7788   59.0930  C     
25   N        82.2561   64.7457   60.2102  N     
26   H        77.8286   67.9043   55.8560  H     
27   H        79.1507   67.8239   57.8410  H     
28   H        81.0653   64.3356   56.4386  H     
29   H        81.0235   63.0110   55.0185  H     
30   H        82.7523   61.6806   53.9706  H     
31   H        82.0627   60.2190   53.2502  H     
32   H        81.5917   60.7071   54.8819  H     
33   H        79.1037   60.7024   54.2199  H     
34   H        79.5680   60.1633   52.5990  H     
35   H        78.5648   61.6031   52.7982  H     
36   H        80.2723   62.9090   51.3505  H     
37   H        81.4097   61.5678   51.2550  H     
38   H        81.9280   63.1171   51.9412  H     
39   H        81.2325   68.1129   58.8380  H     
40   H        82.5634   67.9789   60.8400  H     
41   H        83.2477   65.7894   61.6892  H     
42   H        81.2031   63.8842   58.6907  H     
@<TRIPOS>BOND
     1    1    2 1
     2    1    5 2
     3    2    3 2
     4    3    4 1
     5    3   20 1
     6    4    6 2
     7    5    6 1
     8    5    9 1
     9    6    7 1
    10    7   10 2
    11    7   15 1
    12    8    9 2
    13    8   10 1
    14    8   11 1
    15   11   12 1
    16   11   13 1
    17   11   14 1
    18   15   17 1
    19   16   17 1
    20   17   18 1
    21   17   19 1
    22   20   21 1
    23   20   24 2
    24   21   22 2
    25   22   23 1
    26   23   25 2
    27   24   25 1
    28    1   26 1
    29    2   27 1
    30    4   28 1
    31   15   29 1
    32   16   30 1
    33   16   31 1
    34   16   32 1
    35   18   33 1
    36   18   34 1
    37   18   35 1
    38   19   36 1
    39   19   37 1
    40   19   38 1
    41   21   39 1
    42   22   40 1
    43   23   41 1
    44   24   42 1
@<TRIPOS>PROPERTY_DATA
  Total_Score	| 3.8724
  Crash		| -0.4977
  Polar		| 0.0596
  FragIndex	| 1
  FragRMSD	| 0.506

