@<TRIPOS>MOLECULE
BindingDB_7002
 45 47 0 0 0
SMALL
NO_CHARGES


@<TRIPOS>ATOM
1    C        78.3419   67.0121   55.9659  C     
2    C        79.1100   66.9641   57.1383  C     
3    C        80.1445   66.0010   57.3389  C     
4    C        80.3039   65.0206   56.3053  C     
5    C        78.5392   66.0610   54.9539  C     
6    C        79.4896   65.0182   55.1393  C     
7    C        79.5827   64.0234   54.1035  C     
8    C        77.9947   65.2514   52.7906  C     
9    N        77.8260   66.1500   53.7977  N     
10   N        78.8434   64.2025   52.9726  N     
11   C        77.2077   65.4085   51.5462  C     
12   F        77.4488   64.4258   50.6124  F     
13   F        75.8592   65.4133   51.8339  F     
14   F        77.5413   66.6061   50.9634  F     
15   N        80.3595   62.9173   54.2790  N     
16   C        79.3126   60.8997   53.2676  C     
17   C        80.5834   61.8054   53.3866  C     
18   C        81.0491   62.2889   51.9744  C     
19   C        81.7364   60.9697   54.0246  C     
20   C        81.0060   66.0484   58.5111  C     
21   C        81.2338   67.2707   59.2401  C     
22   C        82.0515   67.3279   60.3750  C     
23   C        82.7146   66.1678   60.8274  C     
24   C        81.6904   64.8902   59.0133  C     
25   C        82.5394   64.9456   60.1311  C     
26   N        83.5099   66.2372   61.8993  N     
27   H        77.6365   67.7471   55.8583  H     
28   H        78.8867   67.6705   57.8396  H     
29   H        81.0409   64.3099   56.3766  H     
30   H        80.8559   62.8711   55.1161  H     
31   H        78.9187   60.6814   54.2673  H     
32   H        79.5567   59.9456   52.7825  H     
33   H        78.5267   61.3870   52.6834  H     
34   H        80.2479   62.8016   51.4363  H     
35   H        81.3683   61.4506   51.3508  H     
36   H        81.8945   62.9786   52.0547  H     
37   H        82.6198   61.5915   54.1936  H     
38   H        82.0309   60.1426   53.3791  H     
39   H        81.4196   60.5621   54.9842  H     
40   H        80.8230   68.1609   58.9338  H     
41   H        82.1690   68.2271   60.8632  H     
42   H        81.5803   63.9654   58.5744  H     
43   H        83.0201   64.0907   60.4447  H     
44   H        83.9620   65.4468   62.2263  H     
45   H        83.6246   67.0778   62.3718  H     
@<TRIPOS>BOND
     1    1    2 1
     2    1    5 2
     3    2    3 2
     4    3    4 1
     5    3   20 1
     6    4    6 2
     7    5    6 1
     8    5    9 1
     9    6    7 1
    10    7   10 2
    11    7   15 1
    12    8    9 2
    13    8   10 1
    14    8   11 1
    15   11   12 1
    16   11   13 1
    17   11   14 1
    18   15   17 1
    19   16   17 1
    20   17   18 1
    21   17   19 1
    22   20   21 1
    23   20   24 2
    24   21   22 2
    25   22   23 1
    26   23   25 2
    27   23   26 1
    28   24   25 1
    29    1   27 1
    30    2   28 1
    31    4   29 1
    32   15   30 1
    33   16   31 1
    34   16   32 1
    35   16   33 1
    36   18   34 1
    37   18   35 1
    38   18   36 1
    39   19   37 1
    40   19   38 1
    41   19   39 1
    42   21   40 1
    43   22   41 1
    44   24   42 1
    45   25   43 1
    46   26   44 1
    47   26   45 1
@<TRIPOS>PROPERTY_DATA
  Total_Score	| 4.2900
  Crash		| -0.5646
  Polar		| 0.0000
  FragIndex	| 1
  FragRMSD	| 0.506

