@<TRIPOS>MOLECULE
BindingDB_6996
 47 49 0 0 0
SMALL
NO_CHARGES


@<TRIPOS>ATOM
1    C        78.5209   67.1255   56.0650  C     
2    C        79.3066   67.0657   57.2262  C     
3    C        80.2527   66.0269   57.4761  C     
4    C        80.3232   65.0297   56.4524  C     
5    C        78.6483   66.1371   55.0798  C     
6    C        79.5578   65.0679   55.2630  C     
7    C        79.6362   64.0922   54.2113  C     
8    C        77.9693   65.2790   52.9641  C     
9    N        77.8949   66.2106   53.9465  N     
10   N        78.8322   64.2486   53.1272  N     
11   C        77.1398   65.4052   51.7493  C     
12   F        77.2806   64.3431   50.8902  F     
13   F        75.8177   65.4878   52.0997  F     
14   F        77.4909   66.5393   51.0648  F     
15   N        80.5032   63.0485   54.2802  N     
16   C        81.1245   62.4195   51.9389  C     
17   C        80.6950   61.9485   53.3632  C     
18   C        81.8648   61.1135   53.9733  C     
19   C        79.4203   61.0559   53.2885  C     
20   C        81.1009   65.9986   58.6731  C     
21   C        81.2996   67.1450   59.5032  C     
22   C        82.1509   67.1582   60.6274  C     
23   C        82.8446   65.9777   60.9633  C     
24   C        81.8140   64.8317   59.0881  C     
25   C        82.6641   64.8191   60.2047  C     
26   O        82.2741   68.3598   61.2902  O     
27   C        82.6573   68.3874   62.6785  C     
28   H        77.8678   67.9055   55.9375  H     
29   H        79.1573   67.8261   57.8800  H     
30   H        80.9442   64.2378   56.5465  H     
31   H        81.0709   63.0313   55.0634  H     
32   H        80.2990   62.8962   51.4071  H     
33   H        81.4483   61.5677   51.3339  H     
34   H        81.9480   63.1348   51.9995  H     
35   H        82.7719   61.7202   54.0476  H     
36   H        82.0856   60.2371   53.3581  H     
37   H        81.6059   60.7675   54.9773  H     
38   H        79.0878   60.7698   54.2890  H     
39   H        79.6165   60.1455   52.7181  H     
40   H        78.5992   61.5820   52.7991  H     
41   H        80.8296   68.0236   59.3145  H     
42   H        83.4851   65.9499   61.7626  H     
43   H        81.7536   63.9478   58.5924  H     
44   H        83.1690   63.9638   60.4585  H     
45   H        82.0498   67.6977   63.2773  H     
46   H        82.5092   69.3996   63.0458  H     
47   H        83.7169   68.1292   62.7824  H     
@<TRIPOS>BOND
     1    1    2 1
     2    1    5 2
     3    2    3 2
     4    3    4 1
     5    3   20 1
     6    4    6 2
     7    5    6 1
     8    5    9 1
     9    6    7 1
    10    7   10 2
    11    7   15 1
    12    8    9 2
    13    8   10 1
    14    8   11 1
    15   11   12 1
    16   11   13 1
    17   11   14 1
    18   15   17 1
    19   16   17 1
    20   17   18 1
    21   17   19 1
    22   20   21 1
    23   20   24 2
    24   21   22 2
    25   22   23 1
    26   22   26 1
    27   23   25 2
    28   24   25 1
    29   26   27 1
    30    1   28 1
    31    2   29 1
    32    4   30 1
    33   15   31 1
    34   16   32 1
    35   16   33 1
    36   16   34 1
    37   18   35 1
    38   18   36 1
    39   18   37 1
    40   19   38 1
    41   19   39 1
    42   19   40 1
    43   21   41 1
    44   23   42 1
    45   24   43 1
    46   25   44 1
    47   27   45 1
    48   27   46 1
    49   27   47 1
@<TRIPOS>PROPERTY_DATA
  Total_Score	| 4.4760
  Crash		| -0.4875
  Polar		| 0.0000
  FragIndex	| 1
  FragRMSD	| 0.453

