@<TRIPOS>MOLECULE
BindingDB_6999
 43 45 0 0 0
SMALL
NO_CHARGES


@<TRIPOS>ATOM
1    C        78.4292   67.0708   55.9652  C     
2    C        79.2054   67.0307   57.1343  C     
3    C        80.1803   66.0222   57.3443  C     
4    C        80.2962   65.0111   56.3508  C     
5    C        78.5914   66.0821   54.9787  C     
6    C        79.5052   65.0151   55.1735  C     
7    C        79.5887   64.0247   54.1325  C     
8    C        78.0050   65.2544   52.8228  C     
9    N        77.8821   66.1661   53.8197  N     
10   N        78.8451   64.2107   53.0112  N     
11   C        77.2107   65.4037   51.5903  C     
12   F        77.4199   64.3871   50.6912  F     
13   F        75.8753   65.4309   51.9046  F     
14   F        77.5430   66.5771   50.9651  F     
15   N        80.3491   62.9086   54.2731  N     
16   C        81.0863   62.3499   51.9727  C     
17   C        80.5789   61.8174   53.3498  C     
18   C        81.7008   60.9332   53.9814  C     
19   C        79.3034   60.9290   53.1670  C     
20   C        81.0398   66.0532   58.4993  C     
21   C        81.3564   67.2786   59.1414  C     
22   C        82.2228   67.3259   60.2486  C     
23   C        82.8119   66.1458   60.7333  C     
24   C        81.6325   64.8738   59.0202  C     
25   C        82.5203   64.9201   60.1120  C     
26   Cl       83.8733   66.2097   62.0520  Cl    
27   H        77.7544   67.8309   55.8356  H     
28   H        79.0553   67.7657   57.8315  H     
29   H        81.0039   64.2816   56.4637  H     
30   H        80.8114   62.8246   55.1198  H     
31   H        80.3248   62.9696   51.4944  H     
32   H        81.3215   61.5188   51.2999  H     
33   H        81.9886   62.9536   52.1082  H     
34   H        82.5979   61.5267   54.1818  H     
35   H        81.9785   60.1074   53.3225  H     
36   H        81.3574   60.5103   54.9304  H     
37   H        78.9297   60.5843   54.1347  H     
38   H        79.5368   60.0498   52.5614  H     
39   H        78.5049   61.4680   52.6580  H     
40   H        80.9827   68.1649   58.7935  H     
41   H        82.4381   68.2240   60.6851  H     
42   H        81.4291   63.9633   58.6078  H     
43   H        82.9484   64.0544   60.4486  H     
@<TRIPOS>BOND
     1    1    2 1
     2    1    5 2
     3    2    3 2
     4    3    4 1
     5    3   20 1
     6    4    6 2
     7    5    6 1
     8    5    9 1
     9    6    7 1
    10    7   10 2
    11    7   15 1
    12    8    9 2
    13    8   10 1
    14    8   11 1
    15   11   12 1
    16   11   13 1
    17   11   14 1
    18   15   17 1
    19   16   17 1
    20   17   18 1
    21   17   19 1
    22   20   21 1
    23   20   24 2
    24   21   22 2
    25   22   23 1
    26   23   25 2
    27   23   26 1
    28   24   25 1
    29    1   27 1
    30    2   28 1
    31    4   29 1
    32   15   30 1
    33   16   31 1
    34   16   32 1
    35   16   33 1
    36   18   34 1
    37   18   35 1
    38   18   36 1
    39   19   37 1
    40   19   38 1
    41   19   39 1
    42   21   40 1
    43   22   41 1
    44   24   42 1
    45   25   43 1
@<TRIPOS>PROPERTY_DATA
  Total_Score	| 3.9435
  Crash		| -0.5656
  Polar		| 0.0006
  FragIndex	| 1
  FragRMSD	| 0.503

