@<TRIPOS>MOLECULE
BindingDB_6997
 44 46 0 0 0
SMALL
NO_CHARGES


@<TRIPOS>ATOM
1    C        78.5787   67.1038   56.0230  C     
2    C        79.3738   67.0329   57.1857  C     
3    C        80.3400   66.0058   57.3794  C     
4    C        80.4364   65.0441   56.3323  C     
5    C        78.6895   66.1228   55.0280  C     
6    C        79.6113   65.0619   55.1771  C     
7    C        79.6369   64.0748   54.1329  C     
8    C        77.9372   65.2643   52.9302  C     
9    N        77.8965   66.1932   53.9193  N     
10   N        78.8020   64.2302   53.0726  N     
11   C        77.0613   65.3885   51.7401  C     
12   F        77.2271   64.3718   50.8288  F     
13   F        75.7416   65.3918   52.1255  F     
14   F        77.3181   66.5681   51.0845  F     
15   N        80.4510   62.9919   54.2127  N     
16   C        79.3132   61.0120   53.2320  C     
17   C        80.6091   61.8810   53.2991  C     
18   C        81.0339   62.3741   51.8781  C     
19   C        81.7567   60.9908   53.8733  C     
20   C        81.1867   65.9470   58.5667  C     
21   C        81.4529   67.0926   59.3710  C     
22   C        82.2467   67.0328   60.5357  C     
23   C        82.8513   65.8249   60.9098  C     
24   C        81.8074   64.7388   59.0023  C     
25   C        82.6439   64.6821   60.1349  C     
26   O        82.4253   68.1229   61.3137  O     
27   H        77.9070   67.8663   55.9077  H     
28   H        79.2173   67.7468   57.8988  H     
29   H        81.1461   64.3216   56.3984  H     
30   H        80.9967   62.9520   55.0084  H     
31   H        78.9943   60.7290   54.2364  H     
32   H        79.4822   60.1002   52.6570  H     
33   H        78.4962   61.5574   52.7572  H     
34   H        80.2389   62.9505   51.4037  H     
35   H        81.2657   61.5282   51.2250  H     
36   H        81.9207   63.0077   51.9451  H     
37   H        82.6871   61.5554   53.9463  H     
38   H        81.9393   60.1202   53.2328  H     
39   H        81.5011   60.6251   54.8681  H     
40   H        81.0717   67.9996   59.1105  H     
41   H        83.4294   65.7747   61.7475  H     
42   H        81.6472   63.8674   58.5040  H     
43   H        83.0928   63.8056   60.4040  H     
44   H        81.6267   68.1520   61.8820  H     
@<TRIPOS>BOND
     1    1    2 1
     2    1    5 2
     3    2    3 2
     4    3    4 1
     5    3   20 1
     6    4    6 2
     7    5    6 1
     8    5    9 1
     9    6    7 1
    10    7   10 2
    11    7   15 1
    12    8    9 2
    13    8   10 1
    14    8   11 1
    15   11   12 1
    16   11   13 1
    17   11   14 1
    18   15   17 1
    19   16   17 1
    20   17   18 1
    21   17   19 1
    22   20   21 1
    23   20   24 2
    24   21   22 2
    25   22   23 1
    26   22   26 1
    27   23   25 2
    28   24   25 1
    29    1   27 1
    30    2   28 1
    31    4   29 1
    32   15   30 1
    33   16   31 1
    34   16   32 1
    35   16   33 1
    36   18   34 1
    37   18   35 1
    38   18   36 1
    39   19   37 1
    40   19   38 1
    41   19   39 1
    42   21   40 1
    43   23   41 1
    44   24   42 1
    45   25   43 1
    46   26   44 1
@<TRIPOS>PROPERTY_DATA
  Total_Score	| 5.0538
  Crash		| -0.5031
  Polar		| 1.0986
  FragIndex	| 1
  FragRMSD	| 0.521

