@<TRIPOS>MOLECULE
BindingDB_6995
 44 46 0 0 0
SMALL
NO_CHARGES


@<TRIPOS>ATOM
1    C        78.5368   67.2055   55.9869  C     
2    C        79.3428   67.1612   57.1432  C     
3    C        80.2994   66.1284   57.3537  C     
4    C        80.3867   65.1263   56.3472  C     
5    C        78.6377   66.1908   55.0199  C     
6    C        79.5546   65.1218   55.1990  C     
7    C        79.5775   64.1048   54.1851  C     
8    C        77.8856   65.2789   52.9534  C     
9    N        77.8503   66.2378   53.9124  N     
10   N        78.7402   64.2381   53.1274  N     
11   C        77.0063   65.3791   51.7766  C     
12   F        77.1765   64.3309   50.9076  F     
13   F        75.6993   65.3913   52.1888  F     
14   F        77.2729   66.5414   51.0955  F     
15   N        80.4133   63.0350   54.2830  N     
16   C        81.7325   61.0424   54.0001  C     
17   C        80.5825   61.9083   53.3922  C     
18   C        79.2827   61.0477   53.3438  C     
19   C        81.0136   62.3617   51.9617  C     
20   C        81.1408   66.0950   58.5322  C     
21   C        81.4675   67.2796   59.2540  C     
22   C        82.2633   67.2433   60.4186  C     
23   C        82.8032   66.0257   60.8696  C     
24   C        81.6888   64.8769   59.0289  C     
25   C        82.5268   64.8459   60.1627  C     
26   O        83.5618   65.9733   61.9871  O     
27   H        77.8802   67.9834   55.8532  H     
28   H        79.2177   67.9000   57.8338  H     
29   H        81.0867   64.3947   56.4439  H     
30   H        80.9783   63.0206   55.0677  H     
31   H        82.6550   61.6203   54.0710  H     
32   H        81.9296   60.1611   53.3816  H     
33   H        81.4696   60.6979   55.0032  H     
34   H        78.9546   60.7793   54.3532  H     
35   H        79.4484   60.1231   52.7816  H     
36   H        78.4707   61.5911   52.8577  H     
37   H        80.2236   62.9186   51.4620  H     
38   H        81.2510   61.4956   51.3387  H     
39   H        81.8994   62.9986   52.0124  H     
40   H        81.1453   68.1891   58.9288  H     
41   H        82.4637   68.1055   60.9295  H     
42   H        81.4713   63.9871   58.5800  H     
43   H        82.9233   63.9582   60.4858  H     
44   H        83.0562   66.4755   62.6591  H     
@<TRIPOS>BOND
     1    1    2 1
     2    1    5 2
     3    2    3 2
     4    3    4 1
     5    3   20 1
     6    4    6 2
     7    5    6 1
     8    5    9 1
     9    6    7 1
    10    7   10 2
    11    7   15 1
    12    8    9 2
    13    8   10 1
    14    8   11 1
    15   11   12 1
    16   11   13 1
    17   11   14 1
    18   15   17 1
    19   16   17 1
    20   17   18 1
    21   17   19 1
    22   20   21 1
    23   20   24 2
    24   21   22 2
    25   22   23 1
    26   23   25 2
    27   23   26 1
    28   24   25 1
    29    1   27 1
    30    2   28 1
    31    4   29 1
    32   15   30 1
    33   16   31 1
    34   16   32 1
    35   16   33 1
    36   18   34 1
    37   18   35 1
    38   18   36 1
    39   19   37 1
    40   19   38 1
    41   19   39 1
    42   21   40 1
    43   22   41 1
    44   24   42 1
    45   25   43 1
    46   26   44 1
@<TRIPOS>PROPERTY_DATA
  Total_Score	| 4.1182
  Crash		| -0.6367
  Polar		| 0.0001
  FragIndex	| 1
  FragRMSD	| 0.492

