@<TRIPOS>MOLECULE
BindingDB_6993
 47 49 0 0 0
SMALL
NO_CHARGES


@<TRIPOS>ATOM
1    C        78.4455   67.1155   56.0125  C     
2    C        79.2364   67.0842   57.1747  C     
3    C        80.2583   66.1192   57.3490  C     
4    C        80.4248   65.1455   56.3283  C     
5    C        78.6365   66.1469   55.0085  C     
6    C        79.6091   65.1233   55.1717  C     
7    C        79.6799   64.1258   54.1436  C     
8    C        77.9782   65.2643   52.8950  C     
9    N        77.8809   66.1967   53.8774  N     
10   N        78.8645   64.2541   53.0630  N     
11   C        77.1657   65.3756   51.6658  C     
12   F        77.2313   64.2413   50.8864  F     
13   F        75.8462   65.5935   51.9828  F     
14   F        77.6298   66.4341   50.9197  F     
15   N        80.5106   63.0541   54.2487  N     
16   C        81.0377   62.3081   51.9336  C     
17   C        80.6289   61.8973   53.3819  C     
18   C        81.7666   61.0060   53.9769  C     
19   C        79.3051   61.0702   53.3828  C     
20   C        81.1002   66.1167   58.5128  C     
21   C        81.5512   67.3148   59.1399  C     
22   C        82.4698   67.2477   60.2143  C     
23   C        82.9148   66.0116   60.7034  C     
24   C        81.5512   64.8805   59.0404  C     
25   C        82.4605   64.8238   60.1099  C     
26   O        81.2238   68.5453   58.6226  O     
27   C        80.4319   69.3942   59.4777  C     
28   H        77.7249   67.8335   55.8999  H     
29   H        79.0491   67.7760   57.9002  H     
30   H        81.1609   64.4492   56.4285  H     
31   H        81.0768   63.0372   55.0381  H     
32   H        80.2376   62.8554   51.4324  H     
33   H        81.2617   61.4262   51.3293  H     
34   H        81.9256   62.9463   51.9518  H     
35   H        82.7196   61.5416   53.9754  H     
36   H        81.8889   60.0915   53.3917  H     
37   H        81.5377   60.7225   55.0073  H     
38   H        79.0075   60.8233   54.4051  H     
39   H        79.4268   60.1394   52.8249  H     
40   H        78.4889   61.6266   52.9193  H     
41   H        82.8370   68.1054   60.6360  H     
42   H        83.5814   65.9717   61.4812  H     
43   H        81.2288   63.9995   58.6341  H     
44   H        82.7952   63.9245   60.4545  H     
45   H        79.5242   68.8919   59.8252  H     
46   H        80.1364   70.2682   58.8971  H     
47   H        81.0005   69.7378   60.3412  H     
@<TRIPOS>BOND
     1    1    2 1
     2    1    5 2
     3    2    3 2
     4    3    4 1
     5    3   20 1
     6    4    6 2
     7    5    6 1
     8    5    9 1
     9    6    7 1
    10    7   10 2
    11    7   15 1
    12    8    9 2
    13    8   10 1
    14    8   11 1
    15   11   12 1
    16   11   13 1
    17   11   14 1
    18   15   17 1
    19   16   17 1
    20   17   18 1
    21   17   19 1
    22   20   21 1
    23   20   24 2
    24   21   22 2
    25   21   26 1
    26   22   23 1
    27   23   25 2
    28   24   25 1
    29   26   27 1
    30    1   28 1
    31    2   29 1
    32    4   30 1
    33   15   31 1
    34   16   32 1
    35   16   33 1
    36   16   34 1
    37   18   35 1
    38   18   36 1
    39   18   37 1
    40   19   38 1
    41   19   39 1
    42   19   40 1
    43   22   41 1
    44   23   42 1
    45   24   43 1
    46   25   44 1
    47   27   45 1
    48   27   46 1
    49   27   47 1
@<TRIPOS>PROPERTY_DATA
  Total_Score	| 4.6006
  Crash		| -0.5952
  Polar		| 0.0000
  FragIndex	| 1
  FragRMSD	| 0.452

