@<TRIPOS>MOLECULE
BindingDB_7003
 47 49 0 0 0
SMALL
NO_CHARGES


@<TRIPOS>ATOM
1    C        78.5164   67.1132   56.0802  C     
2    C        79.3300   67.0664   57.2233  C     
3    C        80.3187   66.0639   57.4079  C     
4    C        80.4145   65.0730   56.3879  C     
5    C        78.6362   66.1232   55.0904  C     
6    C        79.5774   65.0700   55.2396  C     
7    C        79.6174   64.0782   54.1950  C     
8    C        77.9214   65.2566   52.9872  C     
9    N        77.8533   66.1851   53.9741  N     
10   N        78.7972   64.2303   53.1261  N     
11   C        77.0582   65.3637   51.7933  C     
12   F        77.1523   64.2598   50.9761  F     
13   F        75.7423   65.4885   52.1682  F     
14   F        77.4233   66.4641   51.0567  F     
15   N        80.4203   62.9847   54.2723  N     
16   C        81.7167   60.9850   53.9324  C     
17   C        80.5816   61.8794   53.3488  C     
18   C        79.2815   61.0250   53.2319  C     
19   C        81.0188   62.3826   51.9354  C     
20   C        81.1695   66.0637   58.5799  C     
21   C        81.4778   67.2551   59.2998  C     
22   C        82.2705   67.2750   60.4812  C     
23   C        82.8347   66.0447   60.9023  C     
24   C        81.7357   64.8639   59.0802  C     
25   C        82.5751   64.8572   60.2055  C     
26   C        82.4778   68.4570   61.2111  C     
27   O        81.8949   69.4923   60.9249  O     
28   N        83.2625   68.5477   62.2664  N     
29   H        77.8409   67.8756   55.9676  H     
30   H        79.1769   67.7841   57.9332  H     
31   H        81.1278   64.3483   56.4653  H     
32   H        80.9534   62.9203   55.0801  H     
33   H        82.6414   61.5557   54.0385  H     
34   H        81.9153   60.1264   53.2864  H     
35   H        81.4363   60.6090   54.9168  H     
36   H        78.9782   60.6527   54.2133  H     
37   H        79.4417   60.1618   52.5786  H     
38   H        78.4555   61.6086   52.8197  H     
39   H        80.2167   62.9432   51.4439  H     
40   H        81.2834   61.5402   51.2828  H     
41   H        81.8925   63.0359   52.0132  H     
42   H        81.1247   68.1443   58.9444  H     
43   H        83.4262   65.9890   61.7334  H     
44   H        81.5317   63.9678   58.6391  H     
45   H        82.9858   63.9765   60.5314  H     
46   H        83.3382   69.3900   62.7412  H     
47   H        83.7660   67.7834   62.5788  H     
@<TRIPOS>BOND
     1    1    2 1
     2    1    5 2
     3    2    3 2
     4    3    4 1
     5    3   20 1
     6    4    6 2
     7    5    6 1
     8    5    9 1
     9    6    7 1
    10    7   10 2
    11    7   15 1
    12    8    9 2
    13    8   10 1
    14    8   11 1
    15   11   12 1
    16   11   13 1
    17   11   14 1
    18   15   17 1
    19   16   17 1
    20   17   18 1
    21   17   19 1
    22   20   21 1
    23   20   24 2
    24   21   22 2
    25   22   23 1
    26   22   26 1
    27   23   25 2
    28   24   25 1
    29   26   27 2
    30   26   28 am
    31    1   29 1
    32    2   30 1
    33    4   31 1
    34   15   32 1
    35   16   33 1
    36   16   34 1
    37   16   35 1
    38   18   36 1
    39   18   37 1
    40   18   38 1
    41   19   39 1
    42   19   40 1
    43   19   41 1
    44   21   42 1
    45   23   43 1
    46   24   44 1
    47   25   45 1
    48   28   46 1
    49   28   47 1
@<TRIPOS>PROPERTY_DATA
  Total_Score	| 3.8209
  Crash		| -0.4421
  Polar		| 0.0000
  FragIndex	| 1
  FragRMSD	| 0.449

