@<TRIPOS>MOLECULE
BindingDB_7001
 45 47 0 0 0
SMALL
NO_CHARGES


@<TRIPOS>ATOM
1    C        78.9616   67.0457   56.0885  C     
2    C        79.9225   66.9885   57.1115  C     
3    C        80.8427   65.9118   57.2085  C     
4    C        80.7377   64.8838   56.2283  C     
5    C        78.9001   66.0363   55.1159  C     
6    C        79.7970   64.9379   55.1700  C     
7    C        79.6773   63.9378   54.1480  C     
8    C        77.8930   65.1770   53.1347  C     
9    N        77.9899   66.1212   54.1057  N     
10   N        78.7443   64.1200   53.1765  N     
11   C        76.8794   65.3113   52.0657  C     
12   F        76.8999   64.2598   51.1713  F     
13   F        75.6192   65.3606   52.6168  F     
14   F        77.0907   66.4643   51.3484  F     
15   N        80.4717   62.8364   54.1443  N     
16   C        80.8793   62.1126   51.8102  C     
17   C        80.4786   61.6962   53.2573  C     
18   C        81.5615   60.7177   53.8134  C     
19   C        79.1020   60.9584   53.2701  C     
20   C        81.8454   65.8579   58.2437  C     
21   C        81.5935   66.3599   59.5512  C     
22   C        82.5733   66.3138   60.5679  C     
23   C        83.8245   65.7372   60.3010  C     
24   C        83.1307   65.3069   58.0101  C     
25   C        84.1025   65.2296   59.0229  C     
26   N        82.3300   66.8262   61.7876  N     
27   H        78.3094   67.8311   56.0485  H     
28   H        79.9574   67.7640   57.7766  H     
29   H        81.3660   64.0826   56.2950  H     
30   H        81.1150   62.7967   54.8690  H     
31   H        80.1277   62.7609   51.3662  H     
32   H        80.9822   61.2320   51.1742  H     
33   H        81.8307   62.6458   51.8154  H     
34   H        82.5483   61.1908   53.8266  H     
35   H        81.6288   59.8135   53.2001  H     
36   H        81.3226   60.4114   54.8360  H     
37   H        78.7908   60.7451   54.2946  H     
38   H        79.1617   60.0159   52.7245  H     
39   H        78.3304   61.5647   52.7979  H     
40   H        80.6764   66.7535   59.7824  H     
41   H        84.5406   65.6925   61.0297  H     
42   H        83.3828   64.9561   57.0898  H     
43   H        85.0105   64.8080   58.8356  H     
44   H        83.0119   66.7817   62.4782  H     
45   H        81.4780   67.2562   61.9743  H     
@<TRIPOS>BOND
     1    1    2 1
     2    1    5 2
     3    2    3 2
     4    3    4 1
     5    3   20 1
     6    4    6 2
     7    5    6 1
     8    5    9 1
     9    6    7 1
    10    7   10 2
    11    7   15 1
    12    8    9 2
    13    8   10 1
    14    8   11 1
    15   11   12 1
    16   11   13 1
    17   11   14 1
    18   15   17 1
    19   16   17 1
    20   17   18 1
    21   17   19 1
    22   20   21 1
    23   20   24 2
    24   21   22 2
    25   22   23 1
    26   22   26 1
    27   23   25 2
    28   24   25 1
    29    1   27 1
    30    2   28 1
    31    4   29 1
    32   15   30 1
    33   16   31 1
    34   16   32 1
    35   16   33 1
    36   18   34 1
    37   18   35 1
    38   18   36 1
    39   19   37 1
    40   19   38 1
    41   19   39 1
    42   21   40 1
    43   23   41 1
    44   24   42 1
    45   25   43 1
    46   26   44 1
    47   26   45 1
@<TRIPOS>PROPERTY_DATA
  Total_Score	| 4.6072
  Crash		| -0.8727
  Polar		| 1.1465
  FragIndex	| 1
  FragRMSD	| 1.334

