@<TRIPOS>MOLECULE
BindingDB_6987
 36 37 0 0 0
SMALL
NO_CHARGES


@<TRIPOS>ATOM
1    C        78.4290   67.1296   55.9090  C     
2    C        79.1631   67.0596   57.1054  C     
3    C        80.0250   65.9702   57.3744  C     
4    C        80.1478   64.9551   56.3941  C     
5    C        78.5599   66.1115   54.9475  C     
6    C        79.4319   65.0128   55.1728  C     
7    C        79.5292   64.0326   54.1288  C     
8    C        77.9400   65.2463   52.8149  C     
9    N        77.8435   66.1876   53.7875  N     
10   N        78.7798   64.1998   53.0089  N     
11   C        77.1336   65.3669   51.5865  C     
12   F        77.3194   64.3162   50.7191  F     
13   F        75.8041   65.4224   51.9103  F     
14   F        77.4671   66.5169   50.9220  F     
15   N        80.3648   62.9681   54.2418  N     
16   C        81.6748   60.9661   53.9945  C     
17   C        80.5905   61.8694   53.3291  C     
18   C        79.2921   61.0356   53.1159  C     
19   C        81.1358   62.3721   51.9558  C     
20   C        80.7505   65.9243   58.6728  C     
21   F        81.4928   64.7849   58.8748  F     
22   F        81.6081   66.9896   58.7725  F     
23   F        79.8459   65.9893   59.7076  F     
24   H        77.7992   67.9219   55.7454  H     
25   H        79.0590   67.8169   57.7861  H     
26   H        80.7628   64.1622   56.5753  H     
27   H        80.8672   62.9248   55.0715  H     
28   H        82.5892   61.5364   54.1834  H     
29   H        81.9246   60.1165   53.3574  H     
30   H        81.3119   60.5804   54.9511  H     
31   H        78.8830   60.7158   54.0785  H     
32   H        79.4965   60.1476   52.5201  H     
33   H        78.5261   61.6163   52.6010  H     
34   H        80.3901   62.9744   51.4352  H     
35   H        81.3938   61.5235   51.3124  H     
36   H        82.0359   62.9811   52.0909  H     
@<TRIPOS>BOND
     1    1    2 1
     2    1    5 2
     3    2    3 2
     4    3    4 1
     5    3   20 1
     6    4    6 2
     7    5    6 1
     8    5    9 1
     9    6    7 1
    10    7   10 2
    11    7   15 1
    12    8    9 2
    13    8   10 1
    14    8   11 1
    15   11   12 1
    16   11   13 1
    17   11   14 1
    18   15   17 1
    19   16   17 1
    20   17   18 1
    21   17   19 1
    22   20   21 1
    23   20   22 1
    24   20   23 1
    25    1   24 1
    26    2   25 1
    27    4   26 1
    28   15   27 1
    29   16   28 1
    30   16   29 1
    31   16   30 1
    32   18   31 1
    33   18   32 1
    34   18   33 1
    35   19   34 1
    36   19   35 1
    37   19   36 1
@<TRIPOS>PROPERTY_DATA
  Total_Score	| 3.5189
  Crash		| -0.4924
  Polar		| 0.0000
  FragIndex	| 1
  FragRMSD	| 0.534

