@<TRIPOS>MOLECULE
BindingDB_50028910
 60 63 0 0 0
SMALL
NO_CHARGES


@<TRIPOS>ATOM
1    C        28.9298   53.8981   21.5124  C     
2    C        27.6204   44.0515   17.2935  C     
3    C        26.8832   43.4206   16.2570  C     
4    C        29.2070   55.1195   22.1934  C     
5    N        28.9542   51.3807   21.3393  N     
6    N        28.2252   44.4588   19.6530  N     
7    C        27.6698   43.4770   18.6711  C     
8    C        28.9950   52.5847   22.2249  C     
9    C        28.3352   45.2532   17.0024  C     
10   C        28.5660   53.9311   20.1391  C     
11   C        26.7465   44.0644   15.0007  C     
12   C        29.1675   56.3536   21.4886  C     
13   C        28.5570   55.1651   19.4463  C     
14   C        28.1693   45.8979   15.7576  C     
15   C        27.3714   45.3043   14.7630  C     
16   C        28.8529   56.3621   20.1163  C     
17   C        28.1872   52.7012   19.3923  C     
18   C        29.2665   45.8742   17.9899  C     
19   Cl       29.5886   55.1291   23.8555  Cl    
20   Cl       26.1694   41.9047   16.4995  Cl    
21   C        27.8696   51.5051   20.3224  C     
22   C        29.5666   44.9268   19.1791  C     
23   Cl       25.8424   43.4123   13.7222  Cl    
24   Cl       29.4880   57.8547   22.2253  Cl    
25   C        28.9655   50.0833   22.0964  C     
26   C        28.1560   44.0906   21.1038  C     
27   C        27.7163   45.2509   22.0709  C     
28   C        29.0782   48.9052   21.1006  C     
29   C        29.0492   47.4973   21.7399  C     
30   C        27.7323   46.7004   21.5116  C     
31   H        29.8339   51.4115   20.8113  H     
32   H        27.6103   45.2628   19.5386  H     
33   H        26.6456   43.2458   18.9737  H     
34   H        28.2603   42.5584   18.6583  H     
35   H        29.9409   52.5494   22.7699  H     
36   H        28.1746   52.5551   22.9500  H     
37   H        28.3151   55.2050   18.4514  H     
38   H        28.6676   46.7738   15.5482  H     
39   H        27.2763   45.7820   13.8636  H     
40   H        28.8242   57.2491   19.5964  H     
41   H        27.3060   52.8962   18.7788  H     
42   H        29.0145   52.4354   18.7296  H     
43   H        30.2290   46.1266   17.5127  H     
44   H        28.8197   46.7984   18.3681  H     
45   H        27.7924   50.6087   19.7031  H     
46   H        26.8973   51.6541   20.8063  H     
47   H        30.1387   45.4755   19.9328  H     
48   H        30.1887   44.0811   18.8366  H     
49   H        29.8322   50.0113   22.7719  H     
50   H        28.0663   49.9885   22.7136  H     
51   H        27.4557   43.2632   21.2554  H     
52   H        29.1288   43.7186   21.4385  H     
53   H        26.6942   45.0363   22.4012  H     
54   H        28.3539   45.2163   22.9571  H     
55   H        28.2765   48.9557   20.3640  H     
56   H        30.0229   49.0145   20.5525  H     
57   H        29.8694   46.9268   21.3212  H     
58   H        29.2527   47.5681   22.8049  H     
59   H        27.5251   46.6613   20.4437  H     
60   H        26.9059   47.2525   21.9781  H     
@<TRIPOS>BOND
     1    1    4 2
     2    1    8 1
     3    1   10 1
     4    2    3 2
     5    2    7 1
     6    2    9 1
     7    3   11 1
     8    3   20 1
     9    4   12 1
    10    4   19 1
    11    5    8 1
    12    5   21 1
    13    5   25 1
    14    6    7 1
    15    6   22 1
    16    6   26 1
    17    9   14 2
    18    9   18 1
    19   10   13 2
    20   10   17 1
    21   11   15 2
    22   11   23 1
    23   12   16 2
    24   12   24 1
    25   13   16 1
    26   14   15 1
    27   17   21 1
    28   18   22 1
    29   25   28 1
    30   26   27 1
    31   27   30 1
    32   28   29 1
    33   29   30 1
    34    5   31 1
    35    6   32 1
    36    7   33 1
    37    7   34 1
    38    8   35 1
    39    8   36 1
    40   13   37 1
    41   14   38 1
    42   15   39 1
    43   16   40 1
    44   17   41 1
    45   17   42 1
    46   18   43 1
    47   18   44 1
    48   21   45 1
    49   21   46 1
    50   22   47 1
    51   22   48 1
    52   25   49 1
    53   25   50 1
    54   26   51 1
    55   26   52 1
    56   27   53 1
    57   27   54 1
    58   28   55 1
    59   28   56 1
    60   29   57 1
    61   29   58 1
    62   30   59 1
    63   30   60 1
@<TRIPOS>PROPERTY_DATA
  Total_Score	| 1.6850
  Crash		| -7.4801
  Polar		| 0.0071
  FragIndex	| 1
  FragRMSD	| 0.877

