@<TRIPOS>MOLECULE
BindingDB_50028912
 35 37 0 0 0
SMALL
NO_CHARGES


@<TRIPOS>ATOM
1    C        27.3731   44.0002   17.5897  C     
2    C        26.7313   43.5133   16.4161  C     
3    N        28.2579   43.8188   19.9878  N     
4    C        27.4052   43.2391   18.8890  C     
5    C        27.8564   45.3495   17.5938  C     
6    C        26.6612   44.3200   15.2535  C     
7    C        27.8128   46.1186   16.4117  C     
8    C        29.6854   43.3776   20.1052  C     
9    C        27.2249   45.6077   15.2525  C     
10   C        28.4005   46.0293   18.8029  C     
11   C        28.0891   45.2870   20.1204  C     
12   Cl       25.9958   41.9806   16.4163  Cl    
13   Cl       25.9170   43.8113   13.8179  Cl    
14   C        30.7733   43.8830   19.2132  C     
15   C        31.3062   43.0323   18.2392  C     
16   C        31.4688   45.0851   19.4513  C     
17   C        32.7753   45.2805   18.9524  C     
18   C        32.6456   43.1417   17.8197  C     
19   C        33.4022   44.2567   18.2192  C     
20   H        27.8426   43.4359   20.8432  H     
21   H        26.3779   43.2336   19.2626  H     
22   H        27.6691   42.1789   18.7560  H     
23   H        28.1868   47.0722   16.3948  H     
24   H        29.9774   43.5430   21.1458  H     
25   H        29.6902   42.2887   19.9844  H     
26   H        27.1902   46.1933   14.4159  H     
27   H        29.4801   46.1491   18.6861  H     
28   H        27.9741   47.0307   18.8851  H     
29   H        27.0540   45.4751   20.4009  H     
30   H        28.7047   45.6903   20.9264  H     
31   H        30.6491   42.4232   17.7757  H     
32   H        31.0365   45.8032   20.0240  H     
33   H        33.2839   46.1443   19.1517  H     
34   H        33.0468   42.4543   17.1752  H     
35   H        34.3658   44.3687   17.8912  H     
@<TRIPOS>BOND
     1    1    2 2
     2    1    4 1
     3    1    5 1
     4    2    6 1
     5    2   12 1
     6    3    4 1
     7    3    8 1
     8    3   11 1
     9    5    7 2
    10    5   10 1
    11    6    9 2
    12    6   13 1
    13    7    9 1
    14    8   14 1
    15   10   11 1
    16   14   15 2
    17   14   16 1
    18   15   18 1
    19   16   17 2
    20   17   19 1
    21   18   19 2
    22    3   20 1
    23    4   21 1
    24    4   22 1
    25    7   23 1
    26    8   24 1
    27    8   25 1
    28    9   26 1
    29   10   27 1
    30   10   28 1
    31   11   29 1
    32   11   30 1
    33   15   31 1
    34   16   32 1
    35   17   33 1
    36   18   34 1
    37   19   35 1
@<TRIPOS>PROPERTY_DATA
  Total_Score	| 4.0726
  Crash		| -5.9793
  Polar		| 2.1606
  FragIndex	| 1
  FragRMSD	| 0.264

