@<TRIPOS>MOLECULE
BindingDB_50028901
 28 29 0 0 0
SMALL
NO_CHARGES


@<TRIPOS>ATOM
1    C        27.4392   44.0430   17.7324  C     
2    C        26.8137   43.5283   16.5559  C     
3    N        28.7145   43.6961   19.8964  N     
4    C        27.7000   43.1747   18.9231  C     
5    C        27.8107   45.4128   17.7899  C     
6    C        26.6384   44.3669   15.4260  C     
7    C        27.5854   46.2389   16.6623  C     
8    C        27.0280   45.7175   15.4873  C     
9    C        28.3957   46.0448   18.9977  C     
10   Cl       26.2510   41.9212   16.4928  Cl    
11   C        28.4329   45.1164   20.2426  C     
12   Cl       25.9402   43.8208   13.9757  Cl    
13   C        30.1435   43.3665   19.5770  C     
14   C        30.6040   43.5226   18.1113  C     
15   H        28.5429   43.1655   20.7531  H     
16   H        26.7467   43.0641   19.4543  H     
17   H        28.0005   42.1731   18.6129  H     
18   H        27.8485   47.2267   16.6811  H     
19   H        26.8865   46.3427   14.6924  H     
20   H        29.4097   46.3654   18.7607  H     
21   H        27.8249   46.9403   19.2633  H     
22   H        27.4594   45.1549   20.7414  H     
23   H        29.1609   45.4967   20.9602  H     
24   H        30.8034   43.9814   20.2010  H     
25   H        30.3167   42.3304   19.8618  H     
26   H        30.1039   42.7840   17.4835  H     
27   H        31.6899   43.3461   18.0473  H     
28   H        30.3723   44.5282   17.7346  H     
@<TRIPOS>BOND
     1    1    2 2
     2    1    4 1
     3    1    5 1
     4    2    6 1
     5    2   10 1
     6    3    4 1
     7    3   11 1
     8    3   13 1
     9    5    7 2
    10    5    9 1
    11    6    8 2
    12    6   12 1
    13    7    8 1
    14    9   11 1
    15   13   14 1
    16    3   15 1
    17    4   16 1
    18    4   17 1
    19    7   18 1
    20    8   19 1
    21    9   20 1
    22    9   21 1
    23   11   22 1
    24   11   23 1
    25   13   24 1
    26   13   25 1
    27   14   26 1
    28   14   27 1
    29   14   28 1
@<TRIPOS>PROPERTY_DATA
  Total_Score	| 8.4834
  Crash		| -1.1557
  Polar		| 3.5140
  FragIndex	| 1
  FragRMSD	| 0.060

