@<TRIPOS>MOLECULE
BindingDB_50028906
 57 60 0 0 0
SMALL
NO_CHARGES


@<TRIPOS>ATOM
1    C        27.5467   44.1052   17.2527  C     
2    C        28.2821   52.0914   20.7529  C     
3    C        27.8448   53.0570   19.8010  C     
4    C        26.8158   43.4987   16.1922  C     
5    N        28.1363   44.4946   19.6331  N     
6    N        28.9394   49.7318   21.4040  N     
7    C        28.6635   50.7156   20.3141  C     
8    C        27.5162   43.5549   18.6409  C     
9    C        28.4060   52.4544   22.1205  C     
10   C        28.3202   45.2753   16.9841  C     
11   C        27.5203   54.3690   20.2260  C     
12   C        26.7444   44.1374   14.9317  C     
13   C        28.2089   45.9135   15.7315  C     
14   C        28.0664   53.7647   22.5250  C     
15   C        27.6338   54.7124   21.5829  C     
16   C        27.4152   45.3548   14.7155  C     
17   C        29.2652   45.8417   17.9994  C     
18   C        28.8896   51.4921   23.1478  C     
19   Cl       26.0605   41.9905   16.4160  Cl    
20   Cl       27.7070   52.6516   18.1491  Cl    
21   C        29.4998   44.8757   19.1786  C     
22   C        29.7075   50.3327   22.5291  C     
23   Cl       26.9919   55.5802   19.1582  Cl    
24   Cl       25.8922   43.4857   13.6153  Cl    
25   C        28.0237   44.1021   21.0704  C     
26   C        29.5061   48.4401   20.8794  C     
27   C        29.1235   47.2058   21.7251  C     
28   C        27.4249   45.2231   21.9734  C     
29   C        27.6703   46.6932   21.5131  C     
30   H        27.5819   45.3448   19.5328  H     
31   H        28.0322   49.4884   21.7953  H     
32   H        27.8337   50.3035   19.7345  H     
33   H        29.5382   50.8043   19.6631  H     
34   H        26.4709   43.4092   18.9278  H     
35   H        28.0142   42.5794   18.6575  H     
36   H        28.7337   46.7705   15.5336  H     
37   H        28.1463   54.0436   23.5039  H     
38   H        27.4061   55.6578   21.9004  H     
39   H        27.3652   45.8234   13.8119  H     
40   H        30.2374   46.0691   17.5366  H     
41   H        28.8454   46.7759   18.3758  H     
42   H        29.5234   51.9998   23.8796  H     
43   H        28.0219   51.0880   23.6790  H     
44   H        30.0994   45.3691   19.9335  H     
45   H        30.0658   44.0050   18.8434  H     
46   H        29.8934   49.5899   23.3083  H     
47   H        30.6756   50.7086   22.1787  H     
48   H        27.4133   43.2071   21.1662  H     
49   H        29.0033   43.8257   21.4833  H     
50   H        29.1490   48.2488   19.8651  H     
51   H        30.5962   48.5009   20.8129  H     
52   H        29.8126   46.4251   21.4625  H     
53   H        29.2630   47.4348   22.7799  H     
54   H        26.3479   45.0672   22.0482  H     
55   H        27.8447   45.1045   22.9742  H     
56   H        26.9841   47.3487   22.0685  H     
57   H        27.3889   46.7756   20.4620  H     
@<TRIPOS>BOND
     1    1    4 2
     2    1    8 1
     3    1   10 1
     4    2    3 2
     5    2    7 1
     6    2    9 1
     7    3   11 1
     8    3   20 1
     9    4   12 1
    10    4   19 1
    11    5    8 1
    12    5   21 1
    13    5   25 1
    14    6    7 1
    15    6   22 1
    16    6   26 1
    17    9   14 2
    18    9   18 1
    19   10   13 2
    20   10   17 1
    21   11   15 2
    22   11   23 1
    23   12   16 2
    24   12   24 1
    25   13   16 1
    26   14   15 1
    27   17   21 1
    28   18   22 1
    29   25   28 1
    30   26   27 1
    31   27   29 1
    32   28   29 1
    33    5   30 1
    34    6   31 1
    35    7   32 1
    36    7   33 1
    37    8   34 1
    38    8   35 1
    39   13   36 1
    40   14   37 1
    41   15   38 1
    42   16   39 1
    43   17   40 1
    44   17   41 1
    45   18   42 1
    46   18   43 1
    47   21   44 1
    48   21   45 1
    49   22   46 1
    50   22   47 1
    51   25   48 1
    52   25   49 1
    53   26   50 1
    54   26   51 1
    55   27   52 1
    56   27   53 1
    57   28   54 1
    58   28   55 1
    59   29   56 1
    60   29   57 1
@<TRIPOS>PROPERTY_DATA
  Total_Score	| 2.4010
  Crash		| -9.2213
  Polar		| 1.4250
  FragIndex	| 1
  FragRMSD	| 0.895

