@<TRIPOS>MOLECULE
BindingDB_50028909
 31 32 0 0 0
SMALL
NO_CHARGES


@<TRIPOS>ATOM
1    C        27.4472   44.0395   17.7505  C     
2    C        26.8180   43.5327   16.5683  C     
3    N        28.6257   43.7115   19.9489  N     
4    C        27.6499   43.1768   18.9504  C     
5    C        27.7610   45.4227   17.8285  C     
6    C        26.6780   44.3647   15.4270  C     
7    C        27.5780   46.2463   16.6917  C     
8    C        27.0664   45.7180   15.4988  C     
9    C        28.3313   46.0445   19.0551  C     
10   Cl       26.2294   41.9363   16.5047  Cl    
11   C        28.2858   45.1206   20.2947  C     
12   Cl       26.0284   43.8139   13.9539  Cl    
13   N        31.9330   43.0084   18.0738  N     
14   C        30.0836   43.4629   19.6689  C     
15   C        30.5745   43.5905   18.2057  C     
16   H        28.4644   43.1756   20.7990  H     
17   H        26.6745   43.0612   19.4433  H     
18   H        27.9626   42.1767   18.6556  H     
19   H        27.8215   47.2419   16.7204  H     
20   H        26.9525   46.3377   14.6870  H     
21   H        29.3639   46.3284   18.8537  H     
22   H        27.7863   46.9575   19.2858  H     
23   H        27.2805   45.1401   20.7203  H     
24   H        28.9531   45.5009   21.0684  H     
25   H        32.5775   43.5043   18.7046  H     
26   H        32.2219   43.1253   17.0926  H     
27   H        31.9058   42.0042   18.3186  H     
28   H        30.6983   44.1091   20.3022  H     
29   H        30.3086   42.4347   19.9702  H     
30   H        30.6012   44.6515   17.8922  H     
31   H        29.9123   43.0498   17.5238  H     
@<TRIPOS>BOND
     1    1    2 2
     2    1    4 1
     3    1    5 1
     4    2    6 1
     5    2   10 1
     6    3    4 1
     7    3   11 1
     8    3   14 1
     9    5    7 2
    10    5    9 1
    11    6    8 2
    12    6   12 1
    13    7    8 1
    14    9   11 1
    15   13   15 1
    16   14   15 1
    17    3   16 1
    18    4   17 1
    19    4   18 1
    20    7   19 1
    21    8   20 1
    22    9   21 1
    23    9   22 1
    24   11   23 1
    25   11   24 1
    26   13   25 1
    27   13   26 1
    28   13   27 1
    29   14   28 1
    30   14   29 1
    31   15   30 1
    32   15   31 1
@<TRIPOS>PROPERTY_DATA
  Total_Score	| 10.5797
  Crash		| -1.1985
  Polar		| 5.5161
  FragIndex	| 1
  FragRMSD	| 0.078

