@<TRIPOS>MOLECULE
BindingDB_50313461
 33 34 0 0 0
SMALL
NO_CHARGES


@<TRIPOS>ATOM
1    N        13.9318  -17.1083    3.9433  N     
2    C        15.1573  -17.6605    3.7079  C     
3    C        15.6665  -17.6028    2.3831  C     
4    C        14.8859  -16.9993    1.3707  C     
5    N        13.6841  -16.4639    1.6928  N     
6    C        13.2027  -16.5106    2.9654  C     
7    C        12.0293  -16.0174    3.2331  C     
8    N        10.9880  -15.5848    3.4597  N     
9    C        15.8521  -18.2821    4.7896  C     
10   C        15.3835  -16.8759   -0.0133  C     
11   C        14.5522  -16.0088   -1.0024  C     
12   C        13.2097  -16.6472   -1.4189  C     
13   C        15.1767  -19.1563    5.6794  C     
14   C        15.8546  -19.8726    6.6967  C     
15   C        17.2463  -19.6614    6.8410  C     
16   C        17.9356  -18.7779    5.9936  C     
17   C        17.2428  -18.0923    4.9838  C     
18   C        15.0949  -20.8175    7.5631  C     
19   F        15.8649  -21.5746    8.4160  F     
20   F        14.2028  -20.1193    8.3411  F     
21   F        14.3941  -21.7108    6.7894  F     
22   H        16.5906  -17.9838    2.1566  H     
23   H        16.3757  -16.4186    0.0507  H     
24   H        15.5176  -17.8731   -0.4423  H     
25   H        14.3491  -15.0283   -0.5625  H     
26   H        15.1531  -15.8355   -1.9078  H     
27   H        13.3888  -17.6340   -1.8502  H     
28   H        12.7185  -16.0257   -2.1747  H     
29   H        12.5416  -16.7479   -0.5608  H     
30   H        14.1651  -19.2923    5.5731  H     
31   H        17.7768  -20.1562    7.5677  H     
32   H        18.9382  -18.6580    6.0962  H     
33   H        17.7740  -17.4865    4.3551  H     
@<TRIPOS>BOND
     1    1    2 2
     2    1    6 1
     3    2    3 1
     4    2    9 1
     5    3    4 2
     6    4    5 1
     7    4   10 1
     8    5    6 2
     9    6    7 1
    10    7    8 3
    11    9   13 2
    12    9   17 1
    13   10   11 1
    14   11   12 1
    15   13   14 1
    16   14   15 2
    17   14   18 1
    18   15   16 1
    19   16   17 2
    20   18   19 1
    21   18   20 1
    22   18   21 1
    23    3   22 1
    24   10   23 1
    25   10   24 1
    26   11   25 1
    27   11   26 1
    28   12   27 1
    29   12   28 1
    30   12   29 1
    31   13   30 1
    32   15   31 1
    33   16   32 1
    34   17   33 1
@<TRIPOS>PROPERTY_DATA
  Total_Score	| 0.4212
  Crash		| -0.2516
  Polar		| 0.0006
  FragIndex	| 1
  FragRMSD	| 0.148

