@<TRIPOS>MOLECULE
BindingDB_50328888
 46 47 0 0 0
SMALL
NO_CHARGES


@<TRIPOS>ATOM
1    C        16.0675  -19.7472    6.7331  C     
2    C        17.4320  -19.3911    6.9392  C     
3    C        18.0554  -18.4339    6.1148  C     
4    C        17.3438  -17.8185    5.0747  C     
5    C        15.9738  -18.1194    4.8791  C     
6    C        15.3492  -19.0619    5.7259  C     
7    C        15.3836  -20.7668    7.5660  C     
8    F        14.6049  -21.5823    6.7793  F     
9    F        14.5802  -20.1481    8.4979  F     
10   F        16.2350  -21.5994    8.2572  F     
11   C        15.2501  -17.5199    3.8338  C     
12   C        15.6815  -17.6391    2.4922  C     
13   C        14.8603  -17.1057    1.4673  C     
14   N        13.6736  -16.5225    1.8167  N     
15   C        13.2766  -16.4025    3.1079  C     
16   N        14.0547  -16.9144    4.1016  N     
17   C        12.1133  -15.9019    3.3655  C     
18   N        11.0602  -15.5021    3.5845  N     
19   C        15.1576  -17.4095    0.0398  C     
20   C        14.0351  -17.1433   -1.0104  C     
21   C        13.8859  -15.6483   -1.4185  C     
22   N        13.1394  -15.4620   -2.6926  N     
23   C        11.6531  -15.3859   -2.6362  C     
24   C        11.1068  -13.9477   -2.4554  C     
25   O         9.7451  -14.0044   -1.9722  O     
26   C         9.2453  -12.7279   -1.5421  C     
27   H        17.9723  -19.8172    7.6927  H     
28   H        19.0336  -18.1857    6.2780  H     
29   H        17.8188  -17.1396    4.4775  H     
30   H        14.3608  -19.2723    5.5827  H     
31   H        16.5255  -18.1735    2.2653  H     
32   H        16.0857  -16.8950   -0.2631  H     
33   H        15.3786  -18.4901    0.0146  H     
34   H        14.2562  -17.7195   -1.9256  H     
35   H        13.0698  -17.5043   -0.6324  H     
36   H        13.4202  -15.0877   -0.6042  H     
37   H        14.8928  -15.2417   -1.5892  H     
38   H        13.3868  -16.2162   -3.3346  H     
39   H        13.4595  -14.5866   -3.1201  H     
40   H        11.2857  -15.7787   -3.5955  H     
41   H        11.2746  -16.0501   -1.8509  H     
42   H        11.7647  -13.4055   -1.7635  H     
43   H        11.1274  -13.4442   -3.4302  H     
44   H         9.8400  -12.3337   -0.7190  H     
45   H         8.2175  -12.8649   -1.2075  H     
46   H         9.2440  -11.9988   -2.3612  H     
@<TRIPOS>BOND
     1   12   13 1
     2    1    2 2
     3   13   14 2
     4    1    7 1
     5   14   15 1
     6    3    4 2
     7   15   16 2
     8   16   11 1
     9    7    8 1
    10   15   17 1
    11   17   18 3
    12    7    9 1
    13   13   19 1
    14    4    5 1
    15   19   20 1
    16    7   10 1
    17   20   21 1
    18    2    3 1
    19   21   22 1
    20    5   11 1
    21   22   23 1
    22    5    6 2
    23   23   24 1
    24   11   12 2
    25   24   25 1
    26    6    1 1
    27   25   26 1
    28    2   27 1
    29    3   28 1
    30    4   29 1
    31    6   30 1
    32   12   31 1
    33   19   32 1
    34   19   33 1
    35   20   34 1
    36   20   35 1
    37   21   36 1
    38   21   37 1
    39   22   38 1
    40   22   39 1
    41   23   40 1
    42   23   41 1
    43   24   42 1
    44   24   43 1
    45   26   44 1
    46   26   45 1
    47   26   46 1
@<TRIPOS>PROPERTY_DATA
  Total_Score	| 0.2889
  Crash		| -0.5604
  Polar		| 0.0028
  FragIndex	| 1
  FragRMSD	| 0.634

