@<TRIPOS>MOLECULE
BindingDB_50313478
 48 49 0 0 0
SMALL
NO_CHARGES


@<TRIPOS>ATOM
1    N        13.7443  -17.0960    3.9859  N     
2    C        14.9090  -17.7200    3.6569  C     
3    C        15.2481  -17.8461    2.2909  C     
4    C        14.3638  -17.3259    1.3205  C     
5    N        13.2231  -16.7172    1.7427  N     
6    C        12.9113  -16.5774    3.0515  C     
7    C        11.8006  -16.0102    3.3997  C     
8    N        10.8177  -15.5104    3.7150  N     
9    C        15.6793  -18.3165    4.6887  C     
10   C        14.5433  -17.5583   -0.1317  C     
11   C        14.9153  -16.3083   -0.9716  C     
12   C        13.9147  -15.1206   -0.9474  C     
13   C        15.0530  -19.1556    5.6463  C     
14   C        15.7949  -19.8343    6.6443  C     
15   C        17.1947  -19.6083    6.7098  C     
16   C        17.8287  -18.7674    5.7723  C     
17   C        17.0812  -18.1398    4.7621  C     
18   C        15.0918  -20.7825    7.5605  C     
19   F        15.9113  -21.4380    8.4528  F     
20   F        14.1485  -20.1089    8.3038  F     
21   F        14.4458  -21.7505    6.8248  F     
22   N        12.4989  -15.5310   -1.1491  N     
23   C        11.4327  -14.4959   -1.3559  C     
24   C        10.0854  -15.1509   -0.9047  C     
25   C        11.6419  -13.1880   -0.5135  C     
26   C        11.3581  -14.1460   -2.8764  C     
27   H        16.0856  -18.3605    2.0064  H     
28   H        15.3290  -18.3063   -0.2907  H     
29   H        13.6237  -17.9961   -0.5253  H     
30   H        15.8937  -15.9453   -0.6408  H     
31   H        15.0336  -16.6336   -2.0108  H     
32   H        13.9992  -14.6072    0.0166  H     
33   H        14.2170  -14.4204   -1.7309  H     
34   H        14.0420  -19.3135    5.5892  H     
35   H        17.7659  -20.0669    7.4244  H     
36   H        18.8430  -18.6221    5.8163  H     
37   H        17.5641  -17.5406    4.0873  H     
38   H        12.4743  -16.1638   -1.9535  H     
39   H        12.2362  -16.0766   -0.3239  H     
40   H         9.8792  -16.0673   -1.4690  H     
41   H         9.2486  -14.4618   -1.0498  H     
42   H        10.1280  -15.4123    0.1559  H     
43   H        11.7586  -13.4219    0.5459  H     
44   H        10.7870  -12.5120   -0.6174  H     
45   H        12.5340  -12.6535   -0.8490  H     
46   H        12.3110  -13.7452   -3.2316  H     
47   H        10.5820  -13.3999   -3.0713  H     
48   H        11.1297  -15.0419   -3.4643  H     
@<TRIPOS>BOND
     1    1    2 2
     2    1    6 1
     3    2    3 1
     4    2    9 1
     5    3    4 2
     6    4    5 1
     7    4   10 1
     8    5    6 2
     9    6    7 1
    10    7    8 3
    11    9   13 2
    12    9   17 1
    13   10   11 1
    14   11   12 1
    15   12   22 1
    16   13   14 1
    17   14   15 2
    18   14   18 1
    19   15   16 1
    20   16   17 2
    21   18   19 1
    22   18   20 1
    23   18   21 1
    24   22   23 1
    25   23   24 1
    26   23   25 1
    27   23   26 1
    28    3   27 1
    29   10   28 1
    30   10   29 1
    31   11   30 1
    32   11   31 1
    33   12   32 1
    34   12   33 1
    35   13   34 1
    36   15   35 1
    37   16   36 1
    38   17   37 1
    39   22   38 1
    40   22   39 1
    41   24   40 1
    42   24   41 1
    43   24   42 1
    44   25   43 1
    45   25   44 1
    46   25   45 1
    47   26   46 1
    48   26   47 1
    49   26   48 1
@<TRIPOS>PROPERTY_DATA
  Total_Score	| 1.1309
  Crash		| -0.5921
  Polar		| 0.0035
  FragIndex	| 1
  FragRMSD	| 0.669

