@<TRIPOS>MOLECULE
BindingDB_50328883
 49 50 0 0 0
SMALL
NO_CHARGES


@<TRIPOS>ATOM
1    C        15.7630  -19.8897    6.6681  C     
2    C        17.1492  -19.6621    6.8282  C     
3    C        17.8402  -18.8049    5.9576  C     
4    C        17.1577  -18.1570    4.9115  C     
5    C        15.7660  -18.3442    4.7252  C     
6    C        15.0917  -19.2124    5.6175  C     
7    C        14.9946  -20.8078    7.5601  C     
8    F        14.4188  -21.8062    6.8092  F     
9    F        13.9939  -20.1122    8.1974  F     
10   F        15.7418  -21.4212    8.5430  F     
11   C        15.0420  -17.6742    3.6928  C     
12   C        15.5288  -17.5079    2.3718  C     
13   C        14.7391  -16.8162    1.4218  C     
14   N        13.5253  -16.3376    1.8162  N     
15   C        13.0498  -16.5071    3.0750  C     
16   N        13.8139  -17.1631    3.9884  N     
17   C        11.9005  -16.0027    3.4007  C     
18   N        10.8861  -15.5486    3.6909  N     
19   C        15.2350  -16.5858    0.0369  C     
20   C        14.2773  -15.8088   -0.9110  C     
21   C        13.1358  -16.5648   -1.4195  C     
22   O        13.2835  -17.7613   -1.6230  O     
23   N        12.0039  -16.0726   -1.9084  N     
24   C        11.4883  -14.7281   -1.9229  C     
25   C        11.4899  -14.1668   -3.3762  C     
26   C        10.0990  -14.7386   -1.2097  C     
27   C        10.5087  -14.8416   -4.3609  C     
28   C         9.2581  -13.4416   -1.3129  C     
29   H        17.6738  -20.1226    7.5789  H     
30   H        18.8421  -18.6482    6.0875  H     
31   H        17.6808  -17.5265    4.3015  H     
32   H        14.0883  -19.3813    5.4938  H     
33   H        16.4367  -17.8973    2.1015  H     
34   H        16.1619  -16.0116    0.1211  H     
35   H        15.4753  -17.5511   -0.4044  H     
36   H        14.8497  -15.4739   -1.7808  H     
37   H        13.9476  -14.9144   -0.3843  H     
38   H        11.4311  -16.7303   -2.3304  H     
39   H        12.1271  -14.0574   -1.3367  H     
40   H        12.5015  -14.2727   -3.7835  H     
41   H        11.2718  -13.0975   -3.3437  H     
42   H         9.4984  -15.5590   -1.6131  H     
43   H        10.2563  -14.9532   -0.1511  H     
44   H        10.7428  -15.9037   -4.4594  H     
45   H         9.4740  -14.7392   -4.0233  H     
46   H        10.5913  -14.3730   -5.3430  H     
47   H         9.7875  -12.5952   -0.8663  H     
48   H         9.0210  -13.2074   -2.3521  H     
49   H         8.3223  -13.5846   -0.7723  H     
@<TRIPOS>BOND
     1   13   14 2
     2    1    7 1
     3   14   15 1
     4    3    4 2
     5   15   16 2
     6   16   11 1
     7    7    8 1
     8   15   17 1
     9   17   18 3
    10    7    9 1
    11   13   19 1
    12    4    5 1
    13   19   20 1
    14    7   10 1
    15   20   21 1
    16    2    3 1
    17   21   22 2
    18    5   11 1
    19   21   23 am
    20    5    6 2
    21   23   24 1
    22   11   12 2
    23   24   25 1
    24    6    1 1
    25   24   26 1
    26   12   13 1
    27   25   27 1
    28    1    2 2
    29   26   28 1
    30    2   29 1
    31    3   30 1
    32    4   31 1
    33    6   32 1
    34   12   33 1
    35   19   34 1
    36   19   35 1
    37   20   36 1
    38   20   37 1
    39   23   38 1
    40   24   39 1
    41   25   40 1
    42   25   41 1
    43   26   42 1
    44   26   43 1
    45   27   44 1
    46   27   45 1
    47   27   46 1
    48   28   47 1
    49   28   48 1
    50   28   49 1
@<TRIPOS>PROPERTY_DATA
  Total_Score	| 0.6420
  Crash		| -0.4590
  Polar		| 0.0018
  FragIndex	| 1
  FragRMSD	| 0.251

