@<TRIPOS>MOLECULE
BindingDB_50328886
 50 52 0 0 0
SMALL
NO_CHARGES


@<TRIPOS>ATOM
1    C        15.8440  -19.9082    6.6755  C     
2    C        17.2325  -19.6354    6.7625  C     
3    C        17.8562  -18.7787    5.8353  C     
4    C        17.1079  -18.1870    4.8070  C     
5    C        15.7194  -18.4189    4.7007  C     
6    C        15.1028  -19.2657    5.6491  C     
7    C        15.1389  -20.8368    7.5965  C     
8    F        14.4617  -21.7836    6.8670  F     
9    F        14.2318  -20.1424    8.3578  F     
10   F        15.9560  -21.5225    8.4622  F     
11   C        14.9375  -17.7860    3.7008  C     
12   C        15.3461  -17.6857    2.3489  C     
13   C        14.5567  -16.9314    1.4566  C     
14   N        13.4135  -16.3620    1.9324  N     
15   C        12.9878  -16.5118    3.2049  C     
16   N        13.7601  -17.2135    4.0680  N     
17   C        11.8690  -15.9839    3.5803  C     
18   N        10.8715  -15.5144    3.9020  N     
19   C        14.9280  -16.6765    0.0413  C     
20   C        13.7976  -17.0650   -0.9575  C     
21   C        13.8237  -16.3085   -2.3176  C     
22   N        12.5174  -15.6800   -2.7047  N     
23   C        12.2472  -14.3271   -2.1216  C     
24   C        10.9634  -13.6880   -2.7106  C     
25   N         9.8067  -14.6200   -2.6279  N     
26   C        10.0780  -15.9090   -3.3275  C     
27   C        11.3482  -16.6092   -2.7775  C     
28   C         9.1409  -14.7189   -1.2938  C     
29   H        17.7958  -20.0517    7.5047  H     
30   H        18.8592  -18.5898    5.9147  H     
31   H        17.5867  -17.5610    4.1526  H     
32   H        14.0969  -19.4456    5.5836  H     
33   H        16.2119  -18.1300    2.0267  H     
34   H        15.1304  -15.6054   -0.0448  H     
35   H        15.8419  -17.2087   -0.2313  H     
36   H        13.8424  -18.1455   -1.1335  H     
37   H        12.8308  -16.8663   -0.4886  H     
38   H        14.5905  -15.5296   -2.2985  H     
39   H        14.1250  -17.0094   -3.1004  H     
40   H        12.1449  -14.3945   -1.0360  H     
41   H        13.0856  -13.6609   -2.3369  H     
42   H        10.7434  -12.7500   -2.1925  H     
43   H        11.1366  -13.4393   -3.7598  H     
44   H         9.2215  -16.5809   -3.2406  H     
45   H        10.2168  -15.7038   -4.3925  H     
46   H        11.1224  -17.0172   -1.7896  H     
47   H        11.5917  -17.4465   -3.4361  H     
48   H         8.8594  -13.7276   -0.9312  H     
49   H         8.2283  -15.3128   -1.3706  H     
50   H         9.7990  -15.1840   -0.5568  H     
@<TRIPOS>BOND
     1   13   14 2
     2    1    7 1
     3   14   15 1
     4    3    4 2
     5   15   16 2
     6   16   11 1
     7    7    8 1
     8   15   17 1
     9   17   18 3
    10    7    9 1
    11   13   19 1
    12    4    5 1
    13   19   20 1
    14    7   10 1
    15   20   21 1
    16    2    3 1
    17   21   22 1
    18   22   23 1
    19    5   11 1
    20    5    6 2
    21   11   12 2
    22    6    1 1
    23   12   13 1
    24   22   27 1
    25   23   24 1
    26   24   25 1
    27   25   26 1
    28   26   27 1
    29    1    2 2
    30   25   28 1
    31    2   29 1
    32    3   30 1
    33    4   31 1
    34    6   32 1
    35   12   33 1
    36   19   34 1
    37   19   35 1
    38   20   36 1
    39   20   37 1
    40   21   38 1
    41   21   39 1
    42   23   40 1
    43   23   41 1
    44   24   42 1
    45   24   43 1
    46   26   44 1
    47   26   45 1
    48   27   46 1
    49   27   47 1
    50   28   48 1
    51   28   49 1
    52   28   50 1
@<TRIPOS>PROPERTY_DATA
  Total_Score	| 0.4826
  Crash		| -0.6224
  Polar		| 0.0027
  FragIndex	| 1
  FragRMSD	| 0.537

