@<TRIPOS>MOLECULE
BindingDB_50328893
 43 44 0 0 0
SMALL
NO_CHARGES


@<TRIPOS>ATOM
1    C        15.7943  -19.8899    6.6967  C     
2    C        17.1778  -19.6196    6.8036  C     
3    C        17.8112  -18.7568    5.8947  C     
4    C        17.0769  -18.1557    4.8587  C     
5    C        15.6873  -18.3863    4.7283  C     
6    C        15.0631  -19.2389    5.6703  C     
7    C        15.1027  -20.8432    7.6065  C     
8    F        14.1340  -20.1902    8.3278  F     
9    F        15.9232  -21.4704    8.5192  F     
10   F        14.5028  -21.8340    6.8658  F     
11   C        14.9272  -17.7810    3.6838  C     
12   C        15.3577  -17.7776    2.3343  C     
13   C        14.5796  -17.1095    1.3609  C     
14   N        13.4212  -16.5088    1.7579  N     
15   C        12.9878  -16.5527    3.0446  C     
16   N        13.7409  -17.1804    3.9808  N     
17   C        11.8701  -15.9791    3.3628  C     
18   N        10.8712  -15.4860    3.6458  N     
19   C        14.9896  -17.0217   -0.0600  C     
20   C        13.8104  -16.7656   -1.0655  C     
21   C        13.5769  -15.2734   -1.4279  C     
22   N        12.1504  -14.9688   -1.6986  N     
23   C        11.7894  -13.5318   -1.8364  C     
24   C        10.3716  -13.3570   -2.0426  C     
25   N         9.6602  -12.4956   -1.3340  N     
26   O         9.7909  -14.0011   -2.9100  O     
27   H        17.7409  -20.0474    7.5432  H     
28   H        18.8170  -18.5684    5.9913  H     
29   H        17.5633  -17.5269    4.2131  H     
30   H        14.0576  -19.4223    5.5852  H     
31   H        16.2292  -18.2487    2.0685  H     
32   H        15.7373  -16.2299   -0.1280  H     
33   H        15.5089  -17.9414   -0.3555  H     
34   H        12.8648  -17.1895   -0.7070  H     
35   H        14.0229  -17.2859   -2.0056  H     
36   H        13.9342  -14.6504   -0.5900  H     
37   H        14.1808  -15.0095   -2.3078  H     
38   H        11.8636  -15.4773   -2.5358  H     
39   H        11.6130  -15.3451   -0.9140  H     
40   H        12.0963  -13.0346   -0.9122  H     
41   H        12.3155  -13.0344   -2.6518  H     
42   H        10.0858  -11.9723   -0.6320  H     
43   H         8.7185  -12.3665   -1.5169  H     
@<TRIPOS>BOND
     1   12   13 1
     2    1    2 2
     3   13   14 2
     4    1    7 1
     5   14   15 1
     6    3    4 2
     7   15   16 2
     8   16   11 1
     9    7    8 1
    10   15   17 1
    11   17   18 3
    12    7    9 1
    13   13   19 1
    14    4    5 1
    15   19   20 1
    16    7   10 1
    17   20   21 1
    18    2    3 1
    19   21   22 1
    20    5   11 1
    21   22   23 1
    22    5    6 2
    23   23   24 1
    24   11   12 2
    25   24   25 am
    26    6    1 1
    27   24   26 2
    28    2   27 1
    29    3   28 1
    30    4   29 1
    31    6   30 1
    32   12   31 1
    33   19   32 1
    34   19   33 1
    35   20   34 1
    36   20   35 1
    37   21   36 1
    38   21   37 1
    39   22   38 1
    40   22   39 1
    41   23   40 1
    42   23   41 1
    43   25   42 1
    44   25   43 1
@<TRIPOS>PROPERTY_DATA
  Total_Score	| 1.8488
  Crash		| -0.5758
  Polar		| 1.8365
  FragIndex	| 1
  FragRMSD	| 0.697

