@<TRIPOS>MOLECULE
BindingDB_50313477
 51 52 0 0 0
SMALL
NO_CHARGES


@<TRIPOS>ATOM
1    N        13.7648  -17.1498    3.9927  N     
2    C        15.0074  -17.6907    3.7701  C     
3    C        15.5279  -17.6454    2.4536  C     
4    C        14.7446  -17.1045    1.4152  C     
5    N        13.5235  -16.5875    1.7161  N     
6    C        13.0352  -16.6028    2.9829  C     
7    C        11.8883  -16.0499    3.2128  C     
8    N        10.8734  -15.5274    3.3844  N     
9    C        15.7250  -18.3065    4.8149  C     
10   C        15.2539  -17.0900    0.0181  C     
11   C        14.2004  -17.0317   -1.1277  C     
12   C        13.5276  -15.6561   -1.4123  C     
13   C        15.0727  -19.1585    5.7295  C     
14   C        15.7897  -19.8795    6.7174  C     
15   C        17.1935  -19.6816    6.8096  C     
16   C        17.8523  -18.8365    5.9084  C     
17   C        17.1309  -18.1483    4.9182  C     
18   C        15.0658  -20.8392    7.5941  C     
19   F        15.8543  -21.5285    8.4895  F     
20   F        14.1025  -20.1858    8.3321  F     
21   F        14.4431  -21.7942    6.8215  F     
22   N        12.0704  -15.7707   -1.6862  N     
23   C        11.2954  -14.5091   -1.8781  C     
24   C        11.2629  -14.0282   -3.3683  C     
25   C         9.8882  -14.7248   -1.2441  C     
26   C        10.3411  -14.8339   -4.3185  C     
27   C         8.9128  -13.5141   -1.3169  C     
28   H        16.4493  -18.0466    2.2479  H     
29   H        15.9611  -16.2638   -0.0890  H     
30   H        15.8163  -18.0146   -0.1323  H     
31   H        14.7145  -17.3390   -2.0416  H     
32   H        13.4379  -17.7916   -0.9425  H     
33   H        13.6903  -14.9679   -0.5764  H     
34   H        14.0122  -15.2209   -2.2904  H     
35   H        14.0625  -19.3059    5.6417  H     
36   H        17.7455  -20.1768    7.5128  H     
37   H        18.8662  -18.7253    5.9655  H     
38   H        17.6352  -17.5616    4.2516  H     
39   H        11.9492  -16.3512   -2.5204  H     
40   H        11.6648  -16.2805   -0.8951  H     
41   H        11.7823  -13.7182   -1.2905  H     
42   H        10.9478  -12.9851   -3.4031  H     
43   H        12.2737  -14.0511   -3.7749  H     
44   H         9.3994  -15.5827   -1.7169  H     
45   H        10.0213  -14.9700   -0.1833  H     
46   H        10.6539  -15.8852   -4.3619  H     
47   H        10.4103  -14.4124   -5.3279  H     
48   H         9.2961  -14.7827   -3.9943  H     
49   H         9.4001  -12.6092   -0.9480  H     
50   H         8.0326  -13.7207   -0.7040  H     
51   H         8.5804  -13.3547   -2.3434  H     
@<TRIPOS>BOND
     1    1    2 2
     2    1    6 1
     3    2    3 1
     4    2    9 1
     5    3    4 2
     6    4    5 1
     7    4   10 1
     8    5    6 2
     9    6    7 1
    10    7    8 3
    11    9   13 2
    12    9   17 1
    13   10   11 1
    14   11   12 1
    15   12   22 1
    16   13   14 1
    17   14   15 2
    18   14   18 1
    19   15   16 1
    20   16   17 2
    21   18   19 1
    22   18   20 1
    23   18   21 1
    24   22   23 1
    25   23   24 1
    26   23   25 1
    27   24   26 1
    28   25   27 1
    29    3   28 1
    30   10   29 1
    31   10   30 1
    32   11   31 1
    33   11   32 1
    34   12   33 1
    35   12   34 1
    36   13   35 1
    37   15   36 1
    38   16   37 1
    39   17   38 1
    40   22   39 1
    41   22   40 1
    42   23   41 1
    43   24   42 1
    44   24   43 1
    45   25   44 1
    46   25   45 1
    47   26   46 1
    48   26   47 1
    49   26   48 1
    50   27   49 1
    51   27   50 1
    52   27   51 1
@<TRIPOS>PROPERTY_DATA
  Total_Score	| 0.6917
  Crash		| -0.5440
  Polar		| 0.0011
  FragIndex	| 1
  FragRMSD	| 0.440

