@<TRIPOS>MOLECULE
BindingDB_50328894
 49 50 0 0 0
SMALL
NO_CHARGES


@<TRIPOS>ATOM
1    C        15.7412  -19.6181    6.7615  C     
2    C        17.1274  -19.3425    6.8402  C     
3    C        17.7614  -18.5492    5.8671  C     
4    C        17.0187  -18.0189    4.8004  C     
5    C        15.6306  -18.2641    4.6941  C     
6    C        15.0086  -19.0634    5.6853  C     
7    C        15.0964  -20.4637    7.8080  C     
8    F        15.1811  -19.8370    9.0271  F     
9    F        13.7662  -20.7363    7.5846  F     
10   F        15.7350  -21.6751    7.9006  F     
11   C        14.8663  -17.7222    3.6310  C     
12   C        15.2765  -17.8073    2.2800  C     
13   C        14.4337  -17.2825    1.2783  C     
14   N        13.2722  -16.6820    1.6573  N     
15   C        12.8919  -16.5785    2.9513  C     
16   N        13.6861  -17.1041    3.9130  N     
17   C        11.7861  -15.9825    3.2564  C     
18   N        10.8016  -15.4549    3.5231  N     
19   C        14.8072  -17.3956   -0.1551  C     
20   C        13.7329  -16.9246   -1.1809  C     
21   C        13.5968  -15.3788   -1.2954  C     
22   N        12.2197  -14.9686   -1.6843  N     
23   C        11.9051  -13.5240   -1.9515  C     
24   C        10.4369  -13.4250   -2.0705  C     
25   N         9.6922  -12.6171   -1.3469  N     
26   O         9.8454  -14.0899   -2.9081  O     
27   C        12.5412  -13.0798   -3.3074  C     
28   C        12.4798  -12.5949   -0.8263  C     
29   H        17.6898  -19.7211    7.6059  H     
30   H        18.7630  -18.3574    5.9387  H     
31   H        17.4962  -17.4310    4.1117  H     
32   H        14.0060  -19.2525    5.6087  H     
33   H        16.1514  -18.2713    2.0271  H     
34   H        15.7288  -16.8304   -0.3218  H     
35   H        15.0241  -18.4463   -0.3594  H     
36   H        13.9858  -17.3246   -2.1662  H     
37   H        12.7668  -17.3596   -0.8999  H     
38   H        13.8371  -14.9226   -0.3342  H     
39   H        14.3138  -15.0162   -2.0325  H     
40   H        11.9821  -15.4856   -2.5351  H     
41   H        11.5893  -15.2931   -0.9462  H     
42   H        10.0927  -12.0591   -0.6642  H     
43   H         8.7387  -12.5439   -1.5245  H     
44   H        13.6303  -13.1459   -3.2741  H     
45   H        12.2705  -12.0452   -3.5363  H     
46   H        12.1914  -13.7131   -4.1267  H     
47   H        12.1174  -12.8986    0.1576  H     
48   H        13.5758  -12.6327   -0.8082  H     
49   H        12.1932  -11.5517   -0.9949  H     
@<TRIPOS>BOND
     1   13   14 2
     2    1    7 1
     3   14   15 1
     4    3    4 2
     5   15   16 2
     6   16   11 1
     7    7    8 1
     8   15   17 1
     9   17   18 3
    10    7    9 1
    11   13   19 1
    12    4    5 1
    13   19   20 1
    14    7   10 1
    15   20   21 1
    16    2    3 1
    17   21   22 1
    18    5   11 1
    19   22   23 1
    20    5    6 2
    21   23   24 1
    22   11   12 2
    23   24   25 am
    24    6    1 1
    25   24   26 2
    26   12   13 1
    27   23   27 1
    28    1    2 2
    29   23   28 1
    30    2   29 1
    31    3   30 1
    32    4   31 1
    33    6   32 1
    34   12   33 1
    35   19   34 1
    36   19   35 1
    37   20   36 1
    38   20   37 1
    39   21   38 1
    40   21   39 1
    41   22   40 1
    42   22   41 1
    43   25   42 1
    44   25   43 1
    45   27   44 1
    46   27   45 1
    47   27   46 1
    48   28   47 1
    49   28   48 1
    50   28   49 1
@<TRIPOS>PROPERTY_DATA
  Total_Score	| 1.4875
  Crash		| -0.9104
  Polar		| 1.5787
  FragIndex	| 1
  FragRMSD	| 0.848

