@<TRIPOS>MOLECULE
BindingDB_50313476
 49 51 0 0 0
SMALL
NO_CHARGES


@<TRIPOS>ATOM
1    N        13.6504  -17.1206    3.9198  N     
2    C        14.8072  -17.7727    3.6081  C     
3    C        15.1568  -17.9211    2.2456  C     
4    C        14.2797  -17.4087    1.2575  C     
5    N        13.1520  -16.7727    1.6618  N     
6    C        12.8335  -16.6054    2.9667  C     
7    C        11.7460  -15.9823    3.2797  C     
8    N        10.7807  -15.4167    3.5536  N     
9    C        15.5840  -18.3253    4.6590  C     
10   C        14.5023  -17.6353   -0.1938  C     
11   C        14.6908  -16.3603   -1.0654  C     
12   C        13.4643  -15.4107   -1.2175  C     
13   C        14.9898  -19.1910    5.6084  C     
14   C        15.7474  -19.8222    6.6252  C     
15   C        17.1295  -19.5263    6.7096  C     
16   C        17.7334  -18.6534    5.7898  C     
17   C        16.9724  -18.0644    4.7654  C     
18   C        15.0791  -20.7876    7.5381  C     
19   F        15.9110  -21.3759    8.4610  F     
20   F        14.0884  -20.1566    8.2496  F     
21   F        14.5104  -21.8045    6.8063  F     
22   N        12.1404  -16.0609   -1.5122  N     
23   C        12.0836  -16.9451   -2.7258  C     
24   C        11.9722  -16.1780   -4.0705  C     
25   C        10.7948  -15.1691   -4.0484  C     
26   C        10.8580  -14.2568   -2.7980  C     
27   C        10.9826  -15.1025   -1.5039  C     
28   H        15.9986  -18.4366    1.9775  H     
29   H        15.3869  -18.2644   -0.3347  H     
30   H        13.6527  -18.2046   -0.5768  H     
31   H        15.5303  -15.7877   -0.6548  H     
32   H        14.9876  -16.6866   -2.0672  H     
33   H        13.3806  -14.8614   -0.2747  H     
34   H        13.7004  -14.6763   -1.9927  H     
35   H        13.9885  -19.4044    5.5289  H     
36   H        17.7112  -19.9528    7.4312  H     
37   H        18.7374  -18.4594    5.8556  H     
38   H        17.4365  -17.4399    4.0997  H     
39   H        11.9747  -16.6798   -0.7191  H     
40   H        12.9487  -17.6103   -2.7656  H     
41   H        11.2043  -17.5898   -2.6274  H     
42   H        12.9055  -15.6455   -4.2645  H     
43   H        11.8152  -16.8914   -4.8840  H     
44   H        10.8217  -14.5527   -4.9503  H     
45   H         9.8474  -15.7168   -4.0476  H     
46   H        11.7052  -13.5731   -2.8821  H     
47   H         9.9474  -13.6518   -2.7490  H     
48   H        10.0646  -15.6858   -1.3842  H     
49   H        11.0385  -14.4351   -0.6405  H     
@<TRIPOS>BOND
     1    1    2 2
     2    1    6 1
     3    2    3 1
     4    2    9 1
     5    3    4 2
     6    4    5 1
     7    4   10 1
     8    5    6 2
     9    6    7 1
    10    7    8 3
    11    9   13 2
    12    9   17 1
    13   10   11 1
    14   11   12 1
    15   12   22 1
    16   13   14 1
    17   14   15 2
    18   14   18 1
    19   15   16 1
    20   16   17 2
    21   18   19 1
    22   18   20 1
    23   18   21 1
    24   22   23 1
    25   22   27 1
    26   23   24 1
    27   24   25 1
    28   25   26 1
    29   26   27 1
    30    3   28 1
    31   10   29 1
    32   10   30 1
    33   11   31 1
    34   11   32 1
    35   12   33 1
    36   12   34 1
    37   13   35 1
    38   15   36 1
    39   16   37 1
    40   17   38 1
    41   22   39 1
    42   23   40 1
    43   23   41 1
    44   24   42 1
    45   24   43 1
    46   25   44 1
    47   25   45 1
    48   26   46 1
    49   26   47 1
    50   27   48 1
    51   27   49 1
@<TRIPOS>PROPERTY_DATA
  Total_Score	| 0.3033
  Crash		| -0.3472
  Polar		| 0.0032
  FragIndex	| 1
  FragRMSD	| 0.715

