@<TRIPOS>MOLECULE
BindingDB_50328892
 44 46 0 0 0
SMALL
NO_CHARGES


@<TRIPOS>ATOM
1    C        15.7942  -19.9153    6.6877  C     
2    C        17.1774  -19.6719    6.8472  C     
3    C        17.8650  -18.8255    5.9577  C     
4    C        17.1761  -18.2057    4.9022  C     
5    C        15.7855  -18.4055    4.7264  C     
6    C        15.1145  -19.2635    5.6321  C     
7    C        15.0311  -20.8260    7.5858  C     
8    F        14.0474  -20.1222    8.2385  F     
9    F        15.7919  -21.4463    8.5486  F     
10   F        14.4387  -21.8170    6.8394  F     
11   C        15.0600  -17.7602    3.6905  C     
12   C        15.5359  -17.6786    2.3629  C     
13   C        14.7556  -17.0131    1.3889  C     
14   N        13.5749  -16.4646    1.7809  N     
15   C        13.1096  -16.5546    3.0503  C     
16   N        13.8531  -17.2010    3.9806  N     
17   C        11.9652  -16.0358    3.3659  C     
18   N        10.9493  -15.5813    3.6464  N     
19   C        15.2490  -16.8526    0.0000  C     
20   C        14.1862  -16.7670   -1.1318  C     
21   C        13.2062  -15.5658   -1.0382  C     
22   N        12.7563  -15.1586   -2.3894  N     
23   C        12.1316  -13.8203   -2.5003  C     
24   C        10.7345  -13.8152   -2.0377  C     
25   N        10.1800  -13.0811   -1.0713  N     
26   N         8.9610  -13.3907   -1.0187  N     
27   N         8.7093  -14.2465   -1.8585  N     
28   N         9.7387  -14.5610   -2.5222  N     
29   H        17.7031  -20.1050    7.6071  H     
30   H        18.8645  -18.6559    6.0839  H     
31   H        17.6972  -17.5838    4.2786  H     
32   H        14.1115  -19.4391    5.5062  H     
33   H        16.4288  -18.0990    2.1065  H     
34   H        15.8761  -15.9592   -0.0306  H     
35   H        15.8947  -17.7011   -0.2451  H     
36   H        14.7360  -16.6830   -2.0738  H     
37   H        13.6154  -17.7000   -1.1691  H     
38   H        12.3317  -15.8524   -0.4467  H     
39   H        13.7057  -14.7234   -0.5416  H     
40   H        13.5774  -15.1580   -2.9963  H     
41   H        12.0965  -15.8585   -2.7412  H     
42   H        12.7154  -13.0755   -1.9479  H     
43   H        12.1417  -13.5321   -3.5537  H     
44   H        10.6240  -12.4229   -0.5068  H     
@<TRIPOS>BOND
     1   13   14 2
     2    1    7 1
     3   14   15 1
     4    3    4 2
     5   15   16 2
     6   16   11 1
     7    7    8 1
     8   15   17 1
     9   17   18 3
    10    7    9 1
    11   13   19 1
    12    4    5 1
    13   19   20 1
    14    7   10 1
    15   20   21 1
    16    2    3 1
    17   21   22 1
    18    5   11 1
    19   22   23 1
    20    5    6 2
    21   23   24 1
    22   27   28 1
    23   11   12 2
    24   25   26 1
    25    6    1 1
    26   12   13 1
    27    1    2 2
    28   24   25 1
    29   26   27 2
    30   28   24 2
    31    2   29 1
    32    3   30 1
    33    4   31 1
    34    6   32 1
    35   12   33 1
    36   19   34 1
    37   19   35 1
    38   20   36 1
    39   20   37 1
    40   21   38 1
    41   21   39 1
    42   22   40 1
    43   22   41 1
    44   23   42 1
    45   23   43 1
    46   25   44 1
@<TRIPOS>PROPERTY_DATA
  Total_Score	| 0.7821
  Crash		| -0.6480
  Polar		| 0.9390
  FragIndex	| 1
  FragRMSD	| 0.542

