@<TRIPOS>MOLECULE
BindingDB_14268
 69 73 0 0 0
SMALL
NO_CHARGES


@<TRIPOS>ATOM
1    C        25.1236   28.5679   12.6297  C     
2    C        24.2725   27.4483   12.7708  C     
3    C        23.0320   27.5747   13.4455  C     
4    C        24.7491   29.8235   13.1556  C     
5    C        23.5162   29.9312   13.8345  C     
6    C        22.6729   28.8326   13.9544  C     
7    C        21.6911   30.5817   14.8119  C     
8    N        21.5689   29.2611   14.5712  N     
9    N        22.9020   30.9977   14.3635  N     
10   C        20.6835   31.4706   15.4409  C     
11   N        19.4500   31.3738   14.7073  N     
12   C        18.9968   32.2272   13.7955  C     
13   O        19.6682   33.1934   13.4552  O     
14   C        17.7200   31.9791   13.1291  C     
15   C        17.8616   31.1532   11.8133  C     
16   C        18.2722   29.7259   12.0034  C     
17   C        20.0166   27.9971   12.1948  C     
18   C        19.6416   29.3452   12.0187  C     
19   C        17.2930   28.7010   12.1305  C     
20   C        17.6711   27.3527   12.2858  C     
21   C        19.0324   26.9972   12.3324  C     
22   N        17.1290   33.2590   12.8180  N     
23   C        16.0558   33.8083   13.3735  C     
24   C        15.6228   35.1112   12.9185  C     
25   O        15.4374   33.2615   14.2771  O     
26   C        20.4241   31.0883   16.9327  C     
27   C        21.6433   31.2765   17.7637  C     
28   C        22.1532   32.5781   17.9433  C     
29   C        22.3414   30.1865   18.3220  C     
30   C        23.5602   30.3939   18.9972  C     
31   C        24.1090   31.6945   19.1196  C     
32   C        23.3752   32.7810   18.5992  C     
33   C        25.4256   31.9598   19.7671  C     
34   C        26.5985   31.0312   19.3524  C     
35   S        25.3895   31.9047   21.5706  S     
36   O        25.3504   33.3745   22.1760  O     
37   O        24.4411   30.8092   22.2276  O     
38   N        26.9599   31.3404   21.6521  N     
39   C        27.4480   30.9008   20.5101  C     
40   O        28.5489   30.3825   20.4658  O     
41   H        26.0111   28.4693   12.1317  H     
42   H        24.5465   26.5451   12.3788  H     
43   H        22.4043   26.7726   13.5333  H     
44   H        25.3556   30.6372   13.0456  H     
45   H        20.7774   28.7353   14.7289  H     
46   H        21.0592   32.5012   15.3975  H     
47   H        18.9096   30.5943   14.8989  H     
48   H        17.0579   31.4133   13.7946  H     
49   H        16.8948   31.1801   11.2910  H     
50   H        18.5837   31.6334   11.1472  H     
51   H        21.0115   27.7427   12.2056  H     
52   H        20.3842   30.0495   11.9000  H     
53   H        16.2926   28.9356   12.1029  H     
54   H        16.9522   26.6273   12.3668  H     
55   H        19.2992   26.0216   12.4468  H     
56   H        17.5740   33.7873   12.1295  H     
57   H        16.4207   35.8386   13.0681  H     
58   H        14.7390   35.4495   13.4589  H     
59   H        15.3814   35.0614   11.8562  H     
60   H        19.6321   31.7175   17.3400  H     
61   H        20.0589   30.0595   16.9955  H     
62   H        21.6595   33.3952   17.5680  H     
63   H        21.9813   29.2355   18.2097  H     
64   H        24.0614   29.5822   19.3729  H     
65   H        23.7304   33.7446   18.6707  H     
66   H        25.7487   32.9786   19.5389  H     
67   H        26.2641   30.0380   19.0393  H     
68   H        27.1615   31.4849   18.5343  H     
69   H        27.4551   31.2814   22.4813  H     
@<TRIPOS>BOND
     1    1    2 2
     2    1    4 1
     3    2    3 1
     4    3    6 2
     5    4    5 2
     6    5    6 1
     7    5    9 1
     8    6    8 1
     9    7    8 1
    10    7    9 2
    11    7   10 1
    12   10   11 1
    13   10   26 1
    14   11   12 am
    15   12   13 2
    16   12   14 1
    17   14   15 1
    18   14   22 1
    19   15   16 1
    20   16   18 1
    21   16   19 2
    22   17   18 2
    23   17   21 1
    24   19   20 1
    25   20   21 2
    26   22   23 am
    27   23   24 1
    28   23   25 2
    29   26   27 1
    30   27   28 1
    31   27   29 2
    32   28   32 2
    33   29   30 1
    34   30   31 2
    35   31   32 1
    36   31   33 1
    37   33   34 1
    38   33   35 1
    39   34   39 1
    40   35   36 2
    41   35   37 2
    42   35   38 1
    43   38   39 1
    44   39   40 2
    45    1   41 1
    46    2   42 1
    47    3   43 1
    48    4   44 1
    49    8   45 1
    50   10   46 1
    51   11   47 1
    52   14   48 1
    53   15   49 1
    54   15   50 1
    55   17   51 1
    56   18   52 1
    57   19   53 1
    58   20   54 1
    59   21   55 1
    60   22   56 1
    61   24   57 1
    62   24   58 1
    63   24   59 1
    64   26   60 1
    65   26   61 1
    66   28   62 1
    67   29   63 1
    68   30   64 1
    69   32   65 1
    70   33   66 1
    71   34   67 1
    72   34   68 1
    73   38   69 1
@<TRIPOS>PROPERTY_DATA
  Total_Score	| 11.7849
  Crash		| -2.9551
  Polar		| 8.3092
  FragIndex	| 1
  FragRMSD	| 0.276

