@<TRIPOS>MOLECULE
BindingDB_13465
 60 62 0 0 0
SMALL
NO_CHARGES


@<TRIPOS>ATOM
1    C        21.6768   31.3276   17.6466  C     
2    C        22.3776   30.2534   18.2416  C     
3    C        23.5822   30.4785   18.9361  C     
4    C        24.1220   31.7801   19.0556  C     
5    C        23.3882   32.8527   18.5068  C     
6    C        22.1772   32.6332   17.8347  C     
7    C        20.4451   31.1064   16.8308  C     
8    C        20.5545   31.6430   15.3678  C     
9    C        21.5410   30.8961   14.5888  C     
10   O        22.5439   31.4457   14.1580  O     
11   N        21.3751   29.6230   14.3079  N     
12   N        19.2676   31.6099   14.7327  N     
13   C        18.9461   32.1436   13.5586  C     
14   O        19.7795   32.7628   12.9027  O     
15   C        17.5853   32.0056   13.0397  C     
16   C        17.5085   31.1398   11.7412  C     
17   C        18.0555   29.7653   11.8943  C     
18   C        19.0561   27.1263   12.2364  C     
19   C        19.9425   28.2058   12.0650  C     
20   C        19.4534   29.5138   11.8920  C     
21   C        17.1739   28.6689   12.0237  C     
22   C        17.6641   27.3634   12.2185  C     
23   N        17.0666   33.3189   12.7660  N     
24   C        16.0203   33.8948   13.3388  C     
25   O        15.3985   33.3591   14.2522  O     
26   C        15.6130   35.2049   12.8836  C     
27   C        25.4325   32.0455   19.7172  C     
28   C        27.4635   30.9540   20.4228  C     
29   C        26.6268   31.1614   19.2622  C     
30   O        28.5406   30.3770   20.3552  O     
31   N        26.9837   31.3395   21.5744  N     
32   S        25.4152   31.9187   21.5062  S     
33   O        25.3938   33.3621   22.1791  O     
34   O        24.4340   30.8346   22.1362  O     
35   H        22.0281   29.2953   18.1396  H     
36   H        24.0716   29.6774   19.3412  H     
37   H        23.7284   33.8103   18.5833  H     
38   H        21.6788   33.4408   17.4522  H     
39   H        20.1767   30.0450   16.8026  H     
40   H        19.6283   31.6219   17.3379  H     
41   H        20.8464   32.6928   15.4199  H     
42   H        22.0415   29.1479   13.7790  H     
43   H        20.5826   29.1508   14.6164  H     
44   H        18.5599   31.1754   15.2284  H     
45   H        16.9659   31.4958   13.7921  H     
46   H        16.4676   31.0484   11.4389  H     
47   H        18.0212   31.6613   10.9339  H     
48   H        19.4182   26.1819   12.3589  H     
49   H        20.9553   28.0379   12.0635  H     
50   H        20.1168   30.2833   11.7650  H     
51   H        16.1600   28.8282   11.9946  H     
52   H        17.0223   26.5735   12.3199  H     
53   H        17.5148   33.8313   12.0722  H     
54   H        16.4375   35.9169   13.0015  H     
55   H        14.7509   35.5818   13.4421  H     
56   H        15.3464   35.1523   11.8274  H     
57   H        25.7389   33.0770   19.5170  H     
58   H        26.3098   30.1820   18.8956  H     
59   H        27.2048   31.6582   18.4779  H     
60   H        27.4458   31.1738   22.4174  H     
@<TRIPOS>BOND
     1    1    2 1
     2    1    6 2
     3    1    7 1
     4    2    3 2
     5    3    4 1
     6    4    5 2
     7    4   27 1
     8    5    6 1
     9    8    7 1
    10    8    9 1
    11    8   12 1
    12    9   10 2
    13    9   11 am
    14   12   13 am
    15   13   14 2
    16   13   15 1
    17   15   16 1
    18   15   23 1
    19   16   17 1
    20   17   20 1
    21   17   21 2
    22   18   19 1
    23   18   22 2
    24   19   20 2
    25   21   22 1
    26   23   24 am
    27   24   25 2
    28   24   26 1
    29   27   29 1
    30   27   32 1
    31   28   29 1
    32   28   30 2
    33   28   31 1
    34   31   32 1
    35   32   33 2
    36   32   34 2
    37    2   35 1
    38    3   36 1
    39    5   37 1
    40    6   38 1
    41    7   39 1
    42    7   40 1
    43    8   41 1
    44   11   42 1
    45   11   43 1
    46   12   44 1
    47   15   45 1
    48   16   46 1
    49   16   47 1
    50   18   48 1
    51   19   49 1
    52   20   50 1
    53   21   51 1
    54   22   52 1
    55   23   53 1
    56   26   54 1
    57   26   55 1
    58   26   56 1
    59   27   57 1
    60   29   58 1
    61   29   59 1
    62   31   60 1
@<TRIPOS>PROPERTY_DATA
  Total_Score	| 11.6385
  Crash		| -2.4047
  Polar		| 8.0629
  FragIndex	| 1
  FragRMSD	| 0.308

