@<TRIPOS>MOLECULE
BindingDB_50341990
 89 92 0 0 0
SMALL
NO_CHARGES


@<TRIPOS>ATOM
1    O        24.3420   30.8243   21.9685  O     
2    S        25.3274   31.9520   21.4138  S     
3    O        25.2859   33.3808   22.0950  O     
4    C        14.0673   35.5647   11.2788  C     
5    C        12.7821   35.5087   10.7113  C     
6    C        11.7041   34.9694   11.4421  C     
7    C        11.9172   34.5345   12.7652  C     
8    C        13.2019   34.5947   13.3338  C     
9    C        14.3025   35.1078   12.5974  C     
10   C        15.6756   35.1453   13.1810  C     
11   C        16.1727   33.8209   13.5226  C     
12   O        15.6304   33.2126   14.4343  O     
13   N        17.1999   33.2985   12.8576  N     
14   C        17.7680   31.9851   13.0167  C     
15   C        19.1374   32.1111   13.5015  C     
16   N        19.5874   31.2613   14.4171  N     
17   O        19.8621   32.9892   13.0484  O     
18   C        20.8627   31.2783   15.0725  C     
19   C        21.7765   30.3022   14.4827  C     
20   N        21.4886   29.0093   14.5311  N     
21   O        22.8225   30.6944   13.9716  O     
22   C        17.6885   31.2246   11.6603  C     
23   C        20.6492   31.0489   16.6038  C     
24   C        21.8744   31.2893   17.4170  C     
25   C        22.5984   30.2225   17.9893  C     
26   C        23.7822   30.4648   18.7123  C     
27   C        24.2843   31.7811   18.8596  C     
28   C        23.5520   32.8436   18.2826  C     
29   C        25.5303   32.0724   19.6299  C     
30   O        10.4578   34.9504   10.8812  O     
31   C         9.9354   33.6226   10.6873  C     
32   C        22.3655   32.6027   17.5723  C     
33   C        22.2328   27.9287   13.9530  C     
34   C        23.1124   27.1903   15.0032  C     
35   C        23.7393   25.8977   14.4138  C     
36   C        23.9673   24.7800   15.4639  C     
37   C        24.2626   23.4169   14.7915  C     
38   N        26.8808   31.3689   21.6506  N     
39   C        27.4969   31.0078   20.5529  C     
40   C        26.7816   31.2003   19.3112  C     
41   O        28.5942   30.4597   20.6047  O     
42   C        18.1683   29.8178   11.7579  C     
43   C        17.2709   28.7798   12.1063  C     
44   C        17.7150   27.4510   12.2325  C     
45   C        19.0723   27.1422   12.0166  C     
46   C        19.9812   28.1629   11.6832  C     
47   C        19.5282   29.4855   11.5351  C     
48   H        14.8303   35.9557   10.7183  H     
49   H        12.6270   35.8481    9.7598  H     
50   H        11.1393   34.1637   13.3158  H     
51   H        13.3345   34.2761   14.2964  H     
52   H        16.3704   35.6234   12.4863  H     
53   H        15.6607   35.7743   14.0764  H     
54   H        17.6033   33.8579   12.1760  H     
55   H        17.1751   31.4117   13.7343  H     
56   H        18.9752   30.5688   14.7093  H     
57   H        21.2873   32.2838   14.9579  H     
58   H        20.6494   28.7674   14.9555  H     
59   H        16.6501   31.2164   11.3109  H     
60   H        18.2603   31.7671   10.9020  H     
61   H        19.8704   31.7219   16.9626  H     
62   H        20.2659   30.0363   16.7727  H     
63   H        22.2701   29.2579   17.8916  H     
64   H        24.2798   29.6694   19.1238  H     
65   H        23.8770   33.8085   18.3737  H     
66   H        25.8287   33.1110   19.4628  H     
67   H        10.6052   33.0022   10.0776  H     
68   H         8.9807   33.7051   10.1595  H     
69   H         9.7531   33.1277   11.6485  H     
70   H        21.8611   33.3959   17.1775  H     
71   H        21.4907   27.2328   13.5447  H     
72   H        22.8634   28.2721   13.1262  H     
73   H        23.9130   27.8541   15.3476  H     
74   H        22.5006   26.9140   15.8698  H     
75   H        23.0745   25.5150   13.6300  H     
76   H        24.7031   26.1509   13.9521  H     
77   H        24.8075   25.0525   16.1092  H     
78   H        23.0704   24.6788   16.0874  H     
79   H        23.4097   23.1041   14.1798  H     
80   H        24.4408   22.6581   15.5573  H     
81   H        25.1488   23.4888   14.1542  H     
82   H        27.2738   31.2663   22.5336  H     
83   H        26.5110   30.2188   18.9122  H     
84   H        27.4221   31.7112   18.5837  H     
85   H        16.2834   28.9887   12.2791  H     
86   H        17.0564   26.7057   12.4735  H     
87   H        19.4032   26.1809   12.1215  H     
88   H        20.9695   27.9408   11.5336  H     
89   H        20.2022   30.2175   11.2921  H     
@<TRIPOS>BOND
     1    1    2 2
     2    2    3 2
     3    2   29 1
     4    2   38 1
     5    4    5 2
     6    4    9 1
     7    5    6 1
     8    6    7 2
     9    6   30 1
    10    7    8 1
    11    8    9 2
    12    9   10 1
    13   10   11 1
    14   11   12 2
    15   11   13 am
    16   13   14 1
    17   14   15 1
    18   14   22 1
    19   15   16 am
    20   15   17 2
    21   16   18 1
    22   18   19 1
    23   18   23 1
    24   19   20 am
    25   19   21 2
    26   20   33 1
    27   22   42 1
    28   23   24 1
    29   24   25 2
    30   24   32 1
    31   25   26 1
    32   26   27 2
    33   27   28 1
    34   27   29 1
    35   28   32 2
    36   29   40 1
    37   30   31 1
    38   33   34 1
    39   34   35 1
    40   35   36 1
    41   36   37 1
    42   38   39 1
    43   39   40 1
    44   39   41 2
    45   42   43 2
    46   42   47 1
    47   43   44 1
    48   44   45 2
    49   45   46 1
    50   46   47 2
    51    4   48 1
    52    5   49 1
    53    7   50 1
    54    8   51 1
    55   10   52 1
    56   10   53 1
    57   13   54 1
    58   14   55 1
    59   16   56 1
    60   18   57 1
    61   20   58 1
    62   22   59 1
    63   22   60 1
    64   23   61 1
    65   23   62 1
    66   25   63 1
    67   26   64 1
    68   28   65 1
    69   29   66 1
    70   31   67 1
    71   31   68 1
    72   31   69 1
    73   32   70 1
    74   33   71 1
    75   33   72 1
    76   34   73 1
    77   34   74 1
    78   35   75 1
    79   35   76 1
    80   36   77 1
    81   36   78 1
    82   37   79 1
    83   37   80 1
    84   37   81 1
    85   38   82 1
    86   40   83 1
    87   40   84 1
    88   43   85 1
    89   44   86 1
    90   45   87 1
    91   46   88 1
    92   47   89 1
@<TRIPOS>PROPERTY_DATA
  Total_Score	| 12.0762
  Crash		| -2.8496
  Polar		| 8.0892
  FragIndex	| 1
  FragRMSD	| 0.178

