@<TRIPOS>MOLECULE
BindingDB_13809
 77 81 0 0 0
SMALL
NO_CHARGES


@<TRIPOS>ATOM
1    C        21.7332   31.3019   17.7659  C     
2    C        22.3538   32.5415   18.0276  C     
3    C        23.5442   32.6183   18.7774  C     
4    C        24.1617   31.4349   19.2503  C     
5    C        23.5474   30.1894   18.9843  C     
6    C        22.3429   30.1300   18.2583  C     
7    C        25.3562   31.4842   19.9382  C     
8    C        27.4799   30.9879   20.4326  C     
9    C        26.5162   30.9786   19.5095  C     
10   O        25.2753   33.4018   21.9225  O     
11   S        25.4621   31.8594   21.5890  S     
12   O        24.6444   30.7837   22.4281  O     
13   N        27.0917   31.4535   21.5984  N     
14   O        28.6200   30.5857   20.2376  O     
15   C        20.4761   31.2200   16.9633  C     
16   C        20.6227   31.7211   15.4879  C     
17   C        21.5783   30.9195   14.7198  C     
18   O        22.6289   31.4169   14.3348  O     
19   N        21.3536   29.6628   14.4144  N     
20   N        19.3496   31.6840   14.8284  N     
21   C        19.0572   32.1418   13.6101  C     
22   O        19.9236   32.7227   12.9448  O     
23   C        17.7239   31.9748   13.0276  C     
24   C        17.7542   31.2000   11.6653  C     
25   C        17.6722   29.7243   11.8263  C     
26   C        17.4961   26.9150   12.1667  C     
27   C        16.3657   27.6442   11.7587  C     
28   C        16.4499   29.0396   11.6039  C     
29   C        18.7920   28.9773   12.2542  C     
30   C        18.7099   27.5798   12.4136  C     
31   N        17.1341   33.2661   12.8157  N     
32   C        16.0484   33.7748   13.3945  C     
33   O        15.4746   33.1913   14.3053  O     
34   C        15.5961   35.0916   13.0052  C     
35   C        15.9103   36.1287   14.0233  C     
36   C        17.2278   36.2629   14.5197  C     
37   C        17.5525   37.2550   15.4523  C     
38   C        16.5790   38.1848   15.9083  C     
39   C        15.2590   38.0439   15.4115  C     
40   C        14.9351   37.0497   14.4700  C     
41   C        16.9247   39.2076   16.7986  C     
42   C        16.6846   40.7659   18.4120  C     
43   C        16.1623   39.7043   17.7860  C     
44   S        18.3642   40.1179   16.7130  S     
45   O        19.6098   39.2606   17.2059  O     
46   O        18.4317   40.8615   15.3091  O     
47   N        17.8567   41.1273   17.9493  N     
48   O        16.1605   41.3231   19.3719  O     
49   H        21.9324   33.4134   17.6874  H     
50   H        23.9684   33.5329   18.9551  H     
51   H        23.9614   29.3268   19.3325  H     
52   H        21.9160   29.2140   18.0970  H     
53   H        26.6474   30.6183   18.5877  H     
54   H        27.6893   31.5556   22.3571  H     
55   H        20.0999   30.1887   16.9462  H     
56   H        19.7179   31.8174   17.4648  H     
57   H        20.9618   32.7649   15.5385  H     
58   H        22.0149   29.1559   13.9166  H     
59   H        20.5265   29.2299   14.6918  H     
60   H        18.6184   31.2611   15.3084  H     
61   H        17.1051   31.4019   13.7286  H     
62   H        16.9091   31.5243   11.0528  H     
63   H        18.6440   31.4453   11.0843  H     
64   H        17.4318   25.8974   12.2814  H     
65   H        15.4780   27.1646   11.5863  H     
66   H        15.6147   29.5539   11.3201  H     
67   H        19.6853   29.4395   12.4241  H     
68   H        19.5289   27.0466   12.7173  H     
69   H        17.5631   33.8202   12.1354  H     
70   H        16.0599   35.4000   12.0639  H     
71   H        14.5211   35.0356   12.8112  H     
72   H        17.9700   35.6229   14.2094  H     
73   H        18.5156   37.2948   15.7874  H     
74   H        14.5278   38.7084   15.6730  H     
75   H        13.9748   36.9931   14.1170  H     
76   H        15.2817   39.3149   18.0503  H     
77   H        18.4111   41.8233   18.3392  H     
@<TRIPOS>BOND
     1    1    2 1
     2    1    6 2
     3    1   15 1
     4    2    3 2
     5    3    4 1
     6    4    5 2
     7    4    7 1
     8    5    6 1
     9    7    9 2
    10    7   11 1
    11    8    9 1
    12    8   13 1
    13    8   14 2
    14   10   11 2
    15   11   12 2
    16   11   13 1
    17   16   15 1
    18   16   17 1
    19   16   20 1
    20   17   18 2
    21   17   19 am
    22   20   21 am
    23   21   22 2
    24   21   23 1
    25   23   24 1
    26   23   31 1
    27   24   25 1
    28   25   28 1
    29   25   29 2
    30   26   27 1
    31   26   30 2
    32   27   28 2
    33   29   30 1
    34   31   32 am
    35   32   33 2
    36   32   34 1
    37   34   35 1
    38   35   36 2
    39   35   40 1
    40   36   37 1
    41   37   38 2
    42   38   39 1
    43   38   41 1
    44   39   40 2
    45   41   43 2
    46   41   44 1
    47   42   43 1
    48   42   47 1
    49   42   48 2
    50   44   45 2
    51   44   46 2
    52   44   47 1
    53    2   49 1
    54    3   50 1
    55    5   51 1
    56    6   52 1
    57    9   53 1
    58   13   54 1
    59   15   55 1
    60   15   56 1
    61   16   57 1
    62   19   58 1
    63   19   59 1
    64   20   60 1
    65   23   61 1
    66   24   62 1
    67   24   63 1
    68   26   64 1
    69   27   65 1
    70   28   66 1
    71   29   67 1
    72   30   68 1
    73   31   69 1
    74   34   70 1
    75   34   71 1
    76   36   72 1
    77   37   73 1
    78   39   74 1
    79   40   75 1
    80   43   76 1
    81   47   77 1
@<TRIPOS>PROPERTY_DATA
  Total_Score	| 12.7642
  Crash		| -2.8943
  Polar		| 9.1931
  FragIndex	| 1
  FragRMSD	| 0.533

