@<TRIPOS>MOLECULE
BindingDB_50389176
 42 45 0 0 0
SMALL
NO_CHARGES


@<TRIPOS>ATOM
1    N       116.2433   67.8589   12.1236  N     
2    C       115.1543   67.5689   12.9079  C     
3    C       114.0318   66.7922   12.5215  C     
4    C       112.9246   66.6357   13.3773  C     
5    C       112.9118   67.2533   14.6403  C     
6    C       114.0277   67.9964   15.0548  C     
7    C       115.1369   68.1449   14.1997  C     
8    C       116.6959   66.2768    9.0574  C     
9    C       116.4947   65.4722    7.9181  C     
10   C       117.4882   65.5204    6.9877  C     
11   C       118.6103   66.3052    7.1438  C     
12   C       118.7620   67.0655    8.2449  C     
13   N       117.8016   67.0413    9.1845  N     
14   N       117.7460   67.7013   10.3015  N     
15   C       116.5966   67.3624   10.9143  C     
16   N       115.9367   66.4803   10.1470  N     
17   C       115.3291   64.6946    7.7536  C     
18   C       114.7033   64.5560    6.4876  C     
19   C       113.5422   63.7783    6.3201  C     
20   C       112.9458   63.1280    7.4187  C     
21   C       113.5500   63.2571    8.6846  C     
22   C       114.7264   64.0159    8.8453  C     
23   S       111.5016   62.1603    7.2314  S     
24   O       111.8600   60.6146    7.3526  O     
25   O       110.4724   62.4672    8.4007  O     
26   C       110.6037   62.4064    5.6877  C     
27   H       116.8680   68.5059   12.4986  H     
28   H       113.9789   66.3550   11.5999  H     
29   H       112.1158   66.0803   13.0790  H     
30   H       112.0993   67.1495   15.2543  H     
31   H       114.0307   68.4358   15.9822  H     
32   H       115.9331   68.6939   14.5307  H     
33   H       117.4308   64.9626    6.1675  H     
34   H       119.3045   66.3332    6.4273  H     
35   H       119.5618   67.6419    8.3551  H     
36   H       115.0809   65.0351    5.6639  H     
37   H       113.1363   63.6940    5.3825  H     
38   H       113.1477   62.7884    9.5069  H     
39   H       115.1549   64.0410    9.7761  H     
40   H       110.3739   63.4674    5.5594  H     
41   H       109.6740   61.8422    5.7226  H     
42   H       111.2045   62.0611    4.8430  H     
@<TRIPOS>BOND
     1    1    2 1
     2    1   15 1
     3    2    3 1
     4    2    7 2
     5    3    4 2
     6    4    5 1
     7    5    6 2
     8    6    7 1
     9    8    9 1
    10    8   13 1
    11    8   16 2
    12    9   10 2
    13    9   17 1
    14   10   11 1
    15   11   12 2
    16   12   13 1
    17   13   14 1
    18   14   15 2
    19   15   16 1
    20   17   18 1
    21   17   22 2
    22   18   19 2
    23   19   20 1
    24   20   21 2
    25   20   23 1
    26   21   22 1
    27   23   24 2
    28   23   25 2
    29   23   26 1
    30    1   27 1
    31    3   28 1
    32    4   29 1
    33    5   30 1
    34    6   31 1
    35    7   32 1
    36   10   33 1
    37   11   34 1
    38   12   35 1
    39   18   36 1
    40   19   37 1
    41   21   38 1
    42   22   39 1
    43   26   40 1
    44   26   41 1
    45   26   42 1
@<TRIPOS>PROPERTY_DATA
  Total_Score	| 9.6548
  Crash		| -1.0088
  Polar		| 2.1274
  FragIndex	| 1
  FragRMSD	| 0.148

