@<TRIPOS>MOLECULE
BindingDB_50389186
 55 59 0 0 0
SMALL
NO_CHARGES


@<TRIPOS>ATOM
1    N       116.1610   67.9545   12.0756  N     
2    C       115.0664   67.6347   12.8185  C     
3    C       113.8973   67.0458   12.2913  C     
4    C       112.7926   66.7818   13.1177  C     
5    C       112.8236   67.0662   14.5064  C     
6    C       114.0026   67.6536   15.0235  C     
7    C       115.0949   67.9600   14.1894  C     
8    N       111.7390   66.7948   15.3046  N     
9    C       110.4045   67.2454   14.9725  C     
10   C       109.8296   68.0483   16.1714  C     
11   O       109.9471   67.3129   17.4109  O     
12   C       111.2995   66.9014   17.7067  C     
13   C       111.8619   66.0532   16.5448  C     
14   C       116.6125   66.3247    9.0403  C     
15   C       116.4529   65.4777    7.9286  C     
16   C       117.4886   65.4767    7.0434  C     
17   C       118.6058   66.2607    7.2038  C     
18   C       118.7104   67.0788    8.2703  C     
19   N       117.7220   67.0895    9.1742  N     
20   N       117.6608   67.7700   10.2732  N     
21   C       116.4953   67.4591   10.8652  C     
22   N       115.8334   66.5636   10.1088  N     
23   C       115.2985   64.6901    7.7362  C     
24   C       114.7073   64.5607    6.4524  C     
25   C       113.5610   63.7681    6.2448  C     
26   C       112.9617   63.0853    7.3208  C     
27   C       113.5376   63.1949    8.6006  C     
28   C       114.6859   63.9863    8.8052  C     
29   S       111.5234   62.1208    7.0944  S     
30   O       111.9116   60.5782    7.0929  O     
31   O       110.5480   62.3546    8.3275  O     
32   C       110.5875   62.4943    5.5995  C     
33   H       116.8277   68.5170   12.5022  H     
34   H       113.8242   66.8496   11.2915  H     
35   H       111.9771   66.3236   12.7012  H     
36   H       114.0650   67.9146   16.0111  H     
37   H       115.9168   68.4124   14.5964  H     
38   H       110.3667   67.8950   14.0975  H     
39   H       109.7647   66.3822   14.7686  H     
40   H       110.3447   69.0097   16.2602  H     
41   H       108.7707   68.2481   15.9902  H     
42   H       111.9302   67.7847   17.8804  H     
43   H       111.2918   66.3076   18.6250  H     
44   H       111.2637   65.1472   16.4627  H     
45   H       112.8824   65.7346   16.7804  H     
46   H       117.4680   64.8801    6.2483  H     
47   H       119.3365   66.2361    6.5302  H     
48   H       119.5044   67.6661    8.3833  H     
49   H       115.0928   65.0583    5.6458  H     
50   H       113.1709   63.7040    5.3021  H     
51   H       113.1302   62.6950    9.3967  H     
52   H       115.0828   64.0125    9.7476  H     
53   H       110.3872   63.5644    5.5474  H     
54   H       109.6408   61.9555    5.6291  H     
55   H       111.1512   62.1860    4.7185  H     
@<TRIPOS>BOND
     1    1    2 1
     2    1   21 1
     3    2    3 1
     4    2    7 2
     5    3    4 2
     6    4    5 1
     7    5    6 2
     8    5    8 1
     9    6    7 1
    10    8    9 1
    11    8   13 1
    12    9   10 1
    13   10   11 1
    14   11   12 1
    15   12   13 1
    16   14   15 1
    17   14   19 1
    18   14   22 2
    19   15   16 2
    20   15   23 1
    21   16   17 1
    22   17   18 2
    23   18   19 1
    24   19   20 1
    25   20   21 2
    26   21   22 1
    27   23   24 1
    28   23   28 2
    29   24   25 2
    30   25   26 1
    31   26   27 2
    32   26   29 1
    33   27   28 1
    34   29   30 2
    35   29   31 2
    36   29   32 1
    37    1   33 1
    38    3   34 1
    39    4   35 1
    40    6   36 1
    41    7   37 1
    42    9   38 1
    43    9   39 1
    44   10   40 1
    45   10   41 1
    46   12   42 1
    47   12   43 1
    48   13   44 1
    49   13   45 1
    50   16   46 1
    51   17   47 1
    52   18   48 1
    53   24   49 1
    54   25   50 1
    55   27   51 1
    56   28   52 1
    57   32   53 1
    58   32   54 1
    59   32   55 1
@<TRIPOS>PROPERTY_DATA
  Total_Score	| 10.8303
  Crash		| -1.1284
  Polar		| 2.0436
  FragIndex	| 1
  FragRMSD	| 0.678

