@<TRIPOS>MOLECULE
BindingDB_50254870
 27 29 0 0 0
SMALL
NO_CHARGES


@<TRIPOS>ATOM
1    C        32.7731   39.9948   36.9215  C     
2    C        33.4708   38.7599   36.8570  C     
3    C        34.7754   38.7176   36.2953  C     
4    C        35.3805   39.8854   35.7852  C     
5    C        33.3899   41.1466   36.4112  C     
6    C        34.6620   41.0896   35.8505  C     
7    N        34.9813   42.3221   35.4383  N     
8    N        34.0059   43.1411   35.6963  N     
9    C        33.0005   42.4753   36.2930  C     
10   N        31.8311   43.0251   36.6566  N     
11   C        32.8694   37.5840   37.3553  C     
12   C        32.2542   36.6602   36.4833  C     
13   C        31.6640   35.4884   36.9889  C     
14   C        31.6978   35.2110   38.3680  C     
15   C        32.3171   36.1236   39.2435  C     
16   C        32.8758   37.3139   38.7388  C     
17   Cl       32.3567   35.7972   40.9037  Cl    
18   H        31.8315   40.0497   37.3175  H     
19   H        35.2933   37.8359   36.2560  H     
20   H        36.3181   39.8636   35.3771  H     
21   H        35.8171   42.5628   35.0009  H     
22   H        31.6486   43.9512   36.4298  H     
23   H        31.1419   42.4813   37.0707  H     
24   H        32.2301   36.8417   35.4757  H     
25   H        31.2110   34.8267   36.3533  H     
26   H        31.2623   34.3577   38.7267  H     
27   H        33.2904   37.9925   39.3810  H     
@<TRIPOS>BOND
     1    1    2 2
     2    1    5 1
     3    2    3 1
     4    2   11 1
     5    3    4 2
     6    4    6 1
     7    5    6 2
     8    5    9 1
     9    6    7 1
    10    7    8 1
    11    8    9 2
    12    9   10 1
    13   11   12 2
    14   11   16 1
    15   12   13 1
    16   13   14 2
    17   14   15 1
    18   15   16 2
    19   15   17 1
    20    1   18 1
    21    3   19 1
    22    4   20 1
    23    7   21 1
    24   10   22 1
    25   10   23 1
    26   12   24 1
    27   13   25 1
    28   14   26 1
    29   16   27 1
@<TRIPOS>PROPERTY_DATA
  Total_Score	| 5.8820
  Crash		| -0.7939
  Polar		| 2.7861
  FragIndex	| 1
  FragRMSD	| 0.829

