@<TRIPOS>MOLECULE
BindingDB_50254913
 45 47 0 0 0
SMALL
NO_CHARGES


@<TRIPOS>ATOM
1    C        31.5271   33.3215   39.8396  C     
2    O        30.8786   32.2986   40.0241  O     
3    N        32.7725   33.4533   40.2800  N     
4    C        33.6203   32.4892   40.9350  C     
5    C        32.9219   31.8948   42.1938  C     
6    C        34.0343   31.3492   39.9572  C     
7    C        34.8852   33.2959   41.3596  C     
8    C        32.7378   40.1296   37.0972  C     
9    C        33.4143   38.8828   37.1127  C     
10   C        34.7240   38.7866   36.5732  C     
11   C        35.3698   39.9206   36.0440  C     
12   C        33.3803   41.2415   36.5308  C     
13   C        34.6722   41.1373   36.0263  C     
14   N        35.0182   42.3426   35.5530  N     
15   N        34.0375   43.1826   35.7067  N     
16   C        33.0049   42.5573   36.3030  C     
17   N        31.8241   43.1319   36.5757  N     
18   C        32.7779   37.7290   37.6320  C     
19   C        32.3092   36.7198   36.7608  C     
20   C        31.6667   35.5807   37.2681  C     
21   C        31.5247   35.4020   38.6568  C     
22   C        31.9997   36.4006   39.5331  C     
23   C        32.6012   37.5647   39.0238  C     
24   N        30.9418   34.2500   39.0971  N     
25   H        33.1883   34.3085   40.0880  H     
26   H        32.5635   32.6948   42.8468  H     
27   H        33.6169   31.2641   42.7550  H     
28   H        32.0715   31.2706   41.9167  H     
29   H        33.1654   30.7714   39.6386  H     
30   H        34.7301   30.6629   40.4415  H     
31   H        34.5138   31.7578   39.0667  H     
32   H        35.3460   33.7790   40.4959  H     
33   H        35.6305   32.6477   41.8198  H     
34   H        34.6186   34.0776   42.0740  H     
35   H        31.7845   40.2167   37.4589  H     
36   H        35.2220   37.8906   36.5719  H     
37   H        36.3172   39.8571   35.6679  H     
38   H        35.8738   42.5556   35.1359  H     
39   H        31.6627   44.0500   36.3081  H     
40   H        31.1155   42.6174   36.9917  H     
41   H        32.4225   36.8127   35.7477  H     
42   H        31.3295   34.8650   36.6204  H     
43   H        31.9025   36.2918   40.5430  H     
44   H        32.9204   38.2907   39.6724  H     
45   H        30.0949   34.0049   38.6811  H     
@<TRIPOS>BOND
     1    1    2 2
     2    1    3 am
     3    1   24 am
     4    3    4 1
     5    4    5 1
     6    4    6 1
     7    4    7 1
     8    8    9 2
     9    8   12 1
    10    9   10 1
    11    9   18 1
    12   10   11 2
    13   11   13 1
    14   12   13 2
    15   12   16 1
    16   13   14 1
    17   14   15 1
    18   15   16 2
    19   16   17 1
    20   18   19 2
    21   18   23 1
    22   19   20 1
    23   20   21 2
    24   21   22 1
    25   21   24 1
    26   22   23 2
    27    3   25 1
    28    5   26 1
    29    5   27 1
    30    5   28 1
    31    6   29 1
    32    6   30 1
    33    6   31 1
    34    7   32 1
    35    7   33 1
    36    7   34 1
    37    8   35 1
    38   10   36 1
    39   11   37 1
    40   14   38 1
    41   17   39 1
    42   17   40 1
    43   19   41 1
    44   20   42 1
    45   22   43 1
    46   23   44 1
    47   24   45 1
@<TRIPOS>PROPERTY_DATA
  Total_Score	| 7.7896
  Crash		| -1.4491
  Polar		| 2.9426
  FragIndex	| 1
  FragRMSD	| 0.788

