@<TRIPOS>MOLECULE
BindingDB_50254951
 43 46 0 0 0
SMALL
NO_CHARGES


@<TRIPOS>ATOM
1    C        32.9442   39.8737   37.0316  C     
2    C        33.7179   38.6803   37.0674  C     
3    C        35.0151   38.6978   36.4848  C     
4    C        35.5353   39.8558   35.8693  C     
5    C        33.4776   41.0271   36.4228  C     
6    C        34.7474   41.0112   35.8563  C     
7    N        34.9864   42.2337   35.3539  N     
8    N        33.9654   43.0048   35.5541  N     
9    C        33.0061   42.3216   36.2112  C     
10   N        31.8264   42.8497   36.5670  N     
11   C        33.2356   37.4926   37.7010  C     
12   C        32.7172   37.5285   39.0297  C     
13   C        32.2683   36.3525   39.6654  C     
14   C        32.3418   35.1046   39.0122  C     
15   C        32.8750   35.0525   37.7026  C     
16   C        33.2876   36.2295   37.0499  C     
17   S        31.7365   33.6445   39.7569  S     
18   N        32.8069   32.9053   40.8411  N     
19   O        30.3365   33.9696   40.4342  O     
20   O        31.3913   32.5769   38.6348  O     
21   C        32.4275   32.6003   42.1971  C     
22   C        32.8121   31.1331   42.5342  C     
23   O        34.1659   30.8357   42.1607  O     
24   C        34.4474   31.0919   40.7775  C     
25   C        34.1486   32.5744   40.4184  C     
26   H        32.0033   39.9123   37.4316  H     
27   H        35.6185   37.8735   36.5249  H     
28   H        36.4722   39.8543   35.4598  H     
29   H        35.8055   42.4947   34.9023  H     
30   H        31.6233   43.7724   36.3508  H     
31   H        31.1796   42.3095   37.0432  H     
32   H        32.6764   38.4104   39.5556  H     
33   H        31.8891   36.4206   40.6130  H     
34   H        32.9449   34.1553   37.2109  H     
35   H        33.6349   36.1517   36.0851  H     
36   H        32.9561   33.2804   42.8699  H     
37   H        31.3588   32.7207   42.3792  H     
38   H        32.7261   30.9770   43.6094  H     
39   H        32.1310   30.4381   42.0341  H     
40   H        35.4984   30.8785   40.6006  H     
41   H        33.8550   30.4259   40.1410  H     
42   H        34.3026   32.7275   39.3471  H     
43   H        34.8548   33.2198   40.9509  H     
@<TRIPOS>BOND
     1    1    2 2
     2    1    5 1
     3    2    3 1
     4    2   11 1
     5    3    4 2
     6    4    6 1
     7    5    6 2
     8    5    9 1
     9    6    7 1
    10    7    8 1
    11    8    9 2
    12    9   10 1
    13   11   12 2
    14   11   16 1
    15   12   13 1
    16   13   14 2
    17   14   15 1
    18   14   17 1
    19   15   16 2
    20   17   18 1
    21   17   19 2
    22   17   20 2
    23   18   21 1
    24   18   25 1
    25   21   22 1
    26   22   23 1
    27   23   24 1
    28   24   25 1
    29    1   26 1
    30    3   27 1
    31    4   28 1
    32    7   29 1
    33   10   30 1
    34   10   31 1
    35   12   32 1
    36   13   33 1
    37   15   34 1
    38   16   35 1
    39   21   36 1
    40   21   37 1
    41   22   38 1
    42   22   39 1
    43   24   40 1
    44   24   41 1
    45   25   42 1
    46   25   43 1
@<TRIPOS>PROPERTY_DATA
  Total_Score	| 9.1488
  Crash		| -0.9618
  Polar		| 3.1770
  FragIndex	| 1
  FragRMSD	| 0.774

