@<TRIPOS>MOLECULE
BindingDB_50254911
 44 46 0 0 0
SMALL
NO_CHARGES


@<TRIPOS>ATOM
1    C        32.9349   39.8961   36.9200  C     
2    C        33.7149   38.7080   36.9913  C     
3    C        35.0295   38.7083   36.4483  C     
4    C        35.5713   39.8712   35.8654  C     
5    C        33.4903   41.0402   36.3268  C     
6    C        34.7846   41.0276   35.8225  C     
7    N        35.0477   42.2529   35.3407  N     
8    N        34.0093   43.0260   35.4924  N     
9    C        33.0240   42.3291   36.0928  C     
10   N        31.8092   42.8346   36.3705  N     
11   C        33.2147   37.5475   37.6551  C     
12   C        33.2644   36.2637   37.0543  C     
13   C        32.7725   35.1275   37.7254  C     
14   C        32.2254   35.2467   39.0189  C     
15   C        32.1967   36.5137   39.6354  C     
16   C        32.6828   37.6447   38.9604  C     
17   S        31.5395   33.8535   39.8060  S     
18   N        32.5271   32.4911   39.8722  N     
19   C        33.4560   32.1586   40.9166  C     
20   C        34.2392   30.9083   40.4169  C     
21   C        34.4774   33.3135   41.1700  C     
22   C        32.6948   31.7840   42.2234  C     
23   O        31.0038   34.2032   41.2676  O     
24   O        30.2252   33.4260   39.0129  O     
25   H        31.9836   39.9296   37.2921  H     
26   H        35.6152   37.8699   36.5074  H     
27   H        36.5239   39.8735   35.4911  H     
28   H        35.8844   42.5263   34.9290  H     
29   H        31.5984   43.7505   36.1181  H     
30   H        31.1283   42.2784   36.7794  H     
31   H        33.6416   36.1474   36.1073  H     
32   H        32.7983   34.2142   37.2591  H     
33   H        31.8089   36.6288   40.5745  H     
34   H        32.6515   38.5495   39.4439  H     
35   H        32.5230   31.9096   39.0749  H     
36   H        33.5532   30.0718   40.2244  H     
37   H        34.9810   30.5869   41.1538  H     
38   H        34.7618   31.1397   39.4768  H     
39   H        34.9699   33.5980   40.2357  H     
40   H        35.2496   32.9982   41.8867  H     
41   H        33.9784   34.1978   41.5833  H     
42   H        32.2359   32.6765   42.6715  H     
43   H        33.3702   31.3401   42.9595  H     
44   H        31.9004   31.0630   42.0140  H     
@<TRIPOS>BOND
     1    1    2 2
     2    1    5 1
     3    2    3 1
     4    2   11 1
     5    3    4 2
     6    4    6 1
     7    5    6 2
     8    5    9 1
     9    6    7 1
    10    7    8 1
    11    8    9 2
    12    9   10 1
    13   11   12 2
    14   11   16 1
    15   12   13 1
    16   13   14 2
    17   14   15 1
    18   14   17 1
    19   15   16 2
    20   17   18 1
    21   17   23 2
    22   17   24 2
    23   18   19 1
    24   19   20 1
    25   19   21 1
    26   19   22 1
    27    1   25 1
    28    3   26 1
    29    4   27 1
    30    7   28 1
    31   10   29 1
    32   10   30 1
    33   12   31 1
    34   13   32 1
    35   15   33 1
    36   16   34 1
    37   18   35 1
    38   20   36 1
    39   20   37 1
    40   20   38 1
    41   21   39 1
    42   21   40 1
    43   21   41 1
    44   22   42 1
    45   22   43 1
    46   22   44 1
@<TRIPOS>PROPERTY_DATA
  Total_Score	| 9.0128
  Crash		| -1.1228
  Polar		| 3.0671
  FragIndex	| 1
  FragRMSD	| 0.917

