@<TRIPOS>MOLECULE
BindingDB_50254912
 43 45 0 0 0
SMALL
NO_CHARGES


@<TRIPOS>ATOM
1    C        32.9312   39.9606   36.9957  C     
2    C        33.7023   38.7652   37.0084  C     
3    C        34.9737   38.7717   36.3620  C     
4    C        35.4812   39.9387   35.7616  C     
5    C        33.4456   41.1205   36.3937  C     
6    C        34.7029   41.1046   35.7985  C     
7    N        34.9487   42.3381   35.3371  N     
8    N        33.9434   43.1193   35.5903  N     
9    C        32.9833   42.4241   36.2324  C     
10   N        31.8098   42.9516   36.6179  N     
11   C        33.2330   37.6034   37.6934  C     
12   C        33.2950   36.3105   37.1264  C     
13   C        32.8051   35.1837   37.8127  C     
14   C        32.2156   35.3128   39.0927  C     
15   C        32.1781   36.6012   39.6690  C     
16   C        32.7012   37.7133   38.9981  C     
17   C        31.7133   34.2276   39.7720  C     
18   O        30.4979   34.2283   40.0032  O     
19   N        32.5406   33.2554   40.1619  N     
20   C        32.3168   32.0445   40.9245  C     
21   C        33.1054   32.1899   42.2606  C     
22   C        30.8342   31.6467   41.2475  C     
23   C        32.9425   30.9045   40.0600  C     
24   H        32.0041   39.9939   37.4236  H     
25   H        35.5611   37.9351   36.3571  H     
26   H        36.4055   39.9470   35.3202  H     
27   H        35.7663   42.6115   34.8816  H     
28   H        31.6101   43.8834   36.4018  H     
29   H        31.1488   42.4016   37.0713  H     
30   H        33.6853   36.1728   36.1899  H     
31   H        32.8507   34.2684   37.3583  H     
32   H        31.8207   36.7270   40.6175  H     
33   H        32.6857   38.6170   39.4757  H     
34   H        33.4811   33.4300   39.9594  H     
35   H        34.1669   32.3741   42.0757  H     
36   H        33.0217   31.2776   42.8672  H     
37   H        32.7150   33.0243   42.8506  H     
38   H        30.3793   32.3472   41.9497  H     
39   H        30.7834   30.6624   41.7092  H     
40   H        30.2429   31.6252   40.3270  H     
41   H        32.4052   30.8177   39.1083  H     
42   H        32.8859   29.9408   40.5782  H     
43   H        33.9934   31.1119   39.8386  H     
@<TRIPOS>BOND
     1    1    2 2
     2    1    5 1
     3    2    3 1
     4    2   11 1
     5    3    4 2
     6    4    6 1
     7    5    6 2
     8    5    9 1
     9    6    7 1
    10    7    8 1
    11    8    9 2
    12    9   10 1
    13   11   12 2
    14   11   16 1
    15   12   13 1
    16   13   14 2
    17   14   15 1
    18   14   17 1
    19   15   16 2
    20   17   18 2
    21   17   19 am
    22   19   20 1
    23   20   21 1
    24   20   22 1
    25   20   23 1
    26    1   24 1
    27    3   25 1
    28    4   26 1
    29    7   27 1
    30   10   28 1
    31   10   29 1
    32   12   30 1
    33   13   31 1
    34   15   32 1
    35   16   33 1
    36   19   34 1
    37   21   35 1
    38   21   36 1
    39   21   37 1
    40   22   38 1
    41   22   39 1
    42   22   40 1
    43   23   41 1
    44   23   42 1
    45   23   43 1
@<TRIPOS>PROPERTY_DATA
  Total_Score	| 7.8633
  Crash		| -0.5601
  Polar		| 2.7808
  FragIndex	| 1
  FragRMSD	| 0.707

