@<TRIPOS>MOLECULE
BindingDB_50254869
 27 29 0 0 0
SMALL
NO_CHARGES


@<TRIPOS>ATOM
1    C        32.6671   40.0763   36.9844  C     
2    C        33.3638   38.8408   37.0064  C     
3    C        34.6885   38.7767   36.4984  C     
4    C        35.3160   39.9178   35.9645  C     
5    C        33.3057   41.2068   36.4463  C     
6    C        34.6017   41.1237   35.9494  C     
7    N        34.9487   42.3405   35.5116  N     
8    N        33.9723   43.1750   35.7007  N     
9    C        32.9342   42.5341   36.2723  C     
10   N        31.7685   43.1182   36.5957  N     
11   C        32.7895   37.6998   37.6162  C     
12   C        32.8106   37.6141   39.0279  C     
13   C        32.3806   36.4483   39.6859  C     
14   C        31.8966   35.3602   38.9479  C     
15   C        31.8239   35.4485   37.5453  C     
16   C        32.2581   36.6128   36.8751  C     
17   Cl       32.0529   36.6756   35.1906  Cl    
18   H        31.7168   40.1580   37.3521  H     
19   H        35.2260   37.9111   36.5488  H     
20   H        36.2751   39.8750   35.6141  H     
21   H        35.8051   42.5649   35.1087  H     
22   H        31.6240   44.0560   36.3859  H     
23   H        31.0597   42.6011   37.0114  H     
24   H        33.1640   38.3926   39.5924  H     
25   H        32.4233   36.3949   40.7061  H     
26   H        31.5864   34.5139   39.4310  H     
27   H        31.4474   34.6605   37.0193  H     
@<TRIPOS>BOND
     1    1    2 2
     2    1    5 1
     3    2    3 1
     4    2   11 1
     5    3    4 2
     6    4    6 1
     7    5    6 2
     8    5    9 1
     9    6    7 1
    10    7    8 1
    11    8    9 2
    12    9   10 1
    13   11   12 2
    14   11   16 1
    15   12   13 1
    16   13   14 2
    17   14   15 1
    18   15   16 2
    19   16   17 1
    20    1   18 1
    21    3   19 1
    22    4   20 1
    23    7   21 1
    24   10   22 1
    25   10   23 1
    26   12   24 1
    27   13   25 1
    28   14   26 1
    29   15   27 1
@<TRIPOS>PROPERTY_DATA
  Total_Score	| 6.0968
  Crash		| -0.7776
  Polar		| 2.7738
  FragIndex	| 1
  FragRMSD	| 0.737

