@<TRIPOS>MOLECULE
BindingDB_50254952
 44 46 0 0 0
SMALL
NO_CHARGES


@<TRIPOS>ATOM
1    C        32.8084   40.0023   37.0781  C     
2    C        33.5386   38.7771   37.0179  C     
3    C        34.7845   38.7567   36.3380  C     
4    C        35.3107   39.9197   35.7413  C     
5    C        33.3421   41.1562   36.4661  C     
6    C        34.5782   41.1127   35.8295  C     
7    N        34.8490   42.3375   35.3631  N     
8    N        33.8656   43.1411   35.6302  N     
9    C        32.9097   42.4691   36.3009  C     
10   N        31.7407   43.0115   36.6829  N     
11   C        33.0461   37.5893   37.6352  C     
12   C        32.9860   36.3760   36.9094  C     
13   C        32.5433   35.1904   37.5228  C     
14   C        32.1616   35.1907   38.8778  C     
15   C        32.2526   36.3874   39.6189  C     
16   C        32.6844   37.5783   39.0017  C     
17   S        31.4771   33.7526   39.5918  S     
18   N        32.1265   33.1437   41.0263  N     
19   C        33.2402   32.2446   41.1653  C     
20   C        32.9431   31.3646   42.4146  C     
21   C        33.4658   31.3096   39.9348  C     
22   C        34.5168   33.0989   41.4140  C     
23   O        30.0011   34.1723   40.0066  O     
24   O        31.1738   32.5756   38.5662  O     
25   Cl       36.7887   39.8813   34.9282  Cl    
26   H        31.8975   40.0583   37.5492  H     
27   H        35.3239   37.8871   36.2838  H     
28   H        35.6559   42.5879   34.8832  H     
29   H        31.5490   43.9297   36.4405  H     
30   H        31.0709   42.4783   37.1339  H     
31   H        33.2492   36.3459   35.9194  H     
32   H        32.4850   34.3312   36.9696  H     
33   H        31.9891   36.4049   40.6064  H     
34   H        32.7407   38.4350   39.5606  H     
35   H        31.8049   33.5642   41.8485  H     
36   H        32.7611   31.9925   43.2899  H     
37   H        33.7900   30.7064   42.6313  H     
38   H        32.0561   30.7466   42.2438  H     
39   H        32.5648   30.7225   39.7299  H     
40   H        34.2898   30.6118   40.1228  H     
41   H        33.7102   31.8840   39.0372  H     
42   H        34.7785   33.6703   40.5254  H     
43   H        35.3629   32.4567   41.6703  H     
44   H        34.3646   33.7981   42.2355  H     
@<TRIPOS>BOND
     1    1    2 2
     2    1    5 1
     3    2    3 1
     4    2   11 1
     5    3    4 2
     6    4    6 1
     7    4   25 1
     8    5    6 2
     9    5    9 1
    10    6    7 1
    11    7    8 1
    12    8    9 2
    13    9   10 1
    14   11   12 2
    15   11   16 1
    16   12   13 1
    17   13   14 2
    18   14   15 1
    19   14   17 1
    20   15   16 2
    21   17   18 1
    22   17   23 2
    23   17   24 2
    24   18   19 1
    25   19   20 1
    26   19   21 1
    27   19   22 1
    28    1   26 1
    29    3   27 1
    30    7   28 1
    31   10   29 1
    32   10   30 1
    33   12   31 1
    34   13   32 1
    35   15   33 1
    36   16   34 1
    37   18   35 1
    38   20   36 1
    39   20   37 1
    40   20   38 1
    41   21   39 1
    42   21   40 1
    43   21   41 1
    44   22   42 1
    45   22   43 1
    46   22   44 1
@<TRIPOS>PROPERTY_DATA
  Total_Score	| 7.4261
  Crash		| -1.7223
  Polar		| 2.6418
  FragIndex	| 1
  FragRMSD	| 0.559

