@<TRIPOS>MOLECULE
BindingDB_50254949
 44 47 0 0 0
SMALL
NO_CHARGES


@<TRIPOS>ATOM
1    C        32.8829   39.9899   36.9745  C     
2    C        33.6217   38.7775   37.0183  C     
3    C        34.9044   38.7214   36.4108  C     
4    C        35.4504   39.8463   35.7623  C     
5    C        33.4354   41.0998   36.3167  C     
6    C        34.6897   41.0256   35.7262  C     
7    N        34.9474   42.2233   35.1823  N     
8    N        33.9498   43.0287   35.3879  N     
9    C        32.9864   42.3912   36.0805  C     
10   N        31.8167   42.9402   36.4448  N     
11   C        33.0786   37.6457   37.6694  C     
12   C        32.9780   36.4015   37.0050  C     
13   C        32.4186   35.2840   37.6524  C     
14   C        31.9953   35.3689   38.9977  C     
15   C        32.1108   36.6065   39.6602  C     
16   C        32.6368   37.7344   39.0073  C     
17   C        31.4716   34.1606   39.6987  C     
18   N        32.4102   32.9845   39.7939  N     
19   C        33.8612   33.2721   40.0379  C     
20   C        34.1261   33.6765   41.5085  C     
21   O        33.6671   32.6364   42.3895  O     
22   C        32.2699   32.3087   42.2379  C     
23   C        31.9293   31.9448   40.7676  C     
24   H        31.9534   40.0621   37.3956  H     
25   H        35.4624   37.8606   36.4504  H     
26   H        36.3761   39.8071   35.3302  H     
27   H        35.7607   42.4523   34.7051  H     
28   H        31.6165   43.8546   36.1856  H     
29   H        31.1616   42.4200   36.9375  H     
30   H        33.3042   36.3019   36.0416  H     
31   H        32.3435   34.4030   37.1401  H     
32   H        31.8262   36.7045   40.6397  H     
33   H        32.7246   38.6135   39.5248  H     
34   H        31.1261   34.4495   40.6952  H     
35   H        30.5843   33.8282   39.1538  H     
36   H        32.3767   32.5447   38.8718  H     
37   H        34.4311   32.3634   39.8244  H     
38   H        34.2412   34.0388   39.3600  H     
39   H        35.1987   33.8131   41.6630  H     
40   H        33.6267   34.6222   41.7391  H     
41   H        32.0556   31.4531   42.8807  H     
42   H        31.6582   33.1446   42.5843  H     
43   H        30.8516   31.7837   40.6703  H     
44   H        32.4146   30.9955   40.5252  H     
@<TRIPOS>BOND
     1    1    2 2
     2    1    5 1
     3    2    3 1
     4    2   11 1
     5    3    4 2
     6    4    6 1
     7    5    6 2
     8    5    9 1
     9    6    7 1
    10    7    8 1
    11    8    9 2
    12    9   10 1
    13   11   12 2
    14   11   16 1
    15   12   13 1
    16   13   14 2
    17   14   15 1
    18   14   17 1
    19   15   16 2
    20   17   18 1
    21   18   19 1
    22   18   23 1
    23   19   20 1
    24   20   21 1
    25   21   22 1
    26   22   23 1
    27    1   24 1
    28    3   25 1
    29    4   26 1
    30    7   27 1
    31   10   28 1
    32   10   29 1
    33   12   30 1
    34   13   31 1
    35   15   32 1
    36   16   33 1
    37   17   34 1
    38   17   35 1
    39   18   36 1
    40   19   37 1
    41   19   38 1
    42   20   39 1
    43   20   40 1
    44   22   41 1
    45   22   42 1
    46   23   43 1
    47   23   44 1
@<TRIPOS>PROPERTY_DATA
  Total_Score	| 9.1807
  Crash		| -0.7352
  Polar		| 3.0076
  FragIndex	| 1
  FragRMSD	| 0.749

