@<TRIPOS>MOLECULE
BindingDB_50254909
 45 48 0 0 0
SMALL
NO_CHARGES


@<TRIPOS>ATOM
1    C        34.0956   39.4822   36.6504  C     
2    C        32.9788   39.0707   37.4260  C     
3    C        31.9017   39.9834   37.6068  C     
4    C        31.9174   41.2659   37.0232  C     
5    C        34.0995   40.7682   36.0773  C     
6    C        33.0219   41.6321   36.2487  C     
7    N        33.2867   42.7573   35.5680  N     
8    N        34.4507   42.6718   35.0063  N     
9    C        35.0023   41.4725   35.2923  C     
10   N        36.2114   41.0560   34.8891  N     
11   C        32.9235   37.7751   38.0177  C     
12   C        32.5346   37.6209   39.3702  C     
13   C        32.4616   36.3500   39.9644  C     
14   C        32.7732   35.1682   39.2461  C     
15   C        33.1290   35.3337   37.8805  C     
16   C        33.2166   36.6081   37.2817  C     
17   N        32.7555   33.9260   39.8460  N     
18   C        33.9624   33.1189   39.9910  C     
19   C        34.1901   32.7207   41.4757  C     
20   N        32.9815   32.1552   42.1459  N     
21   C        31.7727   33.0095   41.9122  C     
22   C        31.5552   33.3347   40.4105  C     
23   C        32.7684   30.7026   41.8833  C     
24   H        34.9011   38.8659   36.5075  H     
25   H        31.0761   39.7082   38.1432  H     
26   H        31.1307   41.9069   37.1511  H     
27   H        32.6912   43.5250   35.5063  H     
28   H        36.7658   41.6335   34.3448  H     
29   H        36.5408   40.1833   35.1535  H     
30   H        32.3363   38.4427   39.9473  H     
31   H        32.2549   36.3036   40.9650  H     
32   H        33.2838   34.5120   37.2927  H     
33   H        33.4599   36.6684   36.2901  H     
34   H        33.8753   32.2153   39.3732  H     
35   H        34.8666   33.6535   39.6851  H     
36   H        35.0261   32.0203   41.5385  H     
37   H        34.4824   33.6163   42.0266  H     
38   H        33.1673   32.2119   43.1504  H     
39   H        30.8786   32.5214   42.3096  H     
40   H        31.8983   33.9496   42.4671  H     
41   H        30.6576   33.9458   40.3011  H     
42   H        31.3439   32.4109   39.8767  H     
43   H        32.5482   30.5064   40.8334  H     
44   H        31.9421   30.3355   42.4939  H     
45   H        33.6559   30.1343   42.1657  H     
@<TRIPOS>BOND
     1    1    2 2
     2    1    5 1
     3    2    3 1
     4    2   11 1
     5    3    4 2
     6    4    6 1
     7    5    6 2
     8    5    9 1
     9    6    7 1
    10    7    8 1
    11    8    9 2
    12    9   10 1
    13   11   12 2
    14   11   16 1
    15   12   13 1
    16   13   14 2
    17   14   15 1
    18   14   17 1
    19   15   16 2
    20   17   18 1
    21   17   22 1
    22   18   19 1
    23   19   20 1
    24   20   21 1
    25   20   23 1
    26   21   22 1
    27    1   24 1
    28    3   25 1
    29    4   26 1
    30    7   27 1
    31   10   28 1
    32   10   29 1
    33   12   30 1
    34   13   31 1
    35   15   32 1
    36   16   33 1
    37   18   34 1
    38   18   35 1
    39   19   36 1
    40   19   37 1
    41   20   38 1
    42   21   39 1
    43   21   40 1
    44   22   41 1
    45   22   42 1
    46   23   43 1
    47   23   44 1
    48   23   45 1
@<TRIPOS>PROPERTY_DATA
  Total_Score	| 10.0437
  Crash		| -0.5003
  Polar		| 3.0993
  FragIndex	| 1
  FragRMSD	| 0.649

