@<TRIPOS>MOLECULE
BindingDB_50254950
 36 38 0 0 0
SMALL
NO_CHARGES


@<TRIPOS>ATOM
1    C        32.9295   39.9982   37.0115  C     
2    C        33.7116   38.8122   37.0577  C     
3    C        35.0113   38.8225   36.4825  C     
4    C        35.5282   39.9804   35.8705  C     
5    C        33.4533   41.1447   36.3985  C     
6    C        34.7259   41.1310   35.8392  C     
7    N        34.9522   42.3470   35.3313  N     
8    N        33.9256   43.1166   35.5333  N     
9    C        32.9684   42.4281   36.1879  C     
10   N        31.7754   42.9329   36.5416  N     
11   C        33.2058   37.6474   37.6934  C     
12   C        32.5791   37.7362   38.9598  C     
13   C        32.0598   36.5932   39.5886  C     
14   C        32.1983   35.3259   38.9865  C     
15   C        32.8131   35.2272   37.7214  C     
16   C        33.3090   36.3765   37.0798  C     
17   S        31.6031   33.9067   39.8054  S     
18   O        30.0375   33.8630   39.5288  O     
19   O        32.2045   32.5885   39.1480  O     
20   C        31.8639   33.9723   41.6047  C     
21   C        32.5788   32.7213   42.1632  C     
22   H        31.9833   40.0314   37.4061  H     
23   H        35.6109   37.9921   36.5313  H     
24   H        36.4653   39.9885   35.4680  H     
25   H        35.7660   42.6094   34.8731  H     
26   H        31.5476   43.8481   36.2976  H     
27   H        31.1304   42.3795   37.0156  H     
28   H        32.5047   38.6339   39.4446  H     
29   H        31.5875   36.6900   40.4902  H     
30   H        32.9011   34.3247   37.2531  H     
31   H        33.7404   36.2725   36.1560  H     
32   H        32.4495   34.8619   41.8447  H     
33   H        30.8951   34.0683   42.0948  H     
34   H        31.9813   31.8273   41.9828  H     
35   H        32.7207   32.8228   43.2393  H     
36   H        33.5576   32.5981   41.6949  H     
@<TRIPOS>BOND
     1    1    2 2
     2    1    5 1
     3    2    3 1
     4    2   11 1
     5    3    4 2
     6    4    6 1
     7    5    6 2
     8    5    9 1
     9    6    7 1
    10    7    8 1
    11    8    9 2
    12    9   10 1
    13   11   12 2
    14   11   16 1
    15   12   13 1
    16   13   14 2
    17   14   15 1
    18   14   17 1
    19   15   16 2
    20   17   18 2
    21   17   19 2
    22   17   20 1
    23   20   21 1
    24    1   22 1
    25    3   23 1
    26    4   24 1
    27    7   25 1
    28   10   26 1
    29   10   27 1
    30   12   28 1
    31   13   29 1
    32   15   30 1
    33   16   31 1
    34   20   32 1
    35   20   33 1
    36   21   34 1
    37   21   35 1
    38   21   36 1
@<TRIPOS>PROPERTY_DATA
  Total_Score	| 7.9647
  Crash		| -0.6301
  Polar		| 2.8646
  FragIndex	| 1
  FragRMSD	| 0.713

