@<TRIPOS>MOLECULE
BindingDB_50254831
 27 29 0 0 0
SMALL
NO_CHARGES


@<TRIPOS>ATOM
1    C        32.9086   39.9918   37.0133  C     
2    C        33.6702   38.7924   37.0200  C     
3    C        34.9590   38.7871   36.4146  C     
4    C        35.4876   39.9506   35.8171  C     
5    C        33.4404   41.1442   36.4046  C     
6    C        34.7071   41.1157   35.8266  C     
7    N        34.9532   42.3323   35.3243  N     
8    N        33.9363   43.1121   35.5308  N     
9    C        32.9761   42.4364   36.1894  C     
10   N        31.7963   42.9790   36.5289  N     
11   C        33.1689   37.6178   37.6510  C     
12   C        33.1405   36.3703   36.9809  C     
13   C        32.6475   35.2154   37.6187  C     
14   C        32.1966   35.2798   38.9469  C     
15   C        32.2307   36.5057   39.6292  C     
16   C        32.6990   37.6656   38.9845  C     
17   H        31.9750   40.0304   37.4248  H     
18   H        35.5333   37.9410   36.4190  H     
19   H        36.4117   39.9454   35.3818  H     
20   H        35.7718   42.5909   34.8652  H     
21   H        31.5916   43.8873   36.2456  H     
22   H        31.1347   42.4628   37.0173  H     
23   H        33.4596   36.2957   36.0100  H     
24   H        32.6125   34.3236   37.1159  H     
25   H        31.8424   34.4379   39.4129  H     
26   H        31.9071   36.5562   40.5978  H     
27   H        32.7145   38.5453   39.5088  H     
@<TRIPOS>BOND
     1    1    2 2
     2    1    5 1
     3    2    3 1
     4    2   11 1
     5    3    4 2
     6    4    6 1
     7    5    6 2
     8    5    9 1
     9    6    7 1
    10    7    8 1
    11    8    9 2
    12    9   10 1
    13   11   12 2
    14   11   16 1
    15   12   13 1
    16   13   14 2
    17   14   15 1
    18   15   16 2
    19    1   17 1
    20    3   18 1
    21    4   19 1
    22    7   20 1
    23   10   21 1
    24   10   22 1
    25   12   23 1
    26   13   24 1
    27   14   25 1
    28   15   26 1
    29   16   27 1
@<TRIPOS>PROPERTY_DATA
  Total_Score	| 6.9359
  Crash		| -0.3281
  Polar		| 2.9823
  FragIndex	| 1
  FragRMSD	| 0.683

