@<TRIPOS>MOLECULE
BindingDB_50254866
 26 28 0 0 0
SMALL
NO_CHARGES


@<TRIPOS>ATOM
1    C        32.9108   39.9659   37.0353  C     
2    C        33.6859   38.7762   37.0968  C     
3    C        34.9932   38.7849   36.5300  C     
4    C        35.5177   39.9381   35.9105  C     
5    C        33.4498   41.1157   36.4245  C     
6    C        34.7255   41.0933   35.8748  C     
7    N        34.9752   42.3085   35.3647  N     
8    N        33.9525   43.0847   35.5436  N     
9    C        32.9851   42.4067   36.1905  C     
10   N        31.7900   42.9298   36.5149  N     
11   C        33.1934   37.6004   37.7486  C     
12   C        32.6290   37.6781   39.0451  C     
13   C        32.1839   36.5106   39.6898  C     
14   N        32.2935   35.3071   39.0801  N     
15   C        32.8260   35.1815   37.8399  C     
16   C        33.2829   36.3194   37.1501  C     
17   H        31.9654   40.0040   37.4221  H     
18   H        35.5946   37.9597   36.5865  H     
19   H        36.4580   39.9397   35.5081  H     
20   H        35.8041   42.5661   34.9213  H     
21   H        31.5662   43.8243   36.2177  H     
22   H        31.1381   42.4092   37.0039  H     
23   H        32.5634   38.5709   39.5414  H     
24   H        31.7810   36.5632   40.6260  H     
25   H        32.8933   34.2540   37.4150  H     
26   H        33.6718   36.1996   36.2106  H     
@<TRIPOS>BOND
     1    1    2 2
     2    1    5 1
     3    2    3 1
     4    2   11 1
     5    3    4 2
     6    4    6 1
     7    5    6 2
     8    5    9 1
     9    6    7 1
    10    7    8 1
    11    8    9 2
    12    9   10 1
    13   11   12 2
    14   11   16 1
    15   12   13 1
    16   13   14 2
    17   14   15 1
    18   15   16 2
    19    1   17 1
    20    3   18 1
    21    4   19 1
    22    7   20 1
    23   10   21 1
    24   10   22 1
    25   12   23 1
    26   13   24 1
    27   15   25 1
    28   16   26 1
@<TRIPOS>PROPERTY_DATA
  Total_Score	| 7.1396
  Crash		| -0.3326
  Polar		| 2.9894
  FragIndex	| 1
  FragRMSD	| 0.714

