@<TRIPOS>MOLECULE
BindingDB_50341643
 50 53 0 0 0
SMALL
NO_CHARGES


@<TRIPOS>ATOM
1    C        -0.2982   15.0628   30.7430  C     
2    C         0.6526   16.0922   30.5710  C     
3    C         0.4984   17.2719   31.3253  C     
4    C        -1.3885   15.1651   31.6461  C     
5    C        -1.4977   16.3527   32.4302  C     
6    C        -0.5606   17.4058   32.2381  C     
7    N        -0.6993   18.5589   32.9411  N     
8    C        -1.6784   18.7475   33.8049  C     
9    C        -2.6045   17.7597   34.0635  C     
10   C        -2.4923   16.5870   33.3970  C     
11   N        -3.5850   17.9567   34.9320  N     
12   C        -4.9452   17.9147   34.5318  C     
13   C        -5.6540   19.2314   34.9257  C     
14   O        -5.4196   19.5443   36.3150  O     
15   C        -4.0200   19.5843   36.6684  C     
16   C        -3.3267   18.2486   36.2996  C     
17   N        -2.3070   14.1598   31.7753  N     
18   C         1.7786   15.8941   29.6106  C     
19   F         2.6467   16.9571   29.5171  F     
20   F         2.5212   14.8065   29.9994  F     
21   F         1.2920   15.6654   28.3425  F     
22   C        -2.4467   12.9567   31.0072  C     
23   C        -3.0243   13.2220   29.6606  C     
24   C        -2.2690   13.0295   28.4821  C     
25   C        -2.7840   13.3368   27.1977  C     
26   C        -4.1241   13.7893   27.1171  C     
27   C        -4.9065   13.9452   28.2721  C     
28   C        -4.3567   13.6772   29.5389  C     
29   N        -1.9988   13.2305   26.0877  N     
30   O        -2.3612   13.6099   25.0063  O     
31   O        -0.7656   12.7975   26.1442  O     
32   H        -0.1777   14.2137   30.1964  H     
33   H         1.1727   18.0352   31.2335  H     
34   H        -1.7204   19.6209   34.2814  H     
35   H        -3.1478   15.8701   33.6002  H     
36   H        -5.0801   17.7586   33.4542  H     
37   H        -5.4345   17.0790   35.0412  H     
38   H        -5.3034   20.0538   34.2952  H     
39   H        -6.7299   19.1267   34.7754  H     
40   H        -3.5318   20.4208   36.1548  H     
41   H        -3.9349   19.7573   37.7440  H     
42   H        -3.7376   17.4489   36.9195  H     
43   H        -2.2579   18.3183   36.5347  H     
44   H        -2.9660   14.2645   32.4746  H     
45   H        -1.4842   12.4414   30.9477  H     
46   H        -3.1154   12.2815   31.5427  H     
47   H        -1.3109   12.6840   28.5638  H     
48   H        -4.5445   14.0174   26.2119  H     
49   H        -5.8740   14.2688   28.1940  H     
50   H        -4.9388   13.8075   30.3700  H     
@<TRIPOS>BOND
     1    1    2 2
     2    1    4 1
     3    2    3 1
     4    2   18 1
     5    3    6 2
     6    4    5 2
     7    4   17 1
     8    5    6 1
     9    5   10 1
    10    6    7 1
    11    7    8 2
    12    8    9 1
    13    9   10 2
    14    9   11 1
    15   11   12 1
    16   11   16 1
    17   12   13 1
    18   13   14 1
    19   14   15 1
    20   15   16 1
    21   17   22 1
    22   18   19 1
    23   18   20 1
    24   18   21 1
    25   22   23 1
    26   23   24 2
    27   23   28 1
    28   24   25 1
    29   25   26 2
    30   25   29 am
    31   26   27 1
    32   27   28 2
    33   29   30 2
    34   29   31 1
    35    1   32 1
    36    3   33 1
    37    8   34 1
    38   10   35 1
    39   12   36 1
    40   12   37 1
    41   13   38 1
    42   13   39 1
    43   15   40 1
    44   15   41 1
    45   16   42 1
    46   16   43 1
    47   17   44 1
    48   22   45 1
    49   22   46 1
    50   24   47 1
    51   26   48 1
    52   27   49 1
    53   28   50 1
@<TRIPOS>PROPERTY_DATA
  Total_Score	| 10.6763
  Crash		| -0.7212
  Polar		| 3.4830
  FragIndex	| 1
  FragRMSD	| 0.479

