@<TRIPOS>MOLECULE
BindingDB_50341629
 58 61 0 0 0
SMALL
NO_CHARGES


@<TRIPOS>ATOM
1    C        -0.4398   15.1432   30.6607  C     
2    C         0.4937   16.1868   30.5213  C     
3    C         0.3531   17.3501   31.2772  C     
4    C        -1.5232   15.1843   31.5769  C     
5    C        -1.5877   16.3429   32.3874  C     
6    C        -0.6867   17.4106   32.2173  C     
7    N        -0.7713   18.5115   33.0131  N     
8    C        -1.6981   18.6348   33.9682  C     
9    C        -2.6355   17.6368   34.1521  C     
10   C        -2.5642   16.5364   33.3794  C     
11   N        -3.6228   17.8582   35.0281  N     
12   C        -3.3972   18.0862   36.4117  C     
13   C        -4.0790   19.3680   36.8894  C     
14   N        -5.5449   19.4318   36.5367  N     
15   C        -5.6859   19.1535   35.0569  C     
16   C        -4.9905   17.8545   34.6113  C     
17   C        -6.4815   18.6267   37.4039  C     
18   N        -2.3895   14.1397   31.7141  N     
19   C         1.6572   16.0077   29.6224  C     
20   F         2.4991   17.0789   29.4393  F     
21   F         2.3918   15.0053   30.2121  F     
22   F         1.2983   15.5730   28.3545  F     
23   C        -2.3467   12.8710   30.9717  C     
24   C        -2.9372   12.9032   29.6011  C     
25   C        -2.1460   12.8787   28.4181  C     
26   C        -2.7206   13.1866   27.1496  C     
27   C        -4.1153   13.4800   27.0835  C     
28   C        -4.8890   13.5236   28.2678  C     
29   C        -4.3177   13.1694   29.4850  C     
30   N        -2.0060   13.2726   26.0070  N     
31   O        -2.4543   13.7214   24.9534  O     
32   O        -0.7615   12.8572   25.9138  O     
33   C        -6.5385   19.1493   38.8695  C     
34   H        -0.2368   14.2619   30.1749  H     
35   H         1.0503   18.0719   31.2618  H     
36   H        -1.6640   19.4370   34.5352  H     
37   H        -3.2060   15.8006   33.5440  H     
38   H        -3.8173   17.2495   36.9433  H     
39   H        -2.3253   18.1252   36.6476  H     
40   H        -3.9242   19.4974   37.9593  H     
41   H        -3.6034   20.2493   36.4199  H     
42   H        -5.8493   20.3891   36.6748  H     
43   H        -6.7387   19.1361   34.7645  H     
44   H        -5.2470   20.0150   34.5194  H     
45   H        -5.0956   17.7438   33.5217  H     
46   H        -5.4696   17.0102   35.0673  H     
47   H        -7.4899   18.6868   37.0120  H     
48   H        -6.1903   17.5557   37.4187  H     
49   H        -3.1501   14.2324   32.3251  H     
50   H        -1.3460   12.4271   30.9344  H     
51   H        -2.9801   12.1112   31.5481  H     
52   H        -1.1736   12.6848   28.5441  H     
53   H        -4.6041   13.6380   26.1967  H     
54   H        -5.8437   13.8929   28.2487  H     
55   H        -4.8880   13.2915   30.3042  H     
56   H        -5.5877   19.0207   39.3786  H     
57   H        -7.3087   18.6028   39.4348  H     
58   H        -6.8013   20.2161   38.8606  H     
@<TRIPOS>BOND
     1    1    2 2
     2    1    4 1
     3    2    3 1
     4    2   19 1
     5    3    6 2
     6    4    5 2
     7    4   18 1
     8    5    6 1
     9    5   10 1
    10    6    7 1
    11    7    8 2
    12    8    9 1
    13    9   10 2
    14    9   11 1
    15   11   12 1
    16   11   16 1
    17   12   13 1
    18   13   14 1
    19   14   15 1
    20   14   17 1
    21   15   16 1
    22   17   33 1
    23   18   23 1
    24   19   20 1
    25   19   21 1
    26   19   22 1
    27   23   24 1
    28   24   25 2
    29   24   29 1
    30   25   26 1
    31   26   27 2
    32   26   30 am
    33   27   28 1
    34   28   29 2
    35   30   31 2
    36   30   32 1
    37    1   34 1
    38    3   35 1
    39    8   36 1
    40   10   37 1
    41   12   38 1
    42   12   39 1
    43   13   40 1
    44   13   41 1
    45   14   42 1
    46   15   43 1
    47   15   44 1
    48   16   45 1
    49   16   46 1
    50   17   47 1
    51   17   48 1
    52   18   49 1
    53   23   50 1
    54   23   51 1
    55   25   52 1
    56   27   53 1
    57   28   54 1
    58   29   55 1
    59   33   56 1
    60   33   57 1
    61   33   58 1
@<TRIPOS>PROPERTY_DATA
  Total_Score	| 10.1553
  Crash		| -0.8113
  Polar		| 3.3556
  FragIndex	| 1
  FragRMSD	| 0.699

