@<TRIPOS>MOLECULE
BindingDB_50341649
 57 60 0 0 0
SMALL
NO_CHARGES


@<TRIPOS>ATOM
1    C        -0.3426   15.1004   30.7185  C     
2    C         0.6228   16.1216   30.5601  C     
3    C         0.4734   17.3084   31.3043  C     
4    C        -1.4258   15.2254   31.6320  C     
5    C        -1.5388   16.4227   32.4055  C     
6    C        -0.5875   17.4612   32.2064  C     
7    N        -0.7093   18.6208   32.9050  N     
8    C        -1.6964   18.8282   33.7609  C     
9    C        -2.6323   17.8622   34.0203  C     
10   C        -2.5499   16.6795   33.3564  C     
11   N        -3.5579   18.0652   34.9341  N     
12   C        -4.9319   17.9437   34.6210  C     
13   C        -5.5736   16.8974   35.5738  C     
14   N        -5.1246   17.0119   36.9493  N     
15   C        -4.3075   18.1473   37.3163  C     
16   C        -3.1713   18.3566   36.2705  C     
17   N        -2.3368   14.2158   31.7966  N     
18   C         1.7594   15.9090   29.6154  C     
19   F         2.6593   16.9478   29.5365  F     
20   F         2.4787   14.7983   29.9845  F     
21   F         1.2725   15.7091   28.3459  F     
22   C        -2.4975   13.0177   31.0234  C     
23   C        -3.0615   13.2805   29.6649  C     
24   C        -2.2859   13.0989   28.4969  C     
25   C        -2.8054   13.3726   27.2026  C     
26   C        -4.1612   13.7907   27.1092  C     
27   C        -4.9559   13.9378   28.2632  C     
28   C        -4.4081   13.7000   29.5317  C     
29   N        -2.0212   13.2671   26.0909  N     
30   O        -2.3909   13.6164   25.0010  O     
31   O        -0.7855   12.8394   26.1476  O     
32   C        -5.4616   16.0403   37.8532  C     
33   O        -6.1919   14.9600   37.4579  O     
34   O        -5.0822   16.1217   39.1523  O     
35   C        -6.6012   13.8597   38.2674  C     
36   H        -0.2375   14.2342   30.1708  H     
37   H         1.1536   18.0656   31.2168  H     
38   H        -1.7147   19.7002   34.2301  H     
39   H        -3.2078   15.9651   33.5717  H     
40   H        -5.4099   18.9167   34.7898  H     
41   H        -5.1217   17.6631   33.5790  H     
42   H        -6.6582   16.9886   35.5333  H     
43   H        -5.2950   15.9101   35.1847  H     
44   H        -4.9506   19.0316   37.3210  H     
45   H        -3.8605   18.0707   38.3105  H     
46   H        -2.3304   17.7213   36.5663  H     
47   H        -2.8413   19.3954   36.3204  H     
48   H        -2.9487   14.2967   32.5465  H     
49   H        -1.5433   12.4803   30.9779  H     
50   H        -3.1941   12.3604   31.5507  H     
51   H        -1.3129   12.8004   28.6077  H     
52   H        -4.5847   13.9920   26.1969  H     
53   H        -5.9338   14.2285   28.1750  H     
54   H        -4.9980   13.8316   30.3584  H     
55   H        -5.7254   13.3486   38.6727  H     
56   H        -7.1674   13.1628   37.6527  H     
57   H        -7.2339   14.2089   39.0871  H     
@<TRIPOS>BOND
     1    1    2 2
     2    1    4 1
     3    2    3 1
     4    2   18 1
     5    3    6 2
     6    4    5 2
     7    4   17 1
     8    5    6 1
     9    5   10 1
    10    6    7 1
    11    7    8 2
    12    8    9 1
    13    9   10 2
    14    9   11 1
    15   11   12 1
    16   11   16 1
    17   12   13 1
    18   13   14 1
    19   14   15 1
    20   14   32 1
    21   15   16 1
    22   17   22 1
    23   18   19 1
    24   18   20 1
    25   18   21 1
    26   22   23 1
    27   23   24 2
    28   23   28 1
    29   24   25 1
    30   25   26 2
    31   25   29 am
    32   26   27 1
    33   27   28 2
    34   29   30 2
    35   29   31 1
    36   32   33 1
    37   32   34 2
    38   33   35 1
    39    1   36 1
    40    3   37 1
    41    8   38 1
    42   10   39 1
    43   12   40 1
    44   12   41 1
    45   13   42 1
    46   13   43 1
    47   15   44 1
    48   15   45 1
    49   16   46 1
    50   16   47 1
    51   17   48 1
    52   22   49 1
    53   22   50 1
    54   24   51 1
    55   26   52 1
    56   27   53 1
    57   28   54 1
    58   35   55 1
    59   35   56 1
    60   35   57 1
@<TRIPOS>PROPERTY_DATA
  Total_Score	| 10.4506
  Crash		| -1.0208
  Polar		| 3.3338
  FragIndex	| 1
  FragRMSD	| 0.182

