@<TRIPOS>MOLECULE
BindingDB_50341617
 57 60 0 0 0
SMALL
NO_CHARGES


@<TRIPOS>ATOM
1    C        -0.2472   15.1744   30.6018  C     
2    C         0.6553   16.2556   30.4935  C     
3    C         0.4445   17.3827   31.3100  C     
4    C        -1.3304   15.1621   31.5150  C     
5    C        -1.4952   16.2931   32.3675  C     
6    C        -0.6231   17.4081   32.2255  C     
7    N        -0.8173   18.5178   32.9835  N     
8    C        -1.8047   18.6136   33.8611  C     
9    C        -2.6667   17.5686   34.0686  C     
10   C        -2.4907   16.4213   33.3564  C     
11   N        -3.6963   17.7088   34.8880  N     
12   C        -5.0230   17.6832   34.3877  C     
13   C        -5.7947   18.9583   34.8136  C     
14   N        -5.7119   19.1730   36.2927  N     
15   C        -4.2884   19.1644   36.7619  C     
16   C        -3.5226   17.8980   36.2833  C     
17   N        -2.1945   14.1053   31.5780  N     
18   C         1.7987   16.1576   29.5412  C     
19   F         2.6314   17.2499   29.5277  F     
20   F         2.5720   15.0739   29.8728  F     
21   F         1.3318   15.9920   28.2620  F     
22   C        -2.2039   12.8886   30.8112  C     
23   C        -2.9104   13.0306   29.5047  C     
24   C        -2.2131   13.2133   28.2906  C     
25   C        -2.8869   13.3417   27.0465  C     
26   C        -4.2988   13.2328   27.0505  C     
27   C        -5.0101   13.0202   28.2439  C     
28   C        -4.3214   12.9373   29.4639  C     
29   N        -2.1996   13.5578   25.8856  N     
30   O        -2.7446   13.7207   24.8275  O     
31   O        -0.8978   13.6329   25.8379  O     
32   C        -6.4412   20.3953   36.7584  C     
33   C        -7.8868   20.4059   36.4516  C     
34   O        -8.3259   21.0013   35.3128  O     
35   O        -8.8060   20.1619   37.4191  O     
36   H        -0.0837   14.3671   30.0026  H     
37   H         1.0647   18.1953   31.2525  H     
38   H        -1.9010   19.4609   34.3689  H     
39   H        -3.1015   15.6574   33.5351  H     
40   H        -5.0728   17.6064   33.2931  H     
41   H        -5.5313   16.8041   34.7945  H     
42   H        -5.3810   19.8208   34.2807  H     
43   H        -6.8309   18.8304   34.5063  H     
44   H        -6.1656   18.3704   36.7356  H     
45   H        -3.7576   20.0524   36.3960  H     
46   H        -4.2522   19.1857   37.8599  H     
47   H        -3.9221   17.0280   36.8087  H     
48   H        -2.4704   17.9986   36.5737  H     
49   H        -2.9092   14.1703   32.2295  H     
50   H        -1.1920   12.4989   30.6796  H     
51   H        -2.7296   12.1336   31.4038  H     
52   H        -1.1950   13.2609   28.3099  H     
53   H        -4.8318   13.2898   26.1771  H     
54   H        -6.0292   12.9232   28.2235  H     
55   H        -4.8565   12.7899   30.3232  H     
56   H        -6.3353   20.4946   37.8440  H     
57   H        -5.9916   21.2905   36.3128  H     
@<TRIPOS>BOND
     1    1    2 2
     2    1    4 1
     3    2    3 1
     4    2   18 1
     5    3    6 2
     6    4    5 2
     7    4   17 1
     8    5    6 1
     9    5   10 1
    10    6    7 1
    11    7    8 2
    12    8    9 1
    13    9   10 2
    14    9   11 1
    15   11   12 1
    16   11   16 1
    17   12   13 1
    18   13   14 1
    19   14   15 1
    20   14   32 1
    21   15   16 1
    22   17   22 1
    23   18   19 1
    24   18   20 1
    25   18   21 1
    26   22   23 1
    27   23   24 2
    28   23   28 1
    29   24   25 1
    30   25   26 2
    31   25   29 am
    32   26   27 1
    33   27   28 2
    34   29   30 2
    35   29   31 1
    36   32   33 1
    37   33   34 2
    38   33   35 1
    39    1   36 1
    40    3   37 1
    41    8   38 1
    42   10   39 1
    43   12   40 1
    44   12   41 1
    45   13   42 1
    46   13   43 1
    47   14   44 1
    48   15   45 1
    49   15   46 1
    50   16   47 1
    51   16   48 1
    52   17   49 1
    53   22   50 1
    54   22   51 1
    55   24   52 1
    56   26   53 1
    57   27   54 1
    58   28   55 1
    59   32   56 1
    60   32   57 1
@<TRIPOS>PROPERTY_DATA
  Total_Score	| 9.9597
  Crash		| -1.0411
  Polar		| 2.9710
  FragIndex	| 1
  FragRMSD	| 0.948

