@<TRIPOS>MOLECULE
BindingDB_50341647
 57 60 0 0 0
SMALL
NO_CHARGES


@<TRIPOS>ATOM
1    C        -0.3450   15.0667   30.6801  C     
2    C         0.5838   16.1173   30.4928  C     
3    C         0.4344   17.2845   31.2744  C     
4    C        -1.3941   15.1283   31.6344  C     
5    C        -1.4897   16.2931   32.4530  C     
6    C        -0.5936   17.3775   32.2306  C     
7    N        -0.7550   18.5224   32.9476  N     
8    C        -1.7039   18.6724   33.8543  C     
9    C        -2.5771   17.6478   34.1516  C     
10   C        -2.4410   16.4795   33.4740  C     
11   N        -3.5308   17.8052   35.0572  N     
12   C        -4.8915   17.5226   34.7602  C     
13   C        -5.7975   18.7388   35.0785  C     
14   N        -5.5054   19.2871   36.3798  N     
15   C        -4.1219   19.4916   36.7287  C     
16   C        -3.2641   18.2420   36.3819  C     
17   N        -2.3002   14.1121   31.7749  N     
18   C         1.6791   15.9530   29.4940  C     
19   F         2.5205   17.0324   29.3817  F     
20   F         2.4637   14.8817   29.8395  F     
21   F         1.1589   15.7206   28.2422  F     
22   C        -2.4285   12.9034   31.0139  C     
23   C        -3.0274   13.1275   29.6673  C     
24   C        -2.2615   12.9753   28.4901  C     
25   C        -2.7942   13.2670   27.2048  C     
26   C        -4.1651   13.6173   27.1272  C     
27   C        -4.9569   13.7170   28.2822  C     
28   C        -4.3852   13.4970   29.5473  C     
29   N        -2.0015   13.2245   26.0972  N     
30   O        -2.3720   13.6213   25.0189  O     
31   O        -0.7567   12.8255   26.1406  O     
32   S        -6.6784   20.2642   37.1156  S     
33   C        -6.6840   21.9716   36.5433  C     
34   O        -8.1298   19.6495   36.8942  O     
35   O        -6.4961   20.2342   38.6956  O     
36   H        -0.2334   14.2260   30.1148  H     
37   H         1.0716   18.0785   31.1570  H     
38   H        -1.7605   19.5434   34.3308  H     
39   H        -3.0392   15.7243   33.7158  H     
40   H        -5.0648   17.2476   33.7120  H     
41   H        -5.2111   16.6701   35.3734  H     
42   H        -5.6382   19.5146   34.3213  H     
43   H        -6.8391   18.4079   35.0048  H     
44   H        -3.7436   20.3597   36.1797  H     
45   H        -4.0088   19.6969   37.7967  H     
46   H        -3.5254   17.4359   37.0784  H     
47   H        -2.2088   18.4800   36.5544  H     
48   H        -2.9551   14.2116   32.4809  H     
49   H        -1.4586   12.4055   30.9498  H     
50   H        -3.0843   12.2300   31.5673  H     
51   H        -1.2854   12.6863   28.5709  H     
52   H        -4.6026   13.8008   26.2202  H     
53   H        -5.9459   13.9636   28.2049  H     
54   H        -4.9708   13.5953   30.3817  H     
55   H        -5.7703   22.4627   36.8711  H     
56   H        -7.5442   22.4995   36.9540  H     
57   H        -6.7357   21.9876   35.4547  H     
@<TRIPOS>BOND
     1    1    2 2
     2    1    4 1
     3    2    3 1
     4    2   18 1
     5    3    6 2
     6    4    5 2
     7    4   17 1
     8    5    6 1
     9    5   10 1
    10    6    7 1
    11    7    8 2
    12    8    9 1
    13    9   10 2
    14    9   11 1
    15   11   12 1
    16   11   16 1
    17   12   13 1
    18   13   14 1
    19   14   15 1
    20   14   32 1
    21   15   16 1
    22   17   22 1
    23   18   19 1
    24   18   20 1
    25   18   21 1
    26   22   23 1
    27   23   24 2
    28   23   28 1
    29   24   25 1
    30   25   26 2
    31   25   29 am
    32   26   27 1
    33   27   28 2
    34   29   30 2
    35   29   31 1
    36   32   33 1
    37   32   34 2
    38   32   35 2
    39    1   36 1
    40    3   37 1
    41    8   38 1
    42   10   39 1
    43   12   40 1
    44   12   41 1
    45   13   42 1
    46   13   43 1
    47   15   44 1
    48   15   45 1
    49   16   46 1
    50   16   47 1
    51   17   48 1
    52   22   49 1
    53   22   50 1
    54   24   51 1
    55   26   52 1
    56   27   53 1
    57   28   54 1
    58   33   55 1
    59   33   56 1
    60   33   57 1
@<TRIPOS>PROPERTY_DATA
  Total_Score	| 10.2797
  Crash		| -1.0087
  Polar		| 3.5106
  FragIndex	| 1
  FragRMSD	| 0.551

