@<TRIPOS>MOLECULE
BindingDB_50341635
 53 56 0 0 0
SMALL
NO_CHARGES


@<TRIPOS>ATOM
1    C        -0.3104   15.2478   30.5870  C     
2    C         0.6467   16.2824   30.4959  C     
3    C         0.4862   17.4121   31.3227  C     
4    C        -1.4150   15.2931   31.4775  C     
5    C        -1.5387   16.4297   32.3271  C     
6    C        -0.5896   17.4898   32.2246  C     
7    N        -0.7279   18.5867   33.0108  N     
8    C        -1.7094   18.7187   33.8808  C     
9    C        -2.6461   17.7218   34.0575  C     
10   C        -2.5451   16.6066   33.2923  C     
11   N        -3.6142   17.8457   34.9581  N     
12   C        -3.3355   18.1385   36.3213  C     
13   C        -4.1189   19.4063   36.7551  C     
14   N        -5.5839   19.3004   36.4517  N     
15   C        -5.8168   18.9164   35.0227  C     
16   C        -4.9838   17.6778   34.6018  C     
17   C        -6.3402   18.4644   37.4338  C     
18   N        -2.3306   14.2763   31.5347  N     
19   C         1.7905   16.1384   29.5492  C     
20   F         2.6825   17.1818   29.5522  F     
21   F         2.5029   15.0151   29.8786  F     
22   F         1.3323   16.0116   28.2606  F     
23   C        -2.3358   13.0134   30.8521  C     
24   C        -3.0098   13.0850   29.5264  C     
25   C        -2.2820   13.3815   28.3522  C     
26   C        -2.9218   13.4614   27.1017  C     
27   C        -4.2964   13.1911   26.9983  C     
28   C        -5.0314   12.8655   28.1499  C     
29   C        -4.3970   12.8287   29.4050  C     
30   F        -2.2319   13.7595   26.0336  F     
31   H        -0.1682   14.4278   30.0017  H     
32   H         1.1667   18.1764   31.2942  H     
33   H        -1.7518   19.5560   34.4155  H     
34   H        -3.2170   15.8865   33.4273  H     
35   H        -3.6445   17.2974   36.9448  H     
36   H        -2.2703   18.2979   36.5182  H     
37   H        -3.9548   19.6004   37.8195  H     
38   H        -3.7182   20.2673   36.2115  H     
39   H        -5.9645   20.2455   36.5559  H     
40   H        -6.8781   18.7263   34.8404  H     
41   H        -5.5304   19.7593   34.3868  H     
42   H        -5.1291   17.5185   33.5264  H     
43   H        -5.3782   16.7910   35.1077  H     
44   H        -6.0154   17.4220   37.4191  H     
45   H        -7.4087   18.4980   37.2128  H     
46   H        -6.2013   18.8576   38.4437  H     
47   H        -3.0935   14.4176   32.1113  H     
48   H        -1.3246   12.6146   30.7697  H     
49   H        -2.8783   12.2967   31.4740  H     
50   H        -1.2748   13.5437   28.3993  H     
51   H        -4.7591   13.2151   26.0872  H     
52   H        -6.0277   12.6489   28.0717  H     
53   H        -4.9522   12.5920   30.2323  H     
@<TRIPOS>BOND
     1    1    2 2
     2    1    4 1
     3    2    3 1
     4    2   19 1
     5    3    6 2
     6    4    5 2
     7    4   18 1
     8    5    6 1
     9    5   10 1
    10    6    7 1
    11    7    8 2
    12    8    9 1
    13    9   10 2
    14    9   11 1
    15   11   12 1
    16   11   16 1
    17   12   13 1
    18   13   14 1
    19   14   15 1
    20   14   17 1
    21   15   16 1
    22   18   23 1
    23   19   20 1
    24   19   21 1
    25   19   22 1
    26   23   24 1
    27   24   25 2
    28   24   29 1
    29   25   26 1
    30   26   27 2
    31   26   30 1
    32   27   28 1
    33   28   29 2
    34    1   31 1
    35    3   32 1
    36    8   33 1
    37   10   34 1
    38   12   35 1
    39   12   36 1
    40   13   37 1
    41   13   38 1
    42   14   39 1
    43   15   40 1
    44   15   41 1
    45   16   42 1
    46   16   43 1
    47   17   44 1
    48   17   45 1
    49   17   46 1
    50   18   47 1
    51   23   48 1
    52   23   49 1
    53   25   50 1
    54   27   51 1
    55   28   52 1
    56   29   53 1
@<TRIPOS>PROPERTY_DATA
  Total_Score	| 8.4666
  Crash		| -0.8065
  Polar		| 1.1287
  FragIndex	| 1
  FragRMSD	| 0.679

