@<TRIPOS>MOLECULE
BindingDB_50341628
 56 59 0 0 0
SMALL
NO_CHARGES


@<TRIPOS>ATOM
1    C        -0.2625   15.2315   30.6237  C     
2    C         0.6974   16.2602   30.5211  C     
3    C         0.5456   17.3943   31.3455  C     
4    C        -1.3891   15.3093   31.4806  C     
5    C        -1.5195   16.4626   32.3128  C     
6    C        -0.5408   17.4931   32.2306  C     
7    N        -0.6447   18.5846   33.0388  N     
8    C        -1.6374   18.7376   33.8965  C     
9    C        -2.6203   17.7840   34.0244  C     
10   C        -2.5470   16.6730   33.2512  C     
11   N        -3.6308   17.9662   34.8592  N     
12   C        -3.4293   18.2062   36.2419  C     
13   C        -4.0854   19.5584   36.6414  C     
14   N        -5.4791   19.5809   36.2072  N     
15   C        -5.6544   19.3285   34.7828  C     
16   C        -4.9718   17.9895   34.3962  C     
17   C        -6.4989   19.7817   37.0664  C     
18   N        -2.3135   14.3001   31.5381  N     
19   C         1.8146   16.1137   29.5483  C     
20   F         2.7206   17.1483   29.5462  F     
21   F         2.5328   14.9710   29.8203  F     
22   F         1.3086   16.0239   28.2720  F     
23   C        -2.3151   13.0197   30.8849  C     
24   C        -2.9779   13.0441   29.5479  C     
25   C        -2.2298   13.1859   28.3534  C     
26   C        -2.8451   13.2993   27.0846  C     
27   C        -4.2529   13.1594   27.0211  C     
28   C        -5.0115   12.9409   28.1862  C     
29   C        -4.3794   12.9054   29.4408  C     
30   N        -2.1057   13.5514   25.9662  N     
31   O        -2.5988   13.6931   24.8783  O     
32   O        -0.8129   13.7213   25.9981  O     
33   O        -6.2789   19.9812   38.2557  O     
34   C        -7.9074   19.7879   36.6983  C     
35   H        -0.1204   14.4012   30.0493  H     
36   H         1.2412   18.1419   31.3210  H     
37   H        -1.6417   19.5552   34.4586  H     
38   H        -3.2517   15.9843   33.3525  H     
39   H        -3.9023   17.4014   36.8188  H     
40   H        -2.3728   18.2225   36.5279  H     
41   H        -3.9507   19.6977   37.7189  H     
42   H        -3.5486   20.3723   36.1507  H     
43   H        -6.6948   19.2795   34.4576  H     
44   H        -5.1897   20.1445   34.2185  H     
45   H        -5.0546   17.8571   33.3103  H     
46   H        -5.5234   17.1653   34.8597  H     
47   H        -3.0551   14.4438   32.1443  H     
48   H        -1.3067   12.6087   30.8229  H     
49   H        -2.8646   12.3287   31.5265  H     
50   H        -1.2109   13.2273   28.4185  H     
51   H        -4.7436   13.2140   26.1277  H     
52   H        -6.0277   12.8243   28.1183  H     
53   H        -4.9521   12.7670   30.2750  H     
54   H        -8.0929   20.5648   35.9539  H     
55   H        -8.5616   19.9848   37.5533  H     
56   H        -8.1867   18.8163   36.2854  H     
@<TRIPOS>BOND
     1    1    2 2
     2    1    4 1
     3    2    3 1
     4    2   19 1
     5    3    6 2
     6    4    5 2
     7    4   18 1
     8    5    6 1
     9    5   10 1
    10    6    7 1
    11    7    8 2
    12    8    9 1
    13    9   10 2
    14    9   11 1
    15   11   12 1
    16   11   16 1
    17   12   13 1
    18   13   14 1
    19   14   15 1
    20   14   17 am
    21   15   16 1
    22   17   33 2
    23   17   34 1
    24   18   23 1
    25   19   20 1
    26   19   21 1
    27   19   22 1
    28   23   24 1
    29   24   25 2
    30   24   29 1
    31   25   26 1
    32   26   27 2
    33   26   30 am
    34   27   28 1
    35   28   29 2
    36   30   31 2
    37   30   32 1
    38    1   35 1
    39    3   36 1
    40    8   37 1
    41   10   38 1
    42   12   39 1
    43   12   40 1
    44   13   41 1
    45   13   42 1
    46   15   43 1
    47   15   44 1
    48   16   45 1
    49   16   46 1
    50   18   47 1
    51   23   48 1
    52   23   49 1
    53   25   50 1
    54   27   51 1
    55   28   52 1
    56   29   53 1
    57   34   54 1
    58   34   55 1
    59   34   56 1
@<TRIPOS>PROPERTY_DATA
  Total_Score	| 10.4837
  Crash		| -0.8608
  Polar		| 2.7648
  FragIndex	| 1
  FragRMSD	| 0.236

