@<TRIPOS>MOLECULE
BindingDB_50341634
 56 59 0 0 0
SMALL
NO_CHARGES


@<TRIPOS>ATOM
1    C        -0.3161   15.2040   30.6329  C     
2    C         0.6486   16.2361   30.5485  C     
3    C         0.4895   17.3715   31.3719  C     
4    C        -1.4331   15.2594   31.5064  C     
5    C        -1.5574   16.4070   32.3459  C     
6    C        -0.6011   17.4568   32.2505  C     
7    N        -0.7420   18.5624   33.0274  N     
8    C        -1.7381   18.7079   33.8865  C     
9    C        -2.6799   17.7159   34.0634  C     
10   C        -2.5706   16.5888   33.3094  C     
11   N        -3.6776   17.8494   34.9323  N     
12   C        -3.4446   17.9691   36.3318  C     
13   C        -4.1098   19.2717   36.8570  C     
14   N        -5.5652   19.3521   36.4940  N     
15   C        -5.7369   19.1689   35.0154  C     
16   C        -5.0331   17.8876   34.4977  C     
17   C        -6.4329   18.4883   37.3655  C     
18   N        -2.3560   14.2482   31.5643  N     
19   C         1.7954   16.0892   29.6109  C     
20   F         2.6883   17.1329   29.6113  F     
21   F         2.5086   14.9646   29.9382  F     
22   F         1.3281   15.9613   28.3252  F     
23   C        -2.3821   12.9842   30.8825  C     
24   C        -3.0576   13.0693   29.5584  C     
25   C        -4.4709   13.0252   29.4699  C     
26   C        -5.1189   13.0766   28.2208  C     
27   C        -4.3674   13.2163   27.0401  C     
28   C        -2.9620   13.2827   27.1126  C     
29   C        -2.3148   13.1807   28.3582  C     
30   F        -4.9646   13.2491   25.8799  F     
31   C        -7.9479   18.7637   37.2324  C     
32   H        -0.1786   14.3794   30.0527  H     
33   H         1.1699   18.1388   31.3463  H     
34   H        -1.7726   19.5524   34.4055  H     
35   H        -3.2277   15.8614   33.4589  H     
36   H        -3.8863   17.1145   36.8518  H     
37   H        -2.3814   17.9825   36.6001  H     
38   H        -3.9676   19.3531   37.9383  H     
39   H        -3.5931   20.1269   36.4110  H     
40   H        -5.8517   20.3149   36.6925  H     
41   H        -6.7906   19.1479   34.7335  H     
42   H        -5.2983   20.0301   34.5016  H     
43   H        -5.1418   17.8698   33.4096  H     
44   H        -5.5580   17.0116   34.8855  H     
45   H        -6.2532   17.4269   37.1811  H     
46   H        -6.1836   18.6818   38.4128  H     
47   H        -3.0974   14.3816   32.1725  H     
48   H        -1.3763   12.5649   30.8015  H     
49   H        -2.9398   12.2897   31.5162  H     
50   H        -5.0384   12.9327   30.3162  H     
51   H        -6.1378   12.9950   28.1714  H     
52   H        -2.4102   13.3798   26.2558  H     
53   H        -1.2935   13.1908   28.3791  H     
54   H        -8.1389   19.8365   37.2930  H     
55   H        -8.4845   18.2653   38.0431  H     
56   H        -8.3341   18.3821   36.2859  H     
@<TRIPOS>BOND
     1    1    2 2
     2    1    4 1
     3    2    3 1
     4    2   19 1
     5    3    6 2
     6    4    5 2
     7    4   18 1
     8    5    6 1
     9    5   10 1
    10    6    7 1
    11    7    8 2
    12    8    9 1
    13    9   10 2
    14    9   11 1
    15   11   12 1
    16   11   16 1
    17   12   13 1
    18   13   14 1
    19   14   15 1
    20   14   17 1
    21   15   16 1
    22   17   31 1
    23   18   23 1
    24   19   20 1
    25   19   21 1
    26   19   22 1
    27   23   24 1
    28   24   25 2
    29   24   29 1
    30   25   26 1
    31   26   27 2
    32   27   28 1
    33   27   30 1
    34   28   29 2
    35    1   32 1
    36    3   33 1
    37    8   34 1
    38   10   35 1
    39   12   36 1
    40   12   37 1
    41   13   38 1
    42   13   39 1
    43   14   40 1
    44   15   41 1
    45   15   42 1
    46   16   43 1
    47   16   44 1
    48   17   45 1
    49   17   46 1
    50   18   47 1
    51   23   48 1
    52   23   49 1
    53   25   50 1
    54   26   51 1
    55   28   52 1
    56   29   53 1
    57   31   54 1
    58   31   55 1
    59   31   56 1
@<TRIPOS>PROPERTY_DATA
  Total_Score	| 8.2170
  Crash		| -0.8306
  Polar		| 1.1393
  FragIndex	| 1
  FragRMSD	| 0.638

