@<TRIPOS>MOLECULE
BindingDB_50341641
 52 55 0 0 0
SMALL
NO_CHARGES


@<TRIPOS>ATOM
1    C        -0.1977   15.2137   30.6853  C     
2    C         0.6653   16.3109   30.4976  C     
3    C         0.4606   17.4507   31.2959  C     
4    C        -1.2573   15.2092   31.6123  C     
5    C        -1.4208   16.3538   32.4449  C     
6    C        -0.5656   17.4785   32.2537  C     
7    N        -0.7740   18.6030   32.9806  N     
8    C        -1.7521   18.6902   33.8656  C     
9    C        -2.6153   17.6392   34.0988  C     
10   C        -2.4303   16.4836   33.4163  C     
11   N        -3.5979   17.7701   34.9664  N     
12   C        -3.3425   18.1038   36.3242  C     
13   C        -4.1250   19.3909   36.7130  C     
14   N        -5.5763   19.3109   36.3531  N     
15   C        -5.7633   18.8996   34.9250  C     
16   C        -4.9504   17.6245   34.5626  C     
17   C        -6.3909   18.5204   37.3211  C     
18   N        -1.9438   14.0498   31.8134  N     
19   C         1.7613   16.1936   29.4943  C     
20   F         2.6016   17.2785   29.4341  F     
21   F         2.5489   15.1028   29.7842  F     
22   F         1.2302   16.0266   28.2354  F     
23   C        -3.0257   13.6414   30.9497  C     
24   C        -2.7572   13.4737   29.4862  C     
25   C        -1.6383   12.7360   29.0382  C     
26   N        -1.3066   12.7224   27.7201  N     
27   C        -2.0324   13.3704   26.7736  C     
28   C        -3.2160   14.0332   27.1398  C     
29   C        -3.5749   14.0879   28.5012  C     
30   H         0.0337   14.3379   30.2067  H     
31   H         1.0710   18.2585   31.1918  H     
32   H        -1.8379   19.5426   34.3602  H     
33   H        -3.0454   15.7205   33.5614  H     
34   H        -3.6698   17.2816   36.9705  H     
35   H        -2.2812   18.2667   36.5428  H     
36   H        -3.9934   19.5918   37.7800  H     
37   H        -3.6876   20.2374   36.1781  H     
38   H        -5.9341   20.2645   36.4174  H     
39   H        -6.8220   18.7345   34.7003  H     
40   H        -5.4280   19.7167   34.2780  H     
41   H        -5.0688   17.4493   33.4888  H     
42   H        -5.3853   16.7612   35.0756  H     
43   H        -6.0859   17.4725   37.3569  H     
44   H        -7.4479   18.5655   37.0510  H     
45   H        -6.2931   18.9436   38.3223  H     
46   H        -2.1330   13.8618   32.7603  H     
47   H        -3.3937   12.6913   31.3148  H     
48   H        -3.8179   14.3687   31.0886  H     
49   H        -1.0348   12.2631   29.7042  H     
50   H        -1.7306   13.3451   25.8003  H     
51   H        -3.8013   14.4729   26.4284  H     
52   H        -4.4253   14.5923   28.7761  H     
@<TRIPOS>BOND
     1    1    2 2
     2    1    4 1
     3    2    3 1
     4    2   19 1
     5    3    6 2
     6    4    5 2
     7    4   18 1
     8    5    6 1
     9    5   10 1
    10    6    7 1
    11    7    8 2
    12    8    9 1
    13    9   10 2
    14    9   11 1
    15   11   12 1
    16   11   16 1
    17   12   13 1
    18   13   14 1
    19   14   15 1
    20   14   17 1
    21   15   16 1
    22   18   23 1
    23   19   20 1
    24   19   21 1
    25   19   22 1
    26   23   24 1
    27   24   25 2
    28   24   29 1
    29   25   26 1
    30   26   27 2
    31   27   28 1
    32   28   29 2
    33    1   30 1
    34    3   31 1
    35    8   32 1
    36   10   33 1
    37   12   34 1
    38   12   35 1
    39   13   36 1
    40   13   37 1
    41   14   38 1
    42   15   39 1
    43   15   40 1
    44   16   41 1
    45   16   42 1
    46   17   43 1
    47   17   44 1
    48   17   45 1
    49   18   46 1
    50   23   47 1
    51   23   48 1
    52   25   49 1
    53   27   50 1
    54   28   51 1
    55   29   52 1
@<TRIPOS>PROPERTY_DATA
  Total_Score	| 8.6718
  Crash		| -0.7797
  Polar		| 1.7091
  FragIndex	| 1
  FragRMSD	| 0.718

