@<TRIPOS>MOLECULE
BindingDB_50341642
 52 55 0 0 0
SMALL
NO_CHARGES


@<TRIPOS>ATOM
1    C        -0.3166   15.0748   30.7501  C     
2    C         0.6440   16.1024   30.5854  C     
3    C         0.5119   17.2683   31.3719  C     
4    C        -1.3922   15.1652   31.6734  C     
5    C        -1.4962   16.3479   32.4618  C     
6    C        -0.5418   17.3883   32.2910  C     
7    N        -0.6629   18.5261   33.0222  N     
8    C        -1.6482   18.7192   33.8873  C     
9    C        -2.6151   17.7593   34.0845  C     
10   C        -2.5181   16.5934   33.3978  C     
11   N        -3.6255   17.9787   34.9091  N     
12   C        -3.4251   18.1639   36.3044  C     
13   C        -3.9923   19.5381   36.7480  C     
14   C        -5.4700   19.7066   36.3027  C     
15   C        -5.6239   19.4028   34.7897  C     
16   C        -4.9670   18.0455   34.4317  C     
17   N        -2.3030   14.1579   31.8163  N     
18   C         1.7569   15.9184   29.6116  C     
19   F         2.6164   16.9883   29.5084  F     
20   F         2.5095   14.8375   29.9959  F     
21   F         1.2631   15.6881   28.3498  F     
22   C        -2.4448   12.9604   31.0453  C     
23   C        -3.0409   13.2287   29.7089  C     
24   C        -2.2899   13.0544   28.5198  C     
25   C        -2.8146   13.3786   27.2477  C     
26   C        -4.1599   13.8244   27.1833  C     
27   C        -4.9307   13.9703   28.3459  C     
28   C        -4.3684   13.6940   29.6026  C     
29   N        -2.0419   13.2761   26.1271  N     
30   O        -2.4108   13.6675   25.0509  O     
31   O        -0.8152   12.8331   26.1647  O     
32   H        -0.1972   14.2256   30.1951  H     
33   H         1.1862   18.0255   31.2847  H     
34   H        -1.6717   19.5812   34.3801  H     
35   H        -3.2188   15.9070   33.5453  H     
36   H        -3.9379   17.3706   36.8546  H     
37   H        -2.3703   18.1136   36.5925  H     
38   H        -3.9220   19.6404   37.8345  H     
39   H        -3.3957   20.3350   36.2936  H     
40   H        -6.1032   19.0239   36.8780  H     
41   H        -5.8037   20.7279   36.5084  H     
42   H        -6.6853   19.3842   34.5275  H     
43   H        -5.1448   20.1982   34.2109  H     
44   H        -5.0389   17.9110   33.3475  H     
45   H        -5.5510   17.2386   34.8843  H     
46   H        -2.9696   14.2715   32.5047  H     
47   H        -1.4863   12.4452   30.9780  H     
48   H        -3.1137   12.2819   31.5781  H     
49   H        -1.3248   12.7214   28.5974  H     
50   H        -4.5889   14.0526   26.2855  H     
51   H        -5.8985   14.2969   28.2816  H     
52   H        -4.9396   13.8257   30.4445  H     
@<TRIPOS>BOND
     1    1    2 2
     2    1    4 1
     3    2    3 1
     4    2   18 1
     5    3    6 2
     6    4    5 2
     7    4   17 1
     8    5    6 1
     9    5   10 1
    10    6    7 1
    11    7    8 2
    12    8    9 1
    13    9   10 2
    14    9   11 1
    15   11   12 1
    16   11   16 1
    17   12   13 1
    18   13   14 1
    19   14   15 1
    20   15   16 1
    21   17   22 1
    22   18   19 1
    23   18   20 1
    24   18   21 1
    25   22   23 1
    26   23   24 2
    27   23   28 1
    28   24   25 1
    29   25   26 2
    30   25   29 am
    31   26   27 1
    32   27   28 2
    33   29   30 2
    34   29   31 1
    35    1   32 1
    36    3   33 1
    37    8   34 1
    38   10   35 1
    39   12   36 1
    40   12   37 1
    41   13   38 1
    42   13   39 1
    43   14   40 1
    44   14   41 1
    45   15   42 1
    46   15   43 1
    47   16   44 1
    48   16   45 1
    49   17   46 1
    50   22   47 1
    51   22   48 1
    52   24   49 1
    53   26   50 1
    54   27   51 1
    55   28   52 1
@<TRIPOS>PROPERTY_DATA
  Total_Score	| 10.8279
  Crash		| -0.8153
  Polar		| 3.4761
  FragIndex	| 1
  FragRMSD	| 0.472

