@<TRIPOS>MOLECULE
BindingDB_50341640
 52 55 0 0 0
SMALL
NO_CHARGES


@<TRIPOS>ATOM
1    C        -0.1926   15.2786   30.6827  C     
2    C         0.6905   16.3698   30.6135  C     
3    C         0.4878   17.4963   31.4191  C     
4    C        -1.2912   15.2663   31.5829  C     
5    C        -1.4671   16.3947   32.4477  C     
6    C        -0.5854   17.5130   32.3263  C     
7    N        -0.7874   18.6181   33.0879  N     
8    C        -1.7831   18.7149   33.9522  C     
9    C        -2.6550   17.6653   34.1419  C     
10   C        -2.4775   16.5261   33.4254  C     
11   N        -3.6846   17.8021   34.9582  N     
12   C        -3.4984   17.8900   36.3655  C     
13   C        -4.1721   19.1741   36.9232  C     
14   N        -5.5863   19.3436   36.4594  N     
15   C        -5.7018   19.1913   34.9722  C     
16   C        -5.0057   17.9088   34.4450  C     
17   N        -2.1742   14.2209   31.6133  N     
18   C        -6.5734   18.5336   37.2286  C     
19   C        -2.1596   12.9837   30.8781  C     
20   C        -2.8655   13.0985   29.5713  C     
21   C        -2.1598   13.2180   28.3474  C     
22   C        -2.8250   13.3573   27.0976  C     
23   C        -4.2413   13.3220   27.1066  C     
24   C        -4.9612   13.1779   28.3037  C     
25   C        -4.2781   13.0848   29.5287  C     
26   N        -2.1279   13.5091   25.9300  N     
27   O        -2.6661   13.6803   24.8664  O     
28   O        -0.8229   13.5074   25.8722  O     
29   H        -0.0210   14.4914   30.0585  H     
30   H         1.4720   16.3489   29.9607  H     
31   H         1.1197   18.3008   31.3403  H     
32   H        -1.8729   19.5638   34.4654  H     
33   H        -3.0930   15.7666   33.6003  H     
34   H        -3.9448   17.0117   36.8432  H     
35   H        -2.4407   17.9039   36.6549  H     
36   H        -4.1183   19.1680   38.0154  H     
37   H        -3.5979   20.0375   36.5853  H     
38   H        -5.8300   20.3192   36.6547  H     
39   H        -6.7464   19.1954   34.6595  H     
40   H        -5.2340   20.0590   34.4984  H     
41   H        -5.0355   17.9412   33.3496  H     
42   H        -5.5831   17.0347   34.7522  H     
43   H        -2.9489   14.3314   32.1849  H     
44   H        -6.4031   17.4628   37.1127  H     
45   H        -7.5881   18.7631   36.9007  H     
46   H        -6.5143   18.7850   38.2863  H     
47   H        -1.1449   12.6045   30.7504  H     
48   H        -2.6757   12.2449   31.4979  H     
49   H        -1.1397   13.2147   28.3671  H     
50   H        -4.7686   13.3894   26.2316  H     
51   H        -5.9849   13.1319   28.2841  H     
52   H        -4.8223   12.9895   30.3896  H     
@<TRIPOS>BOND
     1    1    2 2
     2    1    4 1
     3    2    3 1
     4    3    6 2
     5    4    5 2
     6    4   17 1
     7    5    6 1
     8    5   10 1
     9    6    7 1
    10    7    8 2
    11    8    9 1
    12    9   10 2
    13    9   11 1
    14   11   12 1
    15   11   16 1
    16   12   13 1
    17   13   14 1
    18   14   15 1
    19   14   18 1
    20   15   16 1
    21   17   19 1
    22   19   20 1
    23   20   21 2
    24   20   25 1
    25   21   22 1
    26   22   23 2
    27   22   26 am
    28   23   24 1
    29   24   25 2
    30   26   27 2
    31   26   28 1
    32    1   29 1
    33    2   30 1
    34    3   31 1
    35    8   32 1
    36   10   33 1
    37   12   34 1
    38   12   35 1
    39   13   36 1
    40   13   37 1
    41   14   38 1
    42   15   39 1
    43   15   40 1
    44   16   41 1
    45   16   42 1
    46   17   43 1
    47   18   44 1
    48   18   45 1
    49   18   46 1
    50   19   47 1
    51   19   48 1
    52   21   49 1
    53   23   50 1
    54   24   51 1
    55   25   52 1
@<TRIPOS>PROPERTY_DATA
  Total_Score	| 9.0466
  Crash		| -0.8025
  Polar		| 2.9021
  FragIndex	| 1
  FragRMSD	| 0.654

