@<TRIPOS>MOLECULE
BindingDB_50341648
 64 67 0 0 0
SMALL
NO_CHARGES


@<TRIPOS>ATOM
1    C        -0.3167   15.1446   30.7404  C     
2    C         0.6534   16.1647   30.5926  C     
3    C         0.5078   17.3366   31.3627  C     
4    C        -1.4114   15.2461   31.6368  C     
5    C        -1.5177   16.4283   32.4231  C     
6    C        -0.5643   17.4747   32.2556  C     
7    N        -0.6974   18.6160   32.9783  N     
8    C        -1.6851   18.8147   33.8309  C     
9    C        -2.6344   17.8445   34.0419  C     
10   C        -2.5367   16.6739   33.3648  C     
11   N        -3.6261   18.0600   34.8840  N     
12   C        -4.9584   18.1650   34.4177  C     
13   C        -5.8450   17.0731   35.0900  C     
14   N        -5.3648   16.6090   36.4409  N     
15   C        -4.5764   17.6714   37.1429  C     
16   C        -3.3797   18.1639   36.2755  C     
17   N        -2.3330   14.2438   31.7630  N     
18   C         1.7954   15.9528   29.6564  C     
19   F         2.6690   17.0088   29.5591  F     
20   F         2.5278   14.8716   30.0769  F     
21   F         1.3328   15.7044   28.3862  F     
22   C        -2.4516   13.0273   31.0135  C     
23   C        -3.0307   13.2634   29.6661  C     
24   C        -2.2739   13.0582   28.4859  C     
25   C        -2.7887   13.3642   27.1999  C     
26   C        -4.1291   13.8218   27.1195  C     
27   C        -4.9133   13.9821   28.2718  C     
28   C        -4.3632   13.7172   29.5383  C     
29   N        -2.0119   13.2510   26.0849  N     
30   O        -2.3839   13.6064   24.9971  O     
31   O        -0.7838   12.8015   26.1293  O     
32   C        -6.4372   16.0255   37.3181  C     
33   C        -6.8273   14.6583   36.9259  C     
34   O        -7.3272   14.4287   35.6843  O     
35   O        -6.7549   13.6641   37.8530  O     
36   C        -7.0987   12.2801   37.7058  C     
37   C        -5.9322   11.3938   38.1844  C     
38   H        -0.2001   14.2989   30.1838  H     
39   H         1.1897   18.0967   31.2870  H     
40   H        -1.7233   19.6770   34.3191  H     
41   H        -3.2191   15.9698   33.5432  H     
42   H        -5.3329   19.1569   34.6808  H     
43   H        -5.0458   18.0770   33.3303  H     
44   H        -6.8702   17.4525   35.1310  H     
45   H        -5.8505   16.1951   34.4384  H     
46   H        -4.7084   15.8421   36.2528  H     
47   H        -5.2356   18.5200   37.3592  H     
48   H        -4.1854   17.3022   38.0940  H     
49   H        -2.4934   17.5910   36.5597  H     
50   H        -3.1777   19.2093   36.5228  H     
51   H        -3.0166   14.3720   32.4344  H     
52   H        -1.4882   12.5204   30.9671  H     
53   H        -3.1241   12.3596   31.5524  H     
54   H        -1.3137   12.7150   28.5727  H     
55   H        -4.5458   14.0511   26.2160  H     
56   H        -5.8784   14.3101   28.1937  H     
57   H        -4.9411   13.8632   30.3703  H     
58   H        -6.0891   15.9724   38.3558  H     
59   H        -7.3245   16.6603   37.3195  H     
60   H        -7.9757   12.0766   38.3265  H     
61   H        -7.3381   12.0357   36.6647  H     
62   H        -5.0209   11.6651   37.6505  H     
63   H        -6.1597   10.3427   37.9974  H     
64   H        -5.7771   11.5295   39.2604  H     
@<TRIPOS>BOND
     1    1    2 2
     2    1    4 1
     3    2    3 1
     4    2   18 1
     5    3    6 2
     6    4    5 2
     7    4   17 1
     8    5    6 1
     9    5   10 1
    10    6    7 1
    11    7    8 2
    12    8    9 1
    13    9   10 2
    14    9   11 1
    15   11   12 1
    16   11   16 1
    17   12   13 1
    18   13   14 1
    19   14   15 1
    20   14   32 1
    21   15   16 1
    22   17   22 1
    23   18   19 1
    24   18   20 1
    25   18   21 1
    26   22   23 1
    27   23   24 2
    28   23   28 1
    29   24   25 1
    30   25   26 2
    31   25   29 am
    32   26   27 1
    33   27   28 2
    34   29   30 2
    35   29   31 1
    36   32   33 1
    37   33   34 2
    38   33   35 1
    39   35   36 1
    40   36   37 1
    41    1   38 1
    42    3   39 1
    43    8   40 1
    44   10   41 1
    45   12   42 1
    46   12   43 1
    47   13   44 1
    48   13   45 1
    49   14   46 1
    50   15   47 1
    51   15   48 1
    52   16   49 1
    53   16   50 1
    54   17   51 1
    55   22   52 1
    56   22   53 1
    57   24   54 1
    58   26   55 1
    59   27   56 1
    60   28   57 1
    61   32   58 1
    62   32   59 1
    63   36   60 1
    64   36   61 1
    65   37   62 1
    66   37   63 1
    67   37   64 1
@<TRIPOS>PROPERTY_DATA
  Total_Score	| 11.6947
  Crash		| -1.3646
  Polar		| 4.4424
  FragIndex	| 1
  FragRMSD	| 0.512

