@<TRIPOS>MOLECULE
BindingDB_50341627
 55 58 0 0 0
SMALL
NO_CHARGES


@<TRIPOS>ATOM
1    C        -0.3367   15.0639   30.7060  C     
2    C         0.5911   16.1268   30.5358  C     
3    C         0.3782   17.3181   31.2593  C     
4    C        -1.4306   15.1442   31.6154  C     
5    C        -1.5696   16.3282   32.3843  C     
6    C        -0.6860   17.4228   32.1649  C     
7    N        -0.8862   18.5799   32.8421  N     
8    C        -1.8648   18.7236   33.7191  C     
9    C        -2.7138   17.6843   34.0290  C     
10   C        -2.5516   16.5092   33.3745  C     
11   N        -3.6437   17.8205   34.9668  N     
12   C        -3.3156   18.2325   36.2865  C     
13   C        -4.0870   19.5351   36.6225  C     
14   N        -5.5553   19.3285   36.4188  N     
15   C        -5.8658   18.8435   35.0379  C     
16   C        -5.0183   17.5913   34.6918  C     
17   C        -6.3606   20.5241   36.7870  C     
18   N        -2.3169   14.1118   31.7463  N     
19   C         1.7561   15.9318   29.6261  C     
20   F         2.6007   17.0115   29.5230  F     
21   F         2.5140   14.8803   30.0824  F     
22   F         1.3115   15.6489   28.3563  F     
23   C        -2.3922   12.8783   31.0287  C     
24   C        -3.0107   13.0789   29.6936  C     
25   C        -2.2447   12.9316   28.5134  C     
26   C        -2.7785   13.2051   27.2299  C     
27   C        -4.1551   13.5454   27.1514  C     
28   C        -4.9475   13.6446   28.3072  C     
29   C        -4.3753   13.4310   29.5753  C     
30   N        -1.9750   13.1671   26.1328  N     
31   O        -2.3527   13.5216   25.0440  O     
32   O        -0.7172   12.8004   26.1920  O     
33   H        -0.1862   14.1882   30.1871  H     
34   H         1.0164   18.1113   31.1467  H     
35   H        -1.9404   19.5984   34.1809  H     
36   H        -3.1371   15.7510   33.6189  H     
37   H        -3.6095   17.4495   36.9934  H     
38   H        -2.2466   18.4056   36.4389  H     
39   H        -3.8844   19.8028   37.6609  H     
40   H        -3.7276   20.3506   35.9854  H     
41   H        -5.8344   18.5821   37.0603  H     
42   H        -6.9248   18.5765   34.9682  H     
43   H        -5.6651   19.6278   34.2996  H     
44   H        -5.2171   17.3258   33.6493  H     
45   H        -5.3642   16.7554   35.3070  H     
46   H        -6.1555   21.3603   36.1130  H     
47   H        -6.1365   20.8373   37.8091  H     
48   H        -7.4273   20.2902   36.7406  H     
49   H        -3.0134   14.2210   32.4313  H     
50   H        -1.3789   12.4518   30.9579  H     
51   H        -3.0113   12.1795   31.5902  H     
52   H        -1.2643   12.6660   28.5995  H     
53   H        -4.5915   13.7261   26.2445  H     
54   H        -5.9403   13.8909   28.2298  H     
55   H        -4.9616   13.5268   30.4122  H     
@<TRIPOS>BOND
     1    1    2 2
     2    1    4 1
     3    2    3 1
     4    2   19 1
     5    3    6 2
     6    4    5 2
     7    4   18 1
     8    5    6 1
     9    5   10 1
    10    6    7 1
    11    7    8 2
    12    8    9 1
    13    9   10 2
    14    9   11 1
    15   11   12 1
    16   11   16 1
    17   12   13 1
    18   13   14 1
    19   14   15 1
    20   14   17 1
    21   15   16 1
    22   18   23 1
    23   19   20 1
    24   19   21 1
    25   19   22 1
    26   23   24 1
    27   24   25 2
    28   24   29 1
    29   25   26 1
    30   26   27 2
    31   26   30 am
    32   27   28 1
    33   28   29 2
    34   30   31 2
    35   30   32 1
    36    1   33 1
    37    3   34 1
    38    8   35 1
    39   10   36 1
    40   12   37 1
    41   12   38 1
    42   13   39 1
    43   13   40 1
    44   14   41 1
    45   15   42 1
    46   15   43 1
    47   16   44 1
    48   16   45 1
    49   17   46 1
    50   17   47 1
    51   17   48 1
    52   18   49 1
    53   23   50 1
    54   23   51 1
    55   25   52 1
    56   27   53 1
    57   28   54 1
    58   29   55 1
@<TRIPOS>PROPERTY_DATA
  Total_Score	| 10.6285
  Crash		| -0.8468
  Polar		| 3.4824
  FragIndex	| 1
  FragRMSD	| 0.833

