@<TRIPOS>MOLECULE
BindingDB_50341630
 66 69 0 0 0
SMALL
NO_CHARGES


@<TRIPOS>ATOM
1    C        -0.4116   15.1064   30.7226  C     
2    C         0.5892   16.0961   30.5626  C     
3    C         0.4811   17.2698   31.3381  C     
4    C        -1.4940   15.2385   31.6390  C     
5    C        -1.5663   16.4204   32.4315  C     
6    C        -0.5778   17.4307   32.2481  C     
7    N        -0.6646   18.5817   32.9560  N     
8    C        -1.6425   18.8120   33.8220  C     
9    C        -2.6142   17.8696   34.0701  C     
10   C        -2.5633   16.6956   33.3952  C     
11   N        -3.5297   18.0802   35.0054  N     
12   C        -4.9136   17.8628   34.7615  C     
13   C        -5.4982   16.9155   35.8489  C     
14   N        -5.0005   17.1684   37.1899  N     
15   C        -4.2145   18.3695   37.4019  C     
16   C        -3.1172   18.4893   36.3062  C     
17   C        -5.2527   16.2842   38.2078  C     
18   N        -2.4425   14.2617   31.7635  N     
19   C         1.7003   15.8741   29.5960  C     
20   F         2.6061   16.9069   29.5162  F     
21   F         2.4116   14.7518   29.9507  F     
22   F         1.1989   15.6919   28.3282  F     
23   C        -2.5512   13.0215   31.0503  C     
24   C        -3.1043   13.2259   29.6825  C     
25   C        -2.3194   13.0198   28.5214  C     
26   C        -2.8034   13.3312   27.2247  C     
27   C        -4.1442   13.7862   27.1175  C     
28   C        -4.9588   13.9349   28.2500  C     
29   C        -4.4373   13.6740   29.5272  C     
30   N        -1.9960   13.2424   26.1303  N     
31   O        -2.3375   13.6236   25.0400  O     
32   O        -0.7659   12.8133   26.2035  O     
33   O        -5.9677   15.1530   37.9916  O     
34   O        -4.7882   16.5300   39.4671  O     
35   C        -4.7944   15.8684   40.7496  C     
36   C        -5.7706   14.6558   40.8417  C     
37   C        -3.3337   15.3883   40.9979  C     
38   C        -5.1859   16.9395   41.8088  C     
39   H        -0.3238   14.2606   30.1574  H     
40   H         1.1737   18.0175   31.2466  H     
41   H        -1.6422   19.6775   34.3070  H     
42   H        -3.2410   16.0016   33.6062  H     
43   H        -5.4301   18.8266   34.8357  H     
44   H        -5.1225   17.4521   33.7649  H     
45   H        -6.5896   16.9812   35.8455  H     
46   H        -5.2172   15.9009   35.5538  H     
47   H        -4.8852   19.2353   37.3323  H     
48   H        -3.7293   18.4237   38.3816  H     
49   H        -2.2562   17.8866   36.6316  H     
50   H        -2.7902   19.5331   36.2676  H     
51   H        -3.1482   14.4246   32.4066  H     
52   H        -1.5854   12.5172   31.0380  H     
53   H        -3.2355   12.3702   31.5983  H     
54   H        -1.3631   12.6733   28.6311  H     
55   H        -4.5424   14.0202   26.2027  H     
56   H        -5.9198   14.2616   28.1531  H     
57   H        -5.0329   13.8172   30.3493  H     
58   H        -6.8059   14.9852   40.7224  H     
59   H        -5.6825   14.1655   41.8203  H     
60   H        -5.5398   13.9197   40.0657  H     
61   H        -3.0261   14.7005   40.2096  H     
62   H        -3.2415   14.8834   41.9597  H     
63   H        -2.6448   16.2372   40.9841  H     
64   H        -4.4872   17.7816   41.7813  H     
65   H        -5.1790   16.5159   42.8167  H     
66   H        -6.1861   17.3272   41.6019  H     
@<TRIPOS>BOND
     1    1    2 2
     2    1    4 1
     3    2    3 1
     4    2   19 1
     5    3    6 2
     6    4    5 2
     7    4   18 1
     8    5    6 1
     9    5   10 1
    10    6    7 1
    11    7    8 2
    12    8    9 1
    13    9   10 2
    14    9   11 1
    15   11   12 1
    16   11   16 1
    17   12   13 1
    18   13   14 1
    19   14   15 1
    20   14   17 1
    21   15   16 1
    22   17   33 2
    23   17   34 1
    24   18   23 1
    25   19   20 1
    26   19   21 1
    27   19   22 1
    28   23   24 1
    29   24   25 2
    30   24   29 1
    31   25   26 1
    32   26   27 2
    33   26   30 am
    34   27   28 1
    35   28   29 2
    36   30   31 2
    37   30   32 1
    38   34   35 1
    39   35   36 1
    40   35   37 1
    41   35   38 1
    42    1   39 1
    43    3   40 1
    44    8   41 1
    45   10   42 1
    46   12   43 1
    47   12   44 1
    48   13   45 1
    49   13   46 1
    50   15   47 1
    51   15   48 1
    52   16   49 1
    53   16   50 1
    54   18   51 1
    55   23   52 1
    56   23   53 1
    57   25   54 1
    58   27   55 1
    59   28   56 1
    60   29   57 1
    61   36   58 1
    62   36   59 1
    63   36   60 1
    64   37   61 1
    65   37   62 1
    66   37   63 1
    67   38   64 1
    68   38   65 1
    69   38   66 1
@<TRIPOS>PROPERTY_DATA
  Total_Score	| 11.0122
  Crash		| -1.1451
  Polar		| 3.4740
  FragIndex	| 1
  FragRMSD	| 0.622

