@<TRIPOS>MOLECULE
BindingDB_50341631
 52 55 0 0 0
SMALL
NO_CHARGES


@<TRIPOS>ATOM
1    C        -0.2896   15.1899   30.6417  C     
2    C         0.6680   16.2219   30.5279  C     
3    C         0.5107   17.3707   31.3362  C     
4    C        -1.4079   15.2610   31.5123  C     
5    C        -1.5307   16.4248   32.3355  C     
6    C        -0.5710   17.4678   32.2238  C     
7    N        -0.7043   18.5783   32.9926  N     
8    C        -1.6879   18.7311   33.8597  C     
9    C        -2.6298   17.7443   34.0548  C     
10   C        -2.5353   16.6162   33.3062  C     
11   N        -3.6082   17.8850   34.9431  N     
12   C        -3.3472   18.1204   36.3220  C     
13   C        -4.0384   19.4347   36.7669  C     
14   N        -5.4759   19.4044   36.4073  N     
15   C        -5.7204   19.1138   34.9768  C     
16   C        -4.9781   17.8241   34.5543  C     
17   N        -2.3413   14.2639   31.5739  N     
18   C         1.8000   16.0676   29.5753  C     
19   F         2.6928   17.1081   29.5556  F     
20   F         2.5151   14.9403   29.8914  F     
21   F         1.3121   15.9361   28.2954  F     
22   C        -2.3816   13.0038   30.8894  C     
23   C        -3.0511   13.0932   29.5640  C     
24   C        -2.2914   13.1911   28.3734  C     
25   C        -2.8942   13.3204   27.0952  C     
26   C        -4.3117   13.2808   27.0338  C     
27   C        -5.0869   13.1482   28.1983  C     
28   C        -4.4593   13.0750   29.4540  C     
29   N        -2.1367   13.4702   25.9674  N     
30   O        -2.6172   13.5901   24.8723  O     
31   O        -0.8351   13.5258   25.9943  O     
32   H        -0.1492   14.3531   30.0811  H     
33   H         1.1913   18.1336   31.2931  H     
34   H        -1.7188   19.5811   34.3814  H     
35   H        -3.1964   15.8907   33.4658  H     
36   H        -3.7507   17.2976   36.9161  H     
37   H        -2.2746   18.1876   36.5570  H     
38   H        -3.9449   19.5633   37.8462  H     
39   H        -3.5596   20.2889   36.2771  H     
40   H        -5.9308   18.6777   36.9639  H     
41   H        -5.8985   20.3055   36.6404  H     
42   H        -6.7953   18.9901   34.8193  H     
43   H        -5.3806   19.9528   34.3609  H     
44   H        -5.1159   17.6938   33.4751  H     
45   H        -5.4488   16.9685   35.0462  H     
46   H        -3.0763   14.4056   32.1868  H     
47   H        -1.3880   12.5664   30.8122  H     
48   H        -2.9498   12.3192   31.5283  H     
49   H        -1.2737   13.1700   28.4370  H     
50   H        -4.7928   13.3345   26.1321  H     
51   H        -6.1029   13.0992   28.1272  H     
52   H        -5.0434   12.9912   30.2917  H     
@<TRIPOS>BOND
     1    1    2 2
     2    1    4 1
     3    2    3 1
     4    2   18 1
     5    3    6 2
     6    4    5 2
     7    4   17 1
     8    5    6 1
     9    5   10 1
    10    6    7 1
    11    7    8 2
    12    8    9 1
    13    9   10 2
    14    9   11 1
    15   11   12 1
    16   11   16 1
    17   12   13 1
    18   13   14 1
    19   14   15 1
    20   15   16 1
    21   17   22 1
    22   18   19 1
    23   18   20 1
    24   18   21 1
    25   22   23 1
    26   23   24 2
    27   23   28 1
    28   24   25 1
    29   25   26 2
    30   25   29 am
    31   26   27 1
    32   27   28 2
    33   29   30 2
    34   29   31 1
    35    1   32 1
    36    3   33 1
    37    8   34 1
    38   10   35 1
    39   12   36 1
    40   12   37 1
    41   13   38 1
    42   13   39 1
    43   14   40 1
    44   14   41 1
    45   15   42 1
    46   15   43 1
    47   16   44 1
    48   16   45 1
    49   17   46 1
    50   22   47 1
    51   22   48 1
    52   24   49 1
    53   26   50 1
    54   27   51 1
    55   28   52 1
@<TRIPOS>PROPERTY_DATA
  Total_Score	| 10.5175
  Crash		| -0.7985
  Polar		| 2.7378
  FragIndex	| 1
  FragRMSD	| 0.585

