@<TRIPOS>MOLECULE
BindingDB_50103227
 26 27 0 0 0
SMALL
NO_CHARGES


@<TRIPOS>ATOM
1    C        22.9069   18.8468    3.9336  C     
2    P        23.5443   18.6897    5.4647  P     
3    C        23.5007   19.9847    3.1616  C     
4    C        26.2070   24.1700   -1.0545  C     
5    C        25.7675   23.0693   -0.2745  C     
6    C        24.3125   19.7745    2.0147  C     
7    C        25.0250   23.2774    0.9158  C     
8    C        24.8208   20.8604    1.2640  C     
9    C        24.5393   22.1914    1.6729  C     
10   O        24.9735   18.5142    5.4730  O     
11   C        23.2424   21.3243    3.5564  C     
12   F        21.5438   19.0148    4.0294  F     
13   F        23.0585   17.6248    3.3123  F     
14   O        26.9516   23.9956   -2.1772  O     
15   C        26.0343   21.7367   -0.6712  C     
16   O        23.2532   19.9020    6.3623  O     
17   O        22.9366   17.4762    6.1988  O     
18   C        23.7601   22.4119    2.8309  C     
19   C        25.5813   20.6451    0.0926  C     
20   O        25.9073   25.4485   -0.7197  O     
21   H        24.5220   18.8199    1.7112  H     
22   H        24.8182   24.2321    1.2289  H     
23   H        22.6687   21.5232    4.3805  H     
24   H        26.5685   21.5421   -1.5206  H     
25   H        23.5583   23.3657    3.1483  H     
26   H        25.7981   19.6908   -0.2173  H     
@<TRIPOS>BOND
     1    1    2 1
     2    1    3 1
     3    1   12 1
     4    1   13 1
     5    2   10 2
     6    2   16 1
     7    2   17 1
     8    3    6 2
     9    3   11 1
    10    4    5 1
    11    4   14 2
    12    4   20 1
    13    5    7 2
    14    5   15 1
    15    6    8 1
    16    7    9 1
    17    8    9 2
    18    8   19 1
    19    9   18 1
    20   11   18 2
    21   15   19 2
    22    6   21 1
    23    7   22 1
    24   11   23 1
    25   15   24 1
    26   18   25 1
    27   19   26 1
@<TRIPOS>PROPERTY_DATA
  Total_Score	| 10.1591
  Crash		| -0.6161
  Polar		| 6.6832
  FragIndex	| 1
  FragRMSD	| 0.834

