@<TRIPOS>MOLECULE
BindingDB_50239833
 25 26 0 0 0
SMALL
NO_CHARGES


@<TRIPOS>ATOM
1    C        23.6241   21.0236    2.9556  C     
2    C        23.6019   19.6196    2.7551  C     
3    C        24.2418   19.1313    1.5820  C     
4    C        24.3852   21.8794    2.1398  C     
5    C        25.0643   21.3749    1.0228  C     
6    C        24.9306   19.9986    0.6927  C     
7    C        25.4697   19.5690   -0.5265  C     
8    C        26.1609   20.4168   -1.3251  C     
9    C        26.3149   21.7343   -0.9673  C     
10   C        25.7964   22.2169    0.1789  C     
11   C        22.8841   18.6781    3.6952  C     
12   P        23.4983   18.6694    5.2530  P     
13   O        22.9176   17.4940    6.0695  O     
14   O        23.2052   19.8532    6.0459  O     
15   O        25.0255   18.4944    5.3217  O     
16   F        21.5471   18.9804    3.7454  F     
17   F        22.8932   17.3652    3.2767  F     
18   Br       22.5547   21.8580    4.2189  Br    
19   C        26.7047   19.9924   -2.4006  C     
20   N        27.2068   19.6212   -3.3650  N     
21   H        24.1939   18.1382    1.3424  H     
22   H        24.3999   22.8782    2.3479  H     
23   H        25.2979   18.6240   -0.8183  H     
24   H        26.8144   22.3681   -1.5516  H     
25   H        25.9347   23.1675    0.4190  H     
@<TRIPOS>BOND
     1    1    2 2
     2    1    4 1
     3    1   18 1
     4    2    3 1
     5    2   11 1
     6    3    6 2
     7    4    5 2
     8    5    6 1
     9    5   10 1
    10    6    7 1
    11    7    8 2
    12    8    9 1
    13    8   19 1
    14    9   10 2
    15   11   12 1
    16   11   16 1
    17   11   17 1
    18   12   13 1
    19   12   14 2
    20   12   15 1
    21   19   20 3
    22    3   21 1
    23    4   22 1
    24    7   23 1
    25    9   24 1
    26   10   25 1
@<TRIPOS>PROPERTY_DATA
  Total_Score	| 5.4688
  Crash		| -5.0830
  Polar		| 6.2533
  FragIndex	| 1
  FragRMSD	| 0.737

