@<TRIPOS>MOLECULE
BindingDB_50070002
 30 31 0 0 0
SMALL
NO_CHARGES


@<TRIPOS>ATOM
1    P        23.4928   18.7289    5.5048  P     
2    P        27.3189   22.2037   -2.9801  P     
3    C        24.7350   20.7351    1.2525  C     
4    O        22.8874   17.5243    6.2487  O     
5    O        25.0153   18.5012    5.4779  O     
6    O        27.5781   21.5780   -4.3926  O     
7    O        26.3890   23.3958   -3.2626  O     
8    O        23.2743   19.8728    6.3477  O     
9    O        28.5795   22.7003   -2.5092  O     
10   C        22.8123   18.8826    3.9933  C     
11   C        26.6235   21.1050   -1.9510  C     
12   C        25.4290   20.4778    0.0657  C     
13   C        24.1506   19.7037    2.0228  C     
14   C        24.5845   22.0795    1.6926  C     
15   C        25.9523   21.4852   -0.6888  C     
16   C        23.4037   19.9857    3.1943  C     
17   C        25.2080   23.0801    0.9474  C     
18   C        23.8055   22.3756    2.8232  C     
19   C        23.2092   21.3408    3.5575  C     
20   C        25.8401   22.7857   -0.1806  C     
21   H        22.9448   17.9205    3.4941  H     
22   H        21.7398   19.0430    4.1038  H     
23   H        25.8881   20.5703   -2.5666  H     
24   H        27.3992   20.3768   -1.6859  H     
25   H        25.5027   19.5314   -0.2403  H     
26   H        24.2574   18.7294    1.7241  H     
27   H        25.1958   24.0408    1.2485  H     
28   H        23.6625   23.3453    3.1159  H     
29   H        22.6427   21.5799    4.3715  H     
30   H        26.2597   23.5533   -0.6344  H     
@<TRIPOS>BOND
     1    1    4 1
     2    1    5 1
     3    1    8 2
     4    1   10 1
     5    2    6 1
     6    2    7 1
     7    2    9 2
     8    2   11 1
     9    3   12 1
    10    3   13 2
    11    3   14 1
    12   10   16 1
    13   11   15 1
    14   12   15 2
    15   13   16 1
    16   14   17 1
    17   14   18 2
    18   15   20 1
    19   16   19 2
    20   17   20 2
    21   18   19 1
    22   10   21 1
    23   10   22 1
    24   11   23 1
    25   11   24 1
    26   12   25 1
    27   13   26 1
    28   17   27 1
    29   18   28 1
    30   19   29 1
    31   20   30 1
@<TRIPOS>PROPERTY_DATA
  Total_Score	| 10.1979
  Crash		| -0.6666
  Polar		| 6.5439
  FragIndex	| 1
  FragRMSD	| 0.772

