@<TRIPOS>MOLECULE
BindingDB_50070001
 24 25 0 0 0
SMALL
NO_CHARGES


@<TRIPOS>ATOM
1    C        23.1460   19.0348    3.6133  C     
2    P        23.5957   18.8321    5.2209  P     
3    C        23.6237   20.2776    2.9354  C     
4    C        24.4230   20.3606    1.7327  C     
5    O        22.9155   17.6072    5.8706  O     
6    O        25.1005   18.5609    5.3615  O     
7    O        23.3136   19.9261    6.1169  O     
8    F        21.7698   18.9975    3.5579  F     
9    F        23.5717   17.8615    3.0347  F     
10   C        24.9708   21.6387    1.3605  C     
11   C        23.2427   21.4648    3.4898  C     
12   C        24.6152   19.3070    0.7944  C     
13   C        23.7457   22.6660    3.1053  C     
14   C        24.6353   22.7647    2.0993  C     
15   C        25.7558   21.8047    0.1956  C     
16   C        25.3575   19.4907   -0.3881  C     
17   C        25.9526   20.7304   -0.6789  C     
18   H        22.6036   21.4846    4.2551  H     
19   H        24.1685   18.3988    0.9195  H     
20   H        23.4644   23.4941    3.5797  H     
21   H        24.9949   23.6642    1.8676  H     
22   H        26.1525   22.7191   -0.0441  H     
23   H        25.4502   18.7242   -1.0615  H     
24   H        26.4817   20.8612   -1.5448  H     
@<TRIPOS>BOND
     1    1    2 1
     2    1    3 1
     3    1    8 1
     4    1    9 1
     5    2    5 1
     6    2    6 1
     7    2    7 2
     8    3    4 1
     9    3   11 2
    10    4   10 1
    11    4   12 2
    12   10   14 1
    13   10   15 2
    14   11   13 1
    15   12   16 1
    16   13   14 2
    17   15   17 1
    18   16   17 2
    19   11   18 1
    20   12   19 1
    21   13   20 1
    22   14   21 1
    23   15   22 1
    24   16   23 1
    25   17   24 1
@<TRIPOS>PROPERTY_DATA
  Total_Score	| 9.6651
  Crash		| -1.5337
  Polar		| 6.1970
  FragIndex	| 1
  FragRMSD	| 1.384

