@<TRIPOS>MOLECULE
BindingDB_50107745
 30 31 0 0 0
SMALL
NO_CHARGES


@<TRIPOS>ATOM
1    P        27.1878   20.3271   -2.6155  P     
2    P        23.5044   18.6916    5.4469  P     
3    C        22.9257   18.8713    3.9003  C     
4    C        26.5622   21.7471   -2.0257  C     
5    C        23.5284   20.0289    3.1622  C     
6    C        25.9518   21.8449   -0.6747  C     
7    C        24.8448   20.9408    1.2758  C     
8    C        24.3348   19.8427    2.0062  C     
9    C        25.5416   20.7763    0.0615  C     
10   O        28.5766   20.5202   -3.2956  O     
11   O        22.8667   17.4891    6.1612  O     
12   O        25.0252   18.4510    5.4969  O     
13   O        27.4514   19.3205   -1.4654  O     
14   O        23.2684   19.8143    6.3111  O     
15   O        26.3020   19.7064   -3.5615  O     
16   C        24.5866   22.2684    1.7306  C     
17   C        23.2549   21.3640    3.5661  C     
18   C        25.7430   23.1211   -0.1558  C     
19   F        25.6326   22.1420   -2.9556  F     
20   F        27.6120   22.6343   -2.1107  F     
21   F        21.5628   19.0274    3.9672  F     
22   F        23.1041   17.6551    3.2816  F     
23   C        25.1003   23.3442    1.0044  C     
24   C        23.7958   22.4632    2.8795  C     
25   H        24.5265   18.8946    1.6748  H     
26   H        25.6962   19.8502   -0.2719  H     
27   H        22.6648   21.5397    4.3773  H     
28   H        26.0911   23.9087   -0.6462  H     
29   H        24.9818   24.2823    1.3347  H     
30   H        23.5680   23.4123    3.1907  H     
@<TRIPOS>BOND
     1    1    4 1
     2    1   10 1
     3    1   13 1
     4    1   15 2
     5    2    3 1
     6    2   11 1
     7    2   12 1
     8    2   14 2
     9    3    5 1
    10    3   21 1
    11    3   22 1
    12    4    6 1
    13    4   19 1
    14    4   20 1
    15    5    8 1
    16    5   17 2
    17    6    9 2
    18    6   18 1
    19    7    8 2
    20    7    9 1
    21    7   16 1
    22   16   23 1
    23   16   24 2
    24   17   24 1
    25   18   23 2
    26    8   25 1
    27    9   26 1
    28   17   27 1
    29   18   28 1
    30   23   29 1
    31   24   30 1
@<TRIPOS>PROPERTY_DATA
  Total_Score	| 11.5221
  Crash		| -0.8479
  Polar		| 8.0241
  FragIndex	| 1
  FragRMSD	| 1.377

