@<TRIPOS>MOLECULE
BindingDB_8046
 34 36 0 0 0
SMALL
NO_CHARGES


@<TRIPOS>ATOM
1    C        27.3473   42.6594   11.9089  C     
2    C        27.6954   40.6540   10.8212  C     
3    C        26.7416   41.1753    9.9193  C     
4    N        27.9844   41.4708   11.8744  N     
5    C        27.5485   43.7488   12.8642  C     
6    C        28.4225   39.3775   10.6954  C     
7    S        26.3335   42.7317   10.5342  S     
8    C        26.1182   40.6593    8.7546  C     
9    C        26.3189   39.3749    8.2028  C     
10   C        25.5633   38.9961    7.0854  C     
11   C        24.4170   41.0688    7.1096  C     
12   N        25.1694   41.4459    8.1726  N     
13   N        24.6389   39.8420    6.5754  N     
14   N        23.4323   41.8196    6.5671  N     
15   C        22.9632   43.0511    6.9392  C     
16   C        22.6152   44.9410    8.4740  C     
17   C        23.1448   43.6646    8.2055  C     
18   C        22.1897   43.7349    5.9718  C     
19   C        21.6535   45.0087    6.2408  C     
20   C        21.8794   45.6223    7.4877  C     
21   F        21.3968   46.8102    7.7363  F     
22   H        27.3317   43.3997   13.8718  H     
23   H        26.8884   44.5877   12.6274  H     
24   H        28.5839   44.0891   12.8092  H     
25   H        27.7241   38.5435   10.7499  H     
26   H        29.1574   39.2488   11.4921  H     
27   H        28.9555   39.3460    9.7444  H     
28   H        26.9809   38.7056    8.5877  H     
29   H        25.6875   38.0681    6.6726  H     
30   H        22.9757   41.4139    5.8094  H     
31   H        22.7631   45.3645    9.3940  H     
32   H        23.6365   43.1872    8.9635  H     
33   H        22.0226   43.3141    5.0513  H     
34   H        21.1060   45.4882    5.5242  H     
@<TRIPOS>BOND
     1    1    4 2
     2    1    5 1
     3    1    7 1
     4    2    3 2
     5    2    4 1
     6    2    6 1
     7    3    7 1
     8    3    8 1
     9    8    9 1
    10    8   12 2
    11    9   10 2
    12   10   13 1
    13   11   12 1
    14   11   13 2
    15   11   14 1
    16   14   15 1
    17   15   17 1
    18   15   18 2
    19   16   17 2
    20   16   20 1
    21   18   19 1
    22   19   20 2
    23   20   21 1
    24    5   22 1
    25    5   23 1
    26    5   24 1
    27    6   25 1
    28    6   26 1
    29    6   27 1
    30    9   28 1
    31   10   29 1
    32   14   30 1
    33   16   31 1
    34   17   32 1
    35   18   33 1
    36   19   34 1
@<TRIPOS>PROPERTY_DATA
  Total_Score	| 1.4596
  Crash		| -4.4230
  Polar		| 1.7236
  FragIndex	| 1
  FragRMSD	| 0.203

