@<TRIPOS>MOLECULE
BindingDB_8066
 42 44 0 0 0
SMALL
NO_CHARGES


@<TRIPOS>ATOM
1    C        27.3524   42.6671   11.9195  C     
2    C        27.6477   40.6512   10.8309  C     
3    C        26.7214   41.2056    9.9210  C     
4    N        27.9481   41.4546   11.8892  N     
5    C        28.3512   39.3588   10.6944  C     
6    S        26.3567   42.7765   10.5270  S     
7    C        26.0899   40.6988    8.7495  C     
8    C        26.2480   39.3855    8.2385  C     
9    C        25.4615   38.9822    7.1503  C     
10   C        24.4137   41.0949    7.0763  C     
11   N        25.1639   41.4947    8.1385  N     
12   N        24.5791   39.8365    6.6066  N     
13   N        23.4387   41.8077    6.4928  N     
14   C        22.9716   43.0386    6.8043  C     
15   C        21.6688   44.9562    6.0250  C     
16   C        22.1878   43.6670    5.8190  C     
17   C        23.1458   43.7034    8.0387  C     
18   C        22.6059   44.9864    8.2507  C     
19   C        21.8881   45.6590    7.2306  C     
20   C        27.5951   43.7652   12.8635  C     
21   N        21.4347   46.9390    7.3980  N     
22   C        21.0527   47.4391    8.6982  C     
23   C        21.3789   47.8437    6.2708  C     
24   H        27.6414   38.5363   10.7456  H     
25   H        29.0839   39.2164   11.4882  H     
26   H        28.8803   39.3250    9.7413  H     
27   H        26.8963   38.7058    8.6386  H     
28   H        25.5251   38.0295    6.8017  H     
29   H        23.0026   41.3720    5.7571  H     
30   H        21.1233   45.3570    5.2619  H     
31   H        21.9990   43.1832    4.9217  H     
32   H        23.6856   43.2596    8.8015  H     
33   H        22.7913   45.4311    9.1500  H     
34   H        27.3481   43.4590   13.8781  H     
35   H        26.9844   44.6300   12.6013  H     
36   H        28.6470   44.0486   12.8168  H     
37   H        20.3489   46.7359    9.1647  H     
38   H        20.5405   48.4075    8.6480  H     
39   H        21.9161   47.5616    9.3708  H     
40   H        22.3619   47.8650    5.7798  H     
41   H        21.1540   48.8798    6.5517  H     
42   H        20.6269   47.5418    5.5244  H     
@<TRIPOS>BOND
     1    1    4 2
     2    1    6 1
     3    1   20 1
     4    2    3 2
     5    2    4 1
     6    2    5 1
     7    3    6 1
     8    3    7 1
     9    7    8 1
    10    7   11 2
    11    8    9 2
    12    9   12 1
    13   10   11 1
    14   10   12 2
    15   10   13 1
    16   13   14 1
    17   14   16 1
    18   14   17 2
    19   15   16 2
    20   15   19 1
    21   17   18 1
    22   18   19 2
    23   19   21 1
    24   21   22 1
    25   21   23 1
    26    5   24 1
    27    5   25 1
    28    5   26 1
    29    8   27 1
    30    9   28 1
    31   13   29 1
    32   15   30 1
    33   16   31 1
    34   17   32 1
    35   18   33 1
    36   20   34 1
    37   20   35 1
    38   20   36 1
    39   22   37 1
    40   22   38 1
    41   22   39 1
    42   23   40 1
    43   23   41 1
    44   23   42 1
@<TRIPOS>PROPERTY_DATA
  Total_Score	| 3.5533
  Crash		| -4.3750
  Polar		| 1.6818
  FragIndex	| 1
  FragRMSD	| 0.235

