@<TRIPOS>MOLECULE
BindingDB_8043
 34 36 0 0 0
SMALL
NO_CHARGES


@<TRIPOS>ATOM
1    C        27.3126   42.7513   11.8548  C     
2    C        27.5984   40.7392   10.7502  C     
3    C        26.6232   41.2689    9.8701  C     
4    N        27.9267   41.5544   11.7940  N     
5    C        27.5539   43.7986   12.8478  C     
6    C        28.3055   39.4451   10.6366  C     
7    S        26.2522   42.8270   10.5118  S     
8    C        25.9677   40.7496    8.7218  C     
9    C        26.1818   39.4562    8.1882  C     
10   C        25.4149   39.0528    7.0877  C     
11   C        24.2808   41.1395    7.0562  C     
12   N        25.0152   41.5350    8.1280  N     
13   N        24.5045   39.9002    6.5508  N     
14   N        23.3143   41.8827    6.4691  N     
15   C        22.8334   43.1228    6.7974  C     
16   C        21.6058   45.1130    6.0368  C     
17   C        22.1237   43.8233    5.7945  C     
18   C        22.9469   43.7085    8.0839  C     
19   C        22.4323   44.9985    8.3343  C     
20   C        21.7738   45.7062    7.3062  C     
21   Cl       21.1642   47.2624    7.6142  Cl    
22   H        27.3272   43.4169   13.8433  H     
23   H        26.9355   44.6731   12.6501  H     
24   H        28.6055   44.0959   12.8083  H     
25   H        27.5926   38.6285   10.7232  H     
26   H        29.0521   39.3178   11.4236  H     
27   H        28.8255   39.3920    9.6739  H     
28   H        26.8575   38.7964    8.5602  H     
29   H        25.5349   38.1179    6.6915  H     
30   H        22.8707   41.4497    5.7215  H     
31   H        21.1205   45.6160    5.2864  H     
32   H        22.0000   43.4065    4.8672  H     
33   H        23.3897   43.1913    8.8511  H     
34   H        22.5337   45.4096    9.2683  H     
@<TRIPOS>BOND
     1    1    4 2
     2    1    5 1
     3    1    7 1
     4    2    3 2
     5    2    4 1
     6    2    6 1
     7    3    7 1
     8    3    8 1
     9    8    9 1
    10    8   12 2
    11    9   10 2
    12   10   13 1
    13   11   12 1
    14   11   13 2
    15   11   14 1
    16   14   15 1
    17   15   17 1
    18   15   18 2
    19   16   17 2
    20   16   20 1
    21   18   19 1
    22   19   20 2
    23   20   21 1
    24    5   22 1
    25    5   23 1
    26    5   24 1
    27    6   25 1
    28    6   26 1
    29    6   27 1
    30    9   28 1
    31   10   29 1
    32   14   30 1
    33   16   31 1
    34   17   32 1
    35   18   33 1
    36   19   34 1
@<TRIPOS>PROPERTY_DATA
  Total_Score	| 1.6318
  Crash		| -4.1712
  Polar		| 1.5855
  FragIndex	| 1
  FragRMSD	| 0.224

