@<TRIPOS>MOLECULE
BindingDB_13461
 56 58 0 0 0
SMALL
NO_CHARGES


@<TRIPOS>ATOM
1    C        44.0526   14.0423   15.8919  C     
2    C        43.4275   14.9984   15.0731  C     
3    C        42.2349   14.6860   14.4007  C     
4    C        41.6554   13.4113   14.5717  C     
5    N        41.6242   15.6182   13.6464  N     
6    O        42.3845   14.4246   11.2785  O     
7    S        42.1038   15.8962   12.0568  S     
8    O        40.9603   16.8060   11.2110  O     
9    O        43.5465   16.7610   12.0519  O     
10   C        42.2431   12.4613   15.4430  C     
11   C        43.4666   12.7727   16.0808  C     
12   C        41.5662   11.1579   15.6892  C     
13   C        44.1176   11.7494   16.9247  C     
14   C        43.1063   10.8144   17.6555  C     
15   N        42.0331   10.3206   16.7871  N     
16   C        42.5726   11.4243   18.8746  C     
17   O        42.6702   10.8137   19.9346  O     
18   N        41.9980   12.6190   18.8466  N     
19   C        41.4324   13.2963   19.9654  C     
20   C        41.4394    9.1238   17.0367  C     
21   O        41.8170    8.4490   17.9901  O     
22   C        40.3333    8.4985   16.2923  C     
23   C        39.8044    6.7266   14.5298  C     
24   C        39.3900    6.3460   12.1370  C     
25   C        40.2634    6.6682   13.1890  C     
26   C        38.4324    6.4381   14.7740  C     
27   C        37.5533    6.1255   13.7165  C     
28   C        38.0377    6.0832   12.3959  C     
29   C        40.7193    7.1351   15.6397  C     
30   N        36.2383    5.9661   13.9330  N     
31   O        34.6192    7.4306   12.2694  O     
32   O        33.9154    7.1107   14.9021  O     
33   S        35.2128    7.2956   13.8379  S     
34   O        36.0746    8.7107   14.1693  O     
35   H        44.9380   14.2839   16.3433  H     
36   H        43.8497   15.9297   14.9652  H     
37   H        40.7646   13.1910   14.1104  H     
38   H        41.1641   16.3433   14.1143  H     
39   H        40.5146   11.3917   15.8797  H     
40   H        41.6427   10.5949   14.7573  H     
41   H        44.7349   11.1418   16.2503  H     
42   H        44.7954   12.2122   17.6530  H     
43   H        43.7363    9.9613   17.9480  H     
44   H        41.9623   13.0787   17.9952  H     
45   H        40.5991   12.7217   20.3740  H     
46   H        41.0619   14.2701   19.6426  H     
47   H        42.1838   13.4481   20.7433  H     
48   H        39.5069    8.3346   16.9894  H     
49   H        39.9445    9.1545   15.5139  H     
50   H        39.7355    6.3317   11.1719  H     
51   H        41.2452    6.8599   12.9706  H     
52   H        38.0723    6.4825   15.7328  H     
53   H        37.4126    5.8575   11.6158  H     
54   H        41.7414    7.2052   15.2630  H     
55   H        40.7078    6.3538   16.3981  H     
56   H        35.9259    5.1546   14.3876  H     
@<TRIPOS>BOND
     1    1    2 1
     2    1   11 2
     3    2    3 2
     4    3    4 1
     5    3    5 1
     6    4   10 2
     7    5    7 1
     8    6    7 1
     9    7    8 2
    10    7    9 2
    11   10   11 1
    12   10   12 1
    13   11   13 1
    14   12   15 1
    15   13   14 1
    16   14   15 1
    17   14   16 1
    18   15   20 am
    19   16   17 2
    20   16   18 am
    21   18   19 1
    22   20   21 2
    23   20   22 1
    24   22   29 1
    25   23   25 2
    26   23   26 1
    27   23   29 1
    28   24   25 1
    29   24   28 2
    30   26   27 2
    31   27   28 1
    32   27   30 1
    33   30   33 1
    34   31   33 2
    35   32   33 2
    36   33   34 1
    37    1   35 1
    38    2   36 1
    39    4   37 1
    40    5   38 1
    41   12   39 1
    42   12   40 1
    43   13   41 1
    44   13   42 1
    45   14   43 1
    46   18   44 1
    47   19   45 1
    48   19   46 1
    49   19   47 1
    50   22   48 1
    51   22   49 1
    52   24   50 1
    53   25   51 1
    54   26   52 1
    55   28   53 1
    56   29   54 1
    57   29   55 1
    58   30   56 1
@<TRIPOS>PROPERTY_DATA
  Total_Score	| 13.7505
  Crash		| -1.5452
  Polar		| 10.1285
  FragIndex	| 1
  FragRMSD	| 0.843

