@<TRIPOS>MOLECULE
BindingDB_13443
 51 53 0 0 0
SMALL
NO_CHARGES


@<TRIPOS>ATOM
1    C        43.9709   14.0400   15.8032  C     
2    C        43.3132   15.0016   15.0190  C     
3    C        42.1222   14.6738   14.3431  C     
4    C        41.5621   13.3901   14.4966  C     
5    N        41.5113   15.6103   13.5919  N     
6    O        43.5975   16.6563   12.1376  O     
7    S        42.0904   15.8994   12.0329  S     
8    O        42.3083   14.4601   11.1779  O     
9    O        41.0365   16.9199   11.1971  O     
10   C        42.1855   12.4293   15.3279  C     
11   C        43.4179   12.7480   15.9452  C     
12   C        41.5326   11.1170   15.5991  C     
13   C        44.1061   11.6860   16.7099  C     
14   C        43.0914   10.8748   17.5734  C     
15   N        42.0186   10.3212   16.7250  N     
16   C        42.5983   11.6552   18.7105  C     
17   O        43.2909   11.6945   19.7219  O     
18   N        41.4114   12.2711   18.6962  N     
19   C        40.8809   13.0576   19.7604  C     
20   C        41.4382    9.1390   17.0487  C     
21   O        41.8206    8.5154   18.0385  O     
22   C        40.3300    8.4828   16.3474  C     
23   C        40.7673    7.1600   15.6535  C     
24   C        39.8230    6.7485   14.5787  C     
25   C        40.2287    6.7269   13.2236  C     
26   C        39.3207    6.3743   12.2076  C     
27   C        37.9954    6.0346   12.5307  C     
28   C        37.5827    6.0416   13.8723  C     
29   C        38.4883    6.3972   14.8901  C     
30   H        44.8444   14.2848   16.2689  H     
31   H        43.7250   15.9346   14.9240  H     
32   H        40.6821   13.1639   14.0273  H     
33   H        41.1764   16.3884   14.0667  H     
34   H        40.4724   11.3255   15.7815  H     
35   H        41.6267   10.5256   14.6837  H     
36   H        44.5716   11.0038   15.9882  H     
37   H        44.9063   12.0948   17.3370  H     
38   H        43.6919   10.0568   17.9911  H     
39   H        40.8792   12.1980   17.8903  H     
40   H        40.8163   12.4697   20.6843  H     
41   H        39.8775   13.3893   19.4872  H     
42   H        41.5091   13.9365   19.9283  H     
43   H        39.5358    8.2632   17.0719  H     
44   H        39.8799    9.1264   15.5902  H     
45   H        41.7720    7.2993   15.2412  H     
46   H        40.8398    6.3592   16.3944  H     
47   H        41.1862    6.9802   12.9631  H     
48   H        39.6262    6.3664   11.2347  H     
49   H        37.3398    5.7831   11.7900  H     
50   H        36.6229    5.7889   14.1101  H     
51   H        38.1665    6.3969   15.8608  H     
@<TRIPOS>BOND
     1    1    2 1
     2    1   11 2
     3    2    3 2
     4    3    4 1
     5    3    5 1
     6    4   10 2
     7    5    7 1
     8    6    7 1
     9    7    8 2
    10    7    9 2
    11   10   11 1
    12   10   12 1
    13   11   13 1
    14   12   15 1
    15   13   14 1
    16   14   15 1
    17   14   16 1
    18   15   20 am
    19   16   17 2
    20   16   18 am
    21   18   19 1
    22   20   21 2
    23   20   22 1
    24   22   23 1
    25   23   24 1
    26   24   25 2
    27   24   29 1
    28   25   26 1
    29   26   27 2
    30   27   28 1
    31   28   29 2
    32    1   30 1
    33    2   31 1
    34    4   32 1
    35    5   33 1
    36   12   34 1
    37   12   35 1
    38   13   36 1
    39   13   37 1
    40   14   38 1
    41   18   39 1
    42   19   40 1
    43   19   41 1
    44   19   42 1
    45   22   43 1
    46   22   44 1
    47   23   45 1
    48   23   46 1
    49   25   47 1
    50   26   48 1
    51   27   49 1
    52   28   50 1
    53   29   51 1
@<TRIPOS>PROPERTY_DATA
  Total_Score	| 10.2676
  Crash		| -1.2158
  Polar		| 5.4424
  FragIndex	| 1
  FragRMSD	| 0.735

