@<TRIPOS>MOLECULE
BindingDB_13436
 54 56 0 0 0
SMALL
NO_CHARGES


@<TRIPOS>ATOM
1    C        44.0440   13.9503   15.6633  C     
2    C        43.4339   14.9135   14.8582  C     
3    C        42.1614   14.6779   14.2939  C     
4    C        41.4871   13.4724   14.5896  C     
5    N        41.5649   15.6261   13.5501  N     
6    O        43.5425   16.7751   12.0378  O     
7    S        42.0989   15.8901   11.9631  S     
8    O        42.3963   14.4607   11.1260  O     
9    O        40.9893   16.8683   11.1572  O     
10   C        42.0859   12.5063   15.4313  C     
11   C        43.3818   12.7349   15.9631  C     
12   C        41.3726   11.2386   15.7434  C     
13   C        44.0026   11.6791   16.7842  C     
14   C        42.9495   10.9705   17.6885  C     
15   N        41.8803   10.4022   16.8395  N     
16   C        42.4633   11.8143   18.7817  C     
17   O        43.2117   12.0134   19.7342  O     
18   N        41.2114   12.2670   18.8469  N     
19   C        40.6608   13.0319   19.9177  C     
20   C        41.3527    9.1821   17.1076  C     
21   O        41.7297    8.5688   18.0959  O     
22   C        40.3360    8.4578   16.3121  C     
23   C        40.9531    7.2534   15.5303  C     
24   C        40.4861    7.1252   14.0483  C     
25   C        39.1253    6.6199   13.6896  C     
26   C        38.0053    6.5815   14.5562  C     
27   C        38.9610    6.1249   12.3714  C     
28   C        37.7182    5.6188   11.9356  C     
29   C        36.6179    5.6118   12.8027  C     
30   C        36.7591    6.0929   14.1106  C     
31   H        44.9733   14.1326   16.0550  H     
32   H        43.9426   15.7817   14.6346  H     
33   H        40.5518   13.3099   14.2068  H     
34   H        41.2184   16.3973   14.0174  H     
35   H        40.3245   11.4798   15.9715  H     
36   H        41.4017   10.6693   14.8004  H     
37   H        44.4282   10.9433   16.0961  H     
38   H        44.8242   12.0794   17.3838  H     
39   H        43.5108   10.1680   18.1654  H     
40   H        40.6080   12.0514   18.1183  H     
41   H        40.7774   12.5071   20.8682  H     
42   H        39.5917   13.1883   19.7413  H     
43   H        41.1473   14.0072   19.9835  H     
44   H        39.5658    8.0950   17.0119  H     
45   H        39.8148    9.1089   15.6018  H     
46   H        42.0451    7.3686   15.4988  H     
47   H        40.7490    6.3194   16.0681  H     
48   H        40.6061    8.1031   13.5753  H     
49   H        41.1971    6.4476   13.5648  H     
50   H        38.0711    6.9044   15.5229  H     
51   H        39.7420    6.1194   11.7131  H     
52   H        37.6192    5.2551   10.9866  H     
53   H        35.7199    5.2501   12.4886  H     
54   H        35.9606    6.0858   14.7544  H     
@<TRIPOS>BOND
     1    1    2 1
     2    1   11 2
     3    2    3 2
     4    3    4 1
     5    3    5 1
     6    4   10 2
     7    5    7 1
     8    6    7 1
     9    7    8 2
    10    7    9 2
    11   10   11 1
    12   10   12 1
    13   11   13 1
    14   12   15 1
    15   13   14 1
    16   14   15 1
    17   14   16 1
    18   15   20 am
    19   16   17 2
    20   16   18 am
    21   18   19 1
    22   20   21 2
    23   20   22 1
    24   22   23 1
    25   23   24 1
    26   24   25 1
    27   25   26 1
    28   25   27 2
    29   26   30 2
    30   27   28 1
    31   28   29 2
    32   29   30 1
    33    1   31 1
    34    2   32 1
    35    4   33 1
    36    5   34 1
    37   12   35 1
    38   12   36 1
    39   13   37 1
    40   13   38 1
    41   14   39 1
    42   18   40 1
    43   19   41 1
    44   19   42 1
    45   19   43 1
    46   22   44 1
    47   22   45 1
    48   23   46 1
    49   23   47 1
    50   24   48 1
    51   24   49 1
    52   26   50 1
    53   27   51 1
    54   28   52 1
    55   29   53 1
    56   30   54 1
@<TRIPOS>PROPERTY_DATA
  Total_Score	| 10.0620
  Crash		| -1.4469
  Polar		| 5.7091
  FragIndex	| 1
  FragRMSD	| 1.068

