@<TRIPOS>MOLECULE
BindingDB_13462
 53 55 0 0 0
SMALL
NO_CHARGES


@<TRIPOS>ATOM
1    C        43.7174   14.3004   16.0854  C     
2    C        43.0891   15.1836   15.1898  C     
3    C        42.0636   14.7290   14.3378  C     
4    C        41.6489   13.3878   14.4148  C     
5    N        41.4419   15.5779   13.4984  N     
6    O        40.9998   16.8869   11.1184  O     
7    S        42.0899   15.9349   11.9855  S     
8    O        43.5574   16.7533   12.1570  O     
9    O        42.3855   14.5152   11.1154  O     
10   C        42.2678   12.4893   15.3081  C     
11   C        43.3017   12.9498   16.1564  C     
12   C        41.8374   11.0680   15.3422  C     
13   C        43.9826   11.9850   17.0488  C     
14   C        43.0384   10.8460   17.5455  C     
15   N        42.2330   10.2419   16.4750  N     
16   C        42.2011   11.2933   18.6584  C     
17   O        42.5932   11.1223   19.8063  O     
18   N        41.0221   11.8603   18.4284  N     
19   C        40.0708   12.2236   19.4201  C     
20   C        41.7866    8.9654   16.5840  C     
21   O        42.0058    8.3345   17.6176  O     
22   C        41.0724    8.1804   15.5559  C     
23   C        38.7456    7.3805   14.7478  C     
24   C        38.5396    6.2536   12.5814  C     
25   C        39.3367    6.7312   13.6358  C     
26   C        37.3313    7.4825   14.7924  C     
27   C        36.5117    6.9905   13.7427  C     
28   C        37.1439    6.3892   12.6287  C     
29   C        39.5791    7.8962   15.8862  C     
30   C        35.0934    7.0827   13.8059  C     
31   O        34.4242    7.2292   14.9785  O     
32   O        34.3375    6.9700   12.6873  O     
33   H        44.4744   14.6434   16.6819  H     
34   H        43.3839   16.1681   15.1664  H     
35   H        40.9010   13.0587   13.8015  H     
36   H        40.4684   15.6525   13.5803  H     
37   H        40.7420   11.0594   15.2985  H     
38   H        42.2239   10.6245   14.4182  H     
39   H        44.7957   11.5380   16.4698  H     
40   H        44.4379   12.4973   17.9051  H     
41   H        43.7344   10.0850   17.9262  H     
42   H        40.7583   11.9870   17.5025  H     
43   H        39.7912   11.3501   20.0116  H     
44   H        39.1768   12.6107   18.9263  H     
45   H        40.4750   12.9961   20.0747  H     
46   H        41.1199    8.6496   14.5812  H     
47   H        41.5946    7.2247   15.4711  H     
48   H        38.9802    5.7877   11.7863  H     
49   H        40.3398    6.6056   13.5777  H     
50   H        36.8894    7.9236   15.6009  H     
51   H        36.5921    6.0138   11.8552  H     
52   H        39.5293    7.1530   16.6879  H     
53   H        39.1383    8.8219   16.2711  H     
@<TRIPOS>BOND
     1    1    2 1
     2    1   11 2
     3    2    3 2
     4    3    4 1
     5    3    5 1
     6    4   10 2
     7    5    7 1
     8    6    7 1
     9    7    8 2
    10    7    9 2
    11   10   11 1
    12   10   12 1
    13   11   13 1
    14   12   15 1
    15   13   14 1
    16   14   15 1
    17   14   16 1
    18   15   20 am
    19   16   17 2
    20   16   18 am
    21   18   19 1
    22   20   21 2
    23   20   22 1
    24   22   29 1
    25   23   25 2
    26   23   26 1
    27   23   29 1
    28   24   25 1
    29   24   28 2
    30   26   27 2
    31   27   28 1
    32   27   30 1
    33   30   31 2
    34   30   32 1
    35    1   33 1
    36    2   34 1
    37    4   35 1
    38    5   36 1
    39   12   37 1
    40   12   38 1
    41   13   39 1
    42   13   40 1
    43   14   41 1
    44   18   42 1
    45   19   43 1
    46   19   44 1
    47   19   45 1
    48   22   46 1
    49   22   47 1
    50   24   48 1
    51   25   49 1
    52   26   50 1
    53   28   51 1
    54   29   52 1
    55   29   53 1
@<TRIPOS>PROPERTY_DATA
  Total_Score	| 11.9777
  Crash		| -1.1348
  Polar		| 8.0708
  FragIndex	| 1
  FragRMSD	| 1.120

