@<TRIPOS>MOLECULE
BindingDB_13456
 62 64 0 0 0
SMALL
NO_CHARGES


@<TRIPOS>ATOM
1    C        43.9287   14.1497   16.0577  C     
2    C        43.2967   15.0824   15.2185  C     
3    C        42.2412   14.6790   14.3834  C     
4    C        41.7730   13.3468   14.4398  C     
5    N        41.6219   15.5910   13.6236  N     
6    O        42.4276   14.4294   11.2018  O     
7    S        42.1370   15.8662   12.0413  S     
8    O        40.9884   16.8133   11.2458  O     
9    O        43.5756   16.7463   12.1202  O     
10   C        42.3696   12.4209   15.3197  C     
11   C        43.4677   12.8122   16.1189  C     
12   C        41.7952   11.0637   15.4476  C     
13   C        44.1370   11.7977   16.9535  C     
14   C        43.1456   10.7667   17.5649  C     
15   N        42.1545   10.2641   16.6086  N     
16   C        42.4967   11.2876   18.7665  C     
17   O        42.7434   10.7790   19.8555  O     
18   N        41.6455   12.2986   18.6779  N     
19   C        40.9443   12.8976   19.7654  C     
20   C        41.5298    9.0714   16.8331  C     
21   O        41.7206    8.4770   17.8924  O     
22   C        40.4566    8.4825   16.0125  C     
23   C        40.7372    7.0528   15.4590  C     
24   C        39.4953    6.3024   15.1538  C     
25   C        37.9540    4.4510   15.6992  C     
26   C        39.1969    5.1077   15.8484  C     
27   C        38.5535    6.8138   14.2416  C     
28   C        37.2892    6.2241   14.1062  C     
29   C        36.9995    5.0413   14.8316  C     
30   N        36.4063    6.8431   13.3003  N     
31   C        34.0251    5.1557   12.7058  C     
32   S        34.7289    6.6970   13.3018  S     
33   O        34.1029    7.1150   14.7022  O     
34   O        34.2252    7.8629   12.3464  O     
35   C        37.6860    3.2260   16.4940  C     
36   F        36.4610    2.6455   16.2613  F     
37   F        38.6220    2.2666   16.2089  F     
38   F        37.7458    3.4978   17.8387  F     
39   H        44.7177   14.4614   16.6216  H     
40   H        43.6192   16.0584   15.1956  H     
41   H        40.9617   13.0776   13.8533  H     
42   H        41.2341   16.3693   14.0915  H     
43   H        40.7114   11.2051   15.4687  H     
44   H        42.0619   10.5169   14.5436  H     
45   H        44.8098   11.2590   16.2905  H     
46   H        44.7532   12.2557   17.7230  H     
47   H        43.7859    9.9203   17.8642  H     
48   H        41.4755   12.6686   17.7970  H     
49   H        40.2879   12.1652   20.2404  H     
50   H        40.3399   13.7233   19.3870  H     
51   H        41.6495   13.2895   20.4994  H     
52   H        39.5342    8.4945   16.6400  H     
53   H        40.2278    9.1004   15.1321  H     
54   H        41.3332    7.1269   14.5282  H     
55   H        41.3761    6.5039   16.1606  H     
56   H        39.8851    4.7289   16.5039  H     
57   H        38.7668    7.6676   13.7279  H     
58   H        36.0794    4.6005   14.7219  H     
59   H        36.7840    7.4554   12.6348  H     
60   H        34.3785    4.9265   11.7005  H     
61   H        32.9327    5.2530   12.6833  H     
62   H        34.2770    4.3198   13.3687  H     
@<TRIPOS>BOND
     1    1    2 1
     2    1   11 2
     3    2    3 2
     4    3    4 1
     5    3    5 1
     6    4   10 2
     7    5    7 1
     8    6    7 1
     9    7    8 2
    10    7    9 2
    11   10   11 1
    12   10   12 1
    13   11   13 1
    14   12   15 1
    15   13   14 1
    16   14   15 1
    17   14   16 1
    18   15   20 am
    19   16   17 2
    20   16   18 am
    21   18   19 1
    22   20   21 2
    23   20   22 1
    24   22   23 1
    25   23   24 1
    26   24   26 2
    27   24   27 1
    28   25   26 1
    29   25   29 2
    30   25   35 1
    31   27   28 2
    32   28   29 1
    33   28   30 1
    34   30   32 1
    35   31   32 1
    36   32   33 2
    37   32   34 2
    38   35   36 1
    39   35   37 1
    40   35   38 1
    41    1   39 1
    42    2   40 1
    43    4   41 1
    44    5   42 1
    45   12   43 1
    46   12   44 1
    47   13   45 1
    48   13   46 1
    49   14   47 1
    50   18   48 1
    51   19   49 1
    52   19   50 1
    53   19   51 1
    54   22   52 1
    55   22   53 1
    56   23   54 1
    57   23   55 1
    58   26   56 1
    59   27   57 1
    60   29   58 1
    61   30   59 1
    62   31   60 1
    63   31   61 1
    64   31   62 1
@<TRIPOS>PROPERTY_DATA
  Total_Score	| 10.6587
  Crash		| -1.6018
  Polar		| 8.2242
  FragIndex	| 1
  FragRMSD	| 0.856

