@<TRIPOS>MOLECULE
BindingDB_18050
 53 55 0 0 0
SMALL
NO_CHARGES


@<TRIPOS>ATOM
1    C        15.4193   17.1886   30.5509  C     
2    N        16.3328   17.8207   29.7534  N     
3    N        17.5413   15.8224   29.4289  N     
4    C        17.3744   17.1487   29.1989  C     
5    N        14.4231   17.9064   31.0993  N     
6    N        18.2642   17.8204   28.4492  N     
7    C        16.6629   15.1355   30.2175  C     
8    C        15.5532   15.8064   30.7996  C     
9    C        16.0188   13.1397   31.3459  C     
10   C        14.9030   13.7976   31.9215  C     
11   N        14.7142   15.1082   31.6106  N     
12   N        16.8391   13.8211   30.5107  N     
13   C        13.9594   13.1511   32.8639  C     
14   N        13.7979   13.9329   34.0916  N     
15   C        13.1364   15.2292   34.0036  C     
16   C        14.1184   13.4557   35.3374  C     
17   C        14.8439   13.8756   37.6477  C     
18   C        14.6749   14.3028   36.3295  C     
19   C        13.7940   12.1303   35.7349  C     
20   C        13.9413   11.7123   37.0628  C     
21   C        14.4589   12.5739   38.0687  C     
22   C        14.5722   12.1666   39.3976  C     
23   O        14.6192   10.9593   39.6652  O     
24   N        14.6951   13.0600   40.3905  N     
25   C        14.8697   12.8200   41.7902  C     
26   C        13.4935   12.8128   42.5271  C     
27   C        12.9196   14.2144   42.8850  C     
28   C        12.4252   15.0274   41.7616  C     
29   O        11.5193   14.5105   40.8878  O     
30   O        12.7275   16.3380   41.6728  O     
31   C        15.7289   11.6289   42.0205  C     
32   O        17.0077   11.6317   41.5884  O     
33   O        15.2133   10.4674   42.4907  O     
34   H        13.7738   17.4743   31.6841  H     
35   H        14.3649   18.8604   30.9326  H     
36   H        19.0306   17.3682   28.0679  H     
37   H        18.1534   18.7715   28.3284  H     
38   H        16.2098   12.1589   31.5478  H     
39   H        12.9816   13.0399   32.3689  H     
40   H        14.3336   12.1434   33.0727  H     
41   H        12.6551   15.3969   33.0426  H     
42   H        13.8402   16.0517   34.1762  H     
43   H        12.3354   15.2953   34.7461  H     
44   H        15.2475   14.5415   38.2992  H     
45   H        14.9765   15.2484   36.0936  H     
46   H        13.3487   11.4853   35.0776  H     
47   H        13.6375   10.7644   37.2975  H     
48   H        14.6545   14.0034   40.1318  H     
49   H        15.4374   13.6735   42.1777  H     
50   H        12.7544   12.2579   41.9424  H     
51   H        13.6152   12.2850   43.4746  H     
52   H        12.0887   14.0805   43.5811  H     
53   H        13.6942   14.7802   43.4110  H     
@<TRIPOS>BOND
     1    1    2 2
     2    1    5 1
     3    1    8 1
     4    2    4 1
     5    3    4 2
     6    3    7 1
     7    4    6 1
     8    7    8 2
     9    7   12 1
    10    8   11 1
    11    9   10 1
    12    9   12 2
    13   10   11 2
    14   10   13 1
    15   13   14 1
    16   14   15 1
    17   14   16 1
    18   16   18 1
    19   16   19 2
    20   17   18 2
    21   17   21 1
    22   19   20 1
    23   20   21 2
    24   21   22 1
    25   22   23 2
    26   22   24 am
    27   24   25 1
    28   25   26 1
    29   25   31 1
    30   26   27 1
    31   27   28 1
    32   28   29 2
    33   28   30 1
    34   31   32 2
    35   31   33 1
    36    5   34 1
    37    5   35 1
    38    6   36 1
    39    6   37 1
    40    9   38 1
    41   13   39 1
    42   13   40 1
    43   15   41 1
    44   15   42 1
    45   15   43 1
    46   17   44 1
    47   18   45 1
    48   19   46 1
    49   20   47 1
    50   24   48 1
    51   25   49 1
    52   26   50 1
    53   26   51 1
    54   27   52 1
    55   27   53 1
@<TRIPOS>PROPERTY_DATA
  Total_Score	| 6.7589
  Crash		| -1.3502
  Polar		| 3.9923
  FragIndex	| 1
  FragRMSD	| 0.776

