@<TRIPOS>MOLECULE
BindingDB_50334362
 42 43 0 0 0
SMALL
NO_CHARGES


@<TRIPOS>ATOM
1    C        -3.9514    2.6866   15.5801  C     
2    C        -3.5682    3.8575   14.8954  C     
3    C        -4.5349    4.7251   14.3403  C     
4    C        -5.9022    4.4226   14.5668  C     
5    C        -6.2899    3.2479   15.2329  C     
6    C        -5.3160    2.3596   15.7262  C     
7    S        -5.8009    0.8725   16.4921  S     
8    N        -5.1318   -0.4694   15.7338  N     
9    O        -5.1529    0.8993   17.9424  O     
10   O        -7.3754    0.7090   16.6501  O     
11   N        -4.0852    5.8135   13.6265  N     
12   C        -4.7358    6.5032   12.6868  C     
13   N        -4.2312    7.5586   12.0688  N     
14   O        -5.8490    6.1944   12.2891  O     
15   C        -2.9484    8.0004   12.0827  C     
16   C        -2.1861    8.0313   10.8986  C     
17   C        -0.8935    8.5854   10.9077  C     
18   C        -0.3351    9.1230   12.0945  C     
19   C        -1.1203    9.0985   13.2722  C     
20   C        -2.4191    8.5601   13.2622  C     
21   C         1.0469    9.7043   12.0890  C     
22   C         1.0173   11.2537   11.9721  C     
23   C         1.8815    9.2371   13.3129  C     
24   H        -3.2267    2.0660   15.9495  H     
25   H        -2.5713    4.0569   14.7770  H     
26   H        -6.6409    5.0554   14.2605  H     
27   H        -7.2870    3.0494   15.3502  H     
28   H        -4.7155   -1.1638   16.2664  H     
29   H        -5.0084   -0.4661   14.7711  H     
30   H        -3.1548    6.0857   13.7845  H     
31   H        -4.8445    8.0567   11.5050  H     
32   H        -2.5939    7.6577   10.0284  H     
33   H        -0.3660    8.5988   10.0324  H     
34   H        -0.7580    9.4884   14.1446  H     
35   H        -2.9736    8.5787   14.1209  H     
36   H         1.5862    9.3467   11.2043  H     
37   H         0.4425   11.5566   11.0925  H     
38   H         2.0324   11.6420   11.8645  H     
39   H         0.5666   11.7089   12.8578  H     
40   H         1.5072    9.6825   14.2362  H     
41   H         2.9246    9.5331   13.1878  H     
42   H         1.8468    8.1497   13.4096  H     
@<TRIPOS>BOND
     1    1    2 2
     2    1    6 1
     3    2    3 1
     4    3    4 2
     5    3   11 1
     6    4    5 1
     7    5    6 2
     8    6    7 1
     9    7    8 am
    10    7    9 2
    11    7   10 2
    12   11   12 am
    13   12   13 am
    14   12   14 2
    15   13   15 1
    16   15   16 2
    17   15   20 1
    18   16   17 1
    19   17   18 2
    20   18   19 1
    21   18   21 1
    22   19   20 2
    23   21   22 1
    24   21   23 1
    25    1   24 1
    26    2   25 1
    27    4   26 1
    28    5   27 1
    29    8   28 1
    30    8   29 1
    31   11   30 1
    32   13   31 1
    33   16   32 1
    34   17   33 1
    35   19   34 1
    36   20   35 1
    37   21   36 1
    38   22   37 1
    39   22   38 1
    40   22   39 1
    41   23   40 1
    42   23   41 1
    43   23   42 1
@<TRIPOS>PROPERTY_DATA
  Total_Score	| 3.7273
  Crash		| -0.8562
  Polar		| 2.9276
  FragIndex	| 1
  FragRMSD	| 1.354

