@<TRIPOS>MOLECULE
BindingDB_50334357
 36 37 0 0 0
SMALL
NO_CHARGES


@<TRIPOS>ATOM
1    S        -6.0423    1.1111   16.8435  S     
2    F         0.7951   11.2691   13.6810  F     
3    F         1.6497   10.1897   11.9556  F     
4    F         0.2611   11.9050   11.6352  F     
5    O        -5.1205    0.8014   18.0992  O     
6    O        -5.9682   -0.1976   15.9484  O     
7    O        -5.5468    5.8952   12.1876  O     
8    N        -3.9154    5.6863   13.6881  N     
9    N        -3.9368    7.2636   11.9360  N     
10   N        -7.6117    1.2204   17.4250  N     
11   C        -5.4247    2.4849   15.9738  C     
12   C        -0.6403    9.8591   12.3511  C     
13   C         0.5107   10.8038   12.4183  C     
14   C        -4.4390    4.6699   14.4458  C     
15   C        -2.8362    8.0410   12.1493  C     
16   C        -4.0445    2.6023   15.7055  C     
17   C        -6.3064    3.4778   15.5042  C     
18   C        -1.0235    9.3149   11.1030  C     
19   C        -1.3814    9.4802   13.4966  C     
20   C        -3.5568    3.6939   14.9598  C     
21   C        -5.8167    4.5617   14.7559  C     
22   C        -4.4824    6.2885   12.6450  C     
23   C        -2.1080    8.4268   11.0040  C     
24   C        -2.4653    8.5874   13.3985  C     
25   H        -2.9929    5.9213   13.8713  H     
26   H        -4.4122    7.4661   11.1134  H     
27   H        -8.3573    1.1533   16.8081  H     
28   H        -7.7679    1.1678   18.3800  H     
29   H        -3.3876    1.8940   16.0437  H     
30   H        -7.3095    3.4203   15.6967  H     
31   H        -0.5165    9.5704   10.2515  H     
32   H        -1.1496    9.8611   14.4165  H     
33   H        -2.5535    3.7566   14.7677  H     
34   H        -6.4784    5.2770   14.4478  H     
35   H        -2.3674    8.0678   10.0807  H     
36   H        -3.0087    8.3810   14.2385  H     
@<TRIPOS>BOND
     1    1    5 2
     2    1    6 2
     3    1   10 am
     4    1   11 1
     5    2   13 1
     6    3   13 1
     7    4   13 1
     8    7   22 2
     9    8   14 1
    10    8   22 am
    11    9   15 1
    12    9   22 am
    13   11   16 2
    14   11   17 1
    15   12   13 1
    16   12   18 2
    17   12   19 1
    18   14   20 2
    19   14   21 1
    20   15   23 2
    21   15   24 1
    22   16   20 1
    23   17   21 2
    24   18   23 1
    25   19   24 2
    26    8   25 1
    27    9   26 1
    28   10   27 1
    29   10   28 1
    30   16   29 1
    31   17   30 1
    32   18   31 1
    33   19   32 1
    34   20   33 1
    35   21   34 1
    36   23   35 1
    37   24   36 1
@<TRIPOS>PROPERTY_DATA
  Total_Score	| 4.2285
  Crash		| -0.8142
  Polar		| 3.5984
  FragIndex	| 1
  FragRMSD	| 1.381

