@<TRIPOS>MOLECULE
BindingDB_50334353
 39 40 0 0 0
SMALL
NO_CHARGES


@<TRIPOS>ATOM
1    C        -4.1277    2.6199   15.6224  C     
2    C        -3.6423    3.6942   14.8567  C     
3    C        -4.5296    4.6365   14.2886  C     
4    C        -5.9176    4.4884   14.5273  C     
5    C        -6.3997    3.4251   15.3030  C     
6    C        -5.5105    2.4848   15.8525  C     
7    S        -6.1216    1.1738   16.8142  S     
8    N        -7.7724    1.2415   17.1092  N     
9    O        -5.9570   -0.1078   15.8944  O     
10   O        -5.2612    0.8957   18.1244  O     
11   N        -4.0052    5.6802   13.5772  N     
12   C        -4.5702    6.3789   12.6008  C     
13   N        -3.9688    7.3974   12.0073  N     
14   O        -5.6513    6.0713   12.1168  O     
15   C        -2.7966    8.0011   12.3498  C     
16   C        -1.8891    8.2873   11.3124  C     
17   C        -0.6383    8.8807   11.5882  C     
18   C        -0.3339    9.2446   12.9174  C     
19   C        -1.2492    9.0061   13.9674  C     
20   C        -2.4800    8.3793   13.6706  C     
21   C         0.3233    9.0754   10.4864  C     
22   C        -0.8962    9.4173   15.3479  C     
23   H        -3.4687    1.9515   16.0248  H     
24   H        -2.6323    3.7844   14.7086  H     
25   H        -6.5902    5.1720   14.1732  H     
26   H        -7.4050    3.3612   15.4792  H     
27   H        -8.3508    0.5313   16.7657  H     
28   H        -8.1751    2.0948   17.3500  H     
29   H        -3.0775    5.8963   13.7767  H     
30   H        -4.3881    7.7226   11.1838  H     
31   H        -2.1300    8.0312   10.3522  H     
32   H         0.5726    9.6664   13.1289  H     
33   H        -3.1527    8.2124   14.4239  H     
34   H         0.5588    8.1105   10.0375  H     
35   H         1.2571    9.5247   10.8259  H     
36   H        -0.1105    9.7223    9.7235  H     
37   H        -0.0349    8.8411   15.6963  H     
38   H        -1.7202    9.2535   16.0492  H     
39   H        -0.6396   10.4817   15.3694  H     
@<TRIPOS>BOND
     1    1    2 2
     2    1    6 1
     3    2    3 1
     4    3    4 2
     5    3   11 1
     6    4    5 1
     7    5    6 2
     8    6    7 1
     9    7    8 am
    10    7    9 2
    11    7   10 2
    12   11   12 am
    13   12   13 am
    14   12   14 2
    15   13   15 1
    16   15   16 2
    17   15   20 1
    18   16   17 1
    19   17   18 2
    20   17   21 1
    21   18   19 1
    22   19   20 2
    23   19   22 1
    24    1   23 1
    25    2   24 1
    26    4   25 1
    27    5   26 1
    28    8   27 1
    29    8   28 1
    30   11   29 1
    31   13   30 1
    32   16   31 1
    33   18   32 1
    34   20   33 1
    35   21   34 1
    36   21   35 1
    37   21   36 1
    38   22   37 1
    39   22   38 1
    40   22   39 1
@<TRIPOS>PROPERTY_DATA
  Total_Score	| 5.4049
  Crash		| -0.9242
  Polar		| 3.8337
  FragIndex	| 1
  FragRMSD	| 1.475

