@<TRIPOS>MOLECULE
BindingDB_50334355
 33 34 0 0 0
SMALL
NO_CHARGES


@<TRIPOS>ATOM
1    C        -4.1005    2.6620   15.6836  C     
2    C        -3.6407    3.7488   14.9130  C     
3    C        -4.5468    4.6875   14.3698  C     
4    C        -5.9210    4.5532   14.6895  C     
5    C        -6.3840    3.4758   15.4612  C     
6    C        -5.4767    2.5168   15.9527  C     
7    S        -6.0545    1.1425   16.8472  S     
8    N        -7.6208    1.2478   17.4347  N     
9    O        -5.9434   -0.1733   15.9653  O     
10   O        -5.1214    0.9161   18.1116  O     
11   N        -4.0375    5.7026   13.5935  N     
12   C        -4.6414    6.3704   12.6103  C     
13   N        -4.0978    7.3569   11.9115  N     
14   O        -5.7436    6.0323   12.1956  O     
15   C        -2.9210    8.0340   12.0538  C     
16   C        -2.2257    8.3552   10.8652  C     
17   C        -1.0213    9.0864   10.8964  C     
18   C        -0.5145    9.5426   12.1247  C     
19   C        -1.2102    9.2631   13.3145  C     
20   C        -2.4142    8.5229   13.2824  C     
21   Br        1.0885   10.4960   12.1734  Br    
22   H        -3.4289    1.9783   16.0454  H     
23   H        -2.6398    3.8351   14.7262  H     
24   H        -6.6050    5.2447   14.3757  H     
25   H        -7.3859    3.4007   15.6629  H     
26   H        -7.7745    1.1625   18.3881  H     
27   H        -8.3277    1.5818   16.8576  H     
28   H        -3.0996    5.9099   13.7293  H     
29   H        -4.6212    7.6279   11.1404  H     
30   H        -2.5847    8.0467    9.9570  H     
31   H        -0.5234    9.2970   10.0265  H     
32   H        -0.8503    9.6103   14.2073  H     
33   H        -2.9245    8.3650   14.1547  H     
@<TRIPOS>BOND
     1    1    2 2
     2    1    6 1
     3    2    3 1
     4    3    4 2
     5    3   11 1
     6    4    5 1
     7    5    6 2
     8    6    7 1
     9    7    8 am
    10    7    9 2
    11    7   10 2
    12   11   12 am
    13   12   13 am
    14   12   14 2
    15   13   15 1
    16   15   16 2
    17   15   20 1
    18   16   17 1
    19   17   18 2
    20   18   19 1
    21   18   21 1
    22   19   20 2
    23    1   22 1
    24    2   23 1
    25    4   24 1
    26    5   25 1
    27    8   26 1
    28    8   27 1
    29   11   28 1
    30   13   29 1
    31   16   30 1
    32   17   31 1
    33   19   32 1
    34   20   33 1
@<TRIPOS>PROPERTY_DATA
  Total_Score	| 4.6825
  Crash		| -0.8207
  Polar		| 3.8808
  FragIndex	| 1
  FragRMSD	| 1.431

