@<TRIPOS>MOLECULE
BindingDB_50334348
 43 45 0 0 0
SMALL
NO_CHARGES


@<TRIPOS>ATOM
1    C        -5.7744    3.2400   14.7357  C     
2    C        -4.9749    4.0275   13.8842  C     
3    C        -3.5627    4.0022   13.9911  C     
4    C        -2.9799    3.1366   14.9401  C     
5    C        -3.7761    2.3409   15.7822  C     
6    C        -5.1811    2.3958   15.6973  C     
7    S        -6.1570    1.4526   16.7884  S     
8    N        -7.6066    2.1983   17.1840  N     
9    O        -6.5325    0.1101   16.0248  O     
10   O        -5.3668    1.0730   18.1145  O     
11   N        -2.6929    4.7195   13.2191  N     
12   C        -2.8554    5.8504   12.5499  C     
13   N        -1.7873    6.2708   11.8933  N     
14   O        -3.8963    6.5003   12.5653  O     
15   C        -1.6225    7.4582   11.2396  C     
16   C        -1.4952    7.3972    9.8343  C     
17   C        -1.3076    8.5672    9.0789  C     
18   C        -1.2238    9.8102    9.7231  C     
19   C        -1.3213    9.8811   11.1230  C     
20   C        -1.5204    8.7173   11.9073  C     
21   C        -1.6266    8.8494   13.3275  C     
22   C        -0.9385    7.9808   14.2131  C     
23   C        -1.1420    8.0667   15.6027  C     
24   C        -2.0145    9.0331   16.1309  C     
25   C        -2.6524    9.9411   15.2681  C     
26   C        -2.4574    9.8534   13.8801  C     
27   H        -6.7933    3.2858   14.6443  H     
28   H        -5.4377    4.6120   13.1863  H     
29   H        -1.9619    3.0893   15.0380  H     
30   H        -3.3186    1.7351   16.4682  H     
31   H        -8.3690    1.6535   17.4325  H     
32   H        -7.7300    3.1428   17.0055  H     
33   H        -1.7852    4.3718   13.2058  H     
34   H        -1.0482    5.6410   11.8282  H     
35   H        -1.5542    6.4957    9.3418  H     
36   H        -1.2396    8.5162    8.0583  H     
37   H        -1.0908   10.6631    9.1765  H     
38   H        -1.2365   10.7993   11.5614  H     
39   H        -0.3009    7.2681   13.8561  H     
40   H        -0.6665    7.4182   16.2295  H     
41   H        -2.1825    9.0755   17.1348  H     
42   H        -3.2740   10.6614   15.6383  H     
43   H        -2.9520   10.5213   13.2813  H     
@<TRIPOS>BOND
     1    1    2 2
     2    1    6 1
     3    2    3 1
     4    3    4 2
     5    3   11 1
     6    4    5 1
     7    5    6 2
     8    6    7 1
     9    7    8 am
    10    7    9 2
    11    7   10 2
    12   11   12 am
    13   12   13 am
    14   12   14 2
    15   13   15 1
    16   15   16 2
    17   15   20 1
    18   16   17 1
    19   17   18 2
    20   18   19 1
    21   19   20 2
    22   20   21 1
    23   21   22 2
    24   21   26 1
    25   22   23 1
    26   23   24 2
    27   24   25 1
    28   25   26 2
    29    1   27 1
    30    2   28 1
    31    4   29 1
    32    5   30 1
    33    8   31 1
    34    8   32 1
    35   11   33 1
    36   13   34 1
    37   16   35 1
    38   17   36 1
    39   18   37 1
    40   19   38 1
    41   22   39 1
    42   23   40 1
    43   24   41 1
    44   25   42 1
    45   26   43 1
@<TRIPOS>PROPERTY_DATA
  Total_Score	| 4.4280
  Crash		| -2.8438
  Polar		| 3.3284
  FragIndex	| 1
  FragRMSD	| 1.413

