@<TRIPOS>MOLECULE
BindingDB_50334360
 38 39 0 0 0
SMALL
NO_CHARGES


@<TRIPOS>ATOM
1    C        -5.9027    3.1754   15.0588  C     
2    C        -5.1530    4.0900   14.2979  C     
3    C        -3.7416    4.1213   14.3884  C     
4    C        -3.1005    3.1859   15.2269  C     
5    C        -3.8477    2.2728   15.9924  C     
6    C        -5.2542    2.2693   15.9204  C     
7    S        -6.1701    1.1549   16.8891  S     
8    N        -7.8000    1.5209   17.0554  N     
9    O        -6.1623   -0.2061   16.0701  O     
10   O        -5.4534    0.8159   18.2668  O     
11   N        -2.9493    4.9664   13.6631  N     
12   C        -3.1560    6.2408   13.3679  C     
13   N        -2.2538    6.8258   12.5925  N     
14   O        -4.1304    6.8505   13.7895  O     
15   C        -2.2349    8.1283   12.1818  C     
16   C        -2.7069    8.4271   10.8900  C     
17   C        -2.7375    9.7560   10.4278  C     
18   C        -2.2747   10.8358   11.2275  C     
19   C        -1.7547   10.5076   12.5080  C     
20   C        -1.7317    9.1814   12.9751  C     
21   C        -2.3377   12.1644   10.7613  C     
22   O        -1.9555   12.4329    9.6281  O     
23   C        -2.8738   13.2799   11.5309  C     
24   H        -6.9220    3.1768   14.9733  H     
25   H        -5.6489    4.7145   13.6580  H     
26   H        -2.0795    3.1751   15.3005  H     
27   H        -3.3556    1.6153   16.6032  H     
28   H        -8.4549    0.9314   16.6506  H     
29   H        -8.0513    2.4375   17.2471  H     
30   H        -2.0918    4.6049   13.3859  H     
31   H        -1.5877    6.2419   12.1952  H     
32   H        -3.0602    7.6799   10.2858  H     
33   H        -3.1155    9.9232    9.4908  H     
34   H        -1.3861   11.2315   13.1295  H     
35   H        -1.3373    8.9898   13.8992  H     
36   H        -3.9073   13.0722   11.8173  H     
37   H        -2.8659   14.2137   10.9616  H     
38   H        -2.2747   13.4327   12.4310  H     
@<TRIPOS>BOND
     1    1    2 2
     2    1    6 1
     3    2    3 1
     4    3    4 2
     5    3   11 1
     6    4    5 1
     7    5    6 2
     8    6    7 1
     9    7    8 am
    10    7    9 2
    11    7   10 2
    12   11   12 am
    13   12   13 am
    14   12   14 2
    15   13   15 1
    16   15   16 2
    17   15   20 1
    18   16   17 1
    19   17   18 2
    20   18   19 1
    21   18   21 1
    22   19   20 2
    23   21   22 2
    24   21   23 1
    25    1   24 1
    26    2   25 1
    27    4   26 1
    28    5   27 1
    29    8   28 1
    30    8   29 1
    31   11   30 1
    32   13   31 1
    33   16   32 1
    34   17   33 1
    35   19   34 1
    36   20   35 1
    37   23   36 1
    38   23   37 1
    39   23   38 1
@<TRIPOS>PROPERTY_DATA
  Total_Score	| 3.2619
  Crash		| -0.7183
  Polar		| 2.5924
  FragIndex	| 1
  FragRMSD	| 0.942

