@<TRIPOS>MOLECULE
BindingDB_50334345
 34 35 0 0 0
SMALL
NO_CHARGES


@<TRIPOS>ATOM
1    C        -5.9304    3.2297   15.1258  C     
2    C        -5.1959    4.1854   14.3994  C     
3    C        -3.7788    4.2318   14.4777  C     
4    C        -3.1390    3.2453   15.2568  C     
5    C        -3.8723    2.2771   15.9663  C     
6    C        -5.2749    2.2865   15.9295  C     
7    S        -6.1601    1.1105   16.8477  S     
8    N        -7.8209    1.2871   16.9794  N     
9    O        -5.9995   -0.2184   15.9960  O     
10   O        -5.4496    0.7559   18.2220  O     
11   N        -2.9583    5.1557   13.8848  N     
12   C        -3.2066    6.2157   13.1436  C     
13   N        -2.1606    6.9747   12.8659  N     
14   O        -4.3527    6.6052   12.8993  O     
15   C        -2.1862    8.1868   12.2476  C     
16   C        -2.5703    8.3401   10.8860  C     
17   C        -2.5962    9.6127   10.2872  C     
18   C        -2.2288   10.7553   11.0422  C     
19   C        -1.8087   10.6061   12.3947  C     
20   C        -1.7716    9.3269   12.9741  C     
21   C        -2.2815   11.9431   10.5183  C     
22   N        -2.3416   12.9810   10.0257  N     
23   H        -6.9519    3.2412   15.0715  H     
24   H        -5.7148    4.8616   13.8447  H     
25   H        -2.1185    3.2251   15.3316  H     
26   H        -3.3709    1.5912   16.5362  H     
27   H        -8.4044    0.7657   16.4000  H     
28   H        -8.1877    2.0481   17.4698  H     
29   H        -2.0134    5.0168   14.0426  H     
30   H        -1.2961    6.6973   13.2346  H     
31   H        -2.8520    7.5198   10.3378  H     
32   H        -2.8944    9.6944    9.3002  H     
33   H        -1.5442   11.4207   12.9524  H     
34   H        -1.4642    9.2277   13.9436  H     
@<TRIPOS>BOND
     1    1    2 2
     2    1    6 1
     3    2    3 1
     4    3    4 2
     5    3   11 1
     6    4    5 1
     7    5    6 2
     8    6    7 1
     9    7    8 am
    10    7    9 2
    11    7   10 2
    12   11   12 am
    13   12   13 am
    14   12   14 2
    15   13   15 1
    16   15   16 2
    17   15   20 1
    18   16   17 1
    19   17   18 2
    20   18   19 1
    21   18   21 1
    22   19   20 2
    23   21   22 3
    24    1   23 1
    25    2   24 1
    26    4   25 1
    27    5   26 1
    28    8   27 1
    29    8   28 1
    30   11   29 1
    31   13   30 1
    32   16   31 1
    33   17   32 1
    34   19   33 1
    35   20   34 1
@<TRIPOS>PROPERTY_DATA
  Total_Score	| 3.1508
  Crash		| -0.8659
  Polar		| 2.5751
  FragIndex	| 1
  FragRMSD	| 0.910

