@<TRIPOS>MOLECULE
BindingDB_50334346
 34 35 0 0 0
SMALL
NO_CHARGES


@<TRIPOS>ATOM
1    C        -5.8886    3.2806   15.0592  C     
2    C        -5.0918    4.2013   14.3484  C     
3    C        -3.6777    4.1786   14.4588  C     
4    C        -3.0934    3.2017   15.2895  C     
5    C        -3.8820    2.2862   16.0061  C     
6    C        -5.2852    2.3273   15.9030  C     
7    S        -6.2456    1.2306   16.8536  S     
8    N        -7.8633    1.6519   17.0050  N     
9    O        -6.2611   -0.1231   16.0196  O     
10   O        -5.5283    0.8754   18.2305  O     
11   N        -2.8203    5.0528   13.8436  N     
12   C        -3.0415    6.2336   13.2931  C     
13   N        -1.9795    6.8741   12.8232  N     
14   O        -4.1662    6.7236   13.2459  O     
15   C        -2.0065    8.1265   12.2827  C     
16   C        -2.6211    8.3061   11.0235  C     
17   C        -2.6989    9.5848   10.4477  C     
18   C        -2.1640   10.6937   11.1238  C     
19   C        -1.5494   10.5287   12.3778  C     
20   C        -1.4642    9.2451   12.9689  C     
21   C        -0.9293    9.1379   14.1595  C     
22   N        -0.4712    9.0439   15.2090  N     
23   H        -6.9069    3.3232   14.9708  H     
24   H        -5.5566    4.9079   13.7592  H     
25   H        -2.0728    3.1567   15.3950  H     
26   H        -3.4193    1.5957   16.6097  H     
27   H        -8.5374    1.0789   16.6058  H     
28   H        -8.0876    2.5762   17.1921  H     
29   H        -1.8889    4.7662   13.8237  H     
30   H        -1.1093    6.4632   12.9527  H     
31   H        -3.0123    7.5064   10.5227  H     
32   H        -3.1466    9.7034    9.5366  H     
33   H        -2.2239   11.6214   10.7032  H     
34   H        -1.1700   11.3541   12.8544  H     
@<TRIPOS>BOND
     1    1    2 2
     2    1    6 1
     3    2    3 1
     4    3    4 2
     5    3   11 1
     6    4    5 1
     7    5    6 2
     8    6    7 1
     9    7    8 am
    10    7    9 2
    11    7   10 2
    12   11   12 am
    13   12   13 am
    14   12   14 2
    15   13   15 1
    16   15   16 2
    17   15   20 1
    18   16   17 1
    19   17   18 2
    20   18   19 1
    21   19   20 2
    22   20   21 1
    23   21   22 3
    24    1   23 1
    25    2   24 1
    26    4   25 1
    27    5   26 1
    28    8   27 1
    29    8   28 1
    30   11   29 1
    31   13   30 1
    32   16   31 1
    33   17   32 1
    34   18   33 1
    35   19   34 1
@<TRIPOS>PROPERTY_DATA
  Total_Score	| 3.7013
  Crash		| -0.8228
  Polar		| 2.6502
  FragIndex	| 1
  FragRMSD	| 0.918

