@<TRIPOS>MOLECULE
BindingDB_50334343
 36 37 0 0 0
SMALL
NO_CHARGES


@<TRIPOS>ATOM
1    C        -3.9534    2.1998   15.9899  C     
2    C        -3.1690    3.0130   15.1440  C     
3    C        -3.7833    3.9504   14.2601  C     
4    C        -5.1914    3.9790   14.2100  C     
5    C        -5.9705    3.1867   15.0585  C     
6    C        -5.3599    2.2937   15.9635  C     
7    S        -6.3302    1.3362   17.0461  S     
8    N        -7.9009    1.9074   17.1553  N     
9    O        -6.5274   -0.1050   16.4094  O     
10   O        -5.6737    1.1406   18.4816  O     
11   N        -2.9193    4.6836   13.4883  N     
12   C        -3.0972    5.8789   12.9186  C     
13   N        -2.0610    6.3799   12.2584  N     
14   O        -4.1080    6.5511   13.0527  O     
15   C        -2.0010    7.6771   11.6346  C     
16   C        -2.1737    8.8739   12.5122  C     
17   C        -2.3026   10.1467   11.8995  C     
18   C        -2.5271   11.3039   12.6717  C     
19   C        -2.6158   11.2125   14.0723  C     
20   C        -2.4574    9.9660   14.6987  C     
21   C        -2.2228    8.8173   13.9332  C     
22   H        -3.4848    1.5511   16.6359  H     
23   H        -2.1477    2.9297   15.1930  H     
24   H        -5.6915    4.5584   13.5410  H     
25   H        -6.9901    3.2597   15.0051  H     
26   H        -8.6156    1.3440   16.8229  H     
27   H        -8.0410    2.8711   17.1689  H     
28   H        -2.0346    4.3144   13.3931  H     
29   H        -1.2739    5.8205   12.1784  H     
30   H        -1.0246    7.7546   11.1477  H     
31   H        -2.7655    7.6946   10.8481  H     
32   H        -2.2513   10.2360   10.8826  H     
33   H        -2.6336   12.2108   12.2108  H     
34   H        -2.7834   12.0533   14.6261  H     
35   H        -2.5083    9.8988   15.7198  H     
36   H        -2.0942    7.9286   14.4266  H     
@<TRIPOS>BOND
     1    1    2 2
     2    1    6 1
     3    2    3 1
     4    3    4 2
     5    3   11 1
     6    4    5 1
     7    5    6 2
     8    6    7 1
     9    7    8 am
    10    7    9 2
    11    7   10 2
    12   11   12 am
    13   12   13 am
    14   12   14 2
    15   13   15 1
    16   15   16 1
    17   16   17 2
    18   16   21 1
    19   17   18 1
    20   18   19 2
    21   19   20 1
    22   20   21 2
    23    1   22 1
    24    2   23 1
    25    4   24 1
    26    5   25 1
    27    8   26 1
    28    8   27 1
    29   11   28 1
    30   13   29 1
    31   15   30 1
    32   15   31 1
    33   17   32 1
    34   18   33 1
    35   19   34 1
    36   20   35 1
    37   21   36 1
@<TRIPOS>PROPERTY_DATA
  Total_Score	| 4.2458
  Crash		| -1.0462
  Polar		| 2.9220
  FragIndex	| 1
  FragRMSD	| 1.102

