@<TRIPOS>MOLECULE
BindingDB_50334363
 45 46 0 0 0
SMALL
NO_CHARGES


@<TRIPOS>ATOM
1    C        -3.9628    2.4960   15.6518  C     
2    C        -3.3020    3.4706   14.8826  C     
3    C        -4.0245    4.5174   14.2595  C     
4    C        -5.4166    4.5987   14.4803  C     
5    C        -6.0818    3.6230   15.2482  C     
6    C        -5.3596    2.5596   15.8285  C     
7    S        -6.1654    1.3380   16.7699  S     
8    N        -7.8131    1.5467   17.0144  N     
9    O        -6.0862    0.0080   15.9030  O     
10   O        -5.3935    0.9746   18.1111  O     
11   N        -3.4351    5.4714   13.4700  N     
12   C        -2.4774    5.2797   12.5635  C     
13   N        -1.8932    6.2211   11.8378  N     
14   O        -2.0460    4.1599   12.3387  O     
15   C        -2.1194    7.5638   11.7681  C     
16   C        -0.9956    8.4118   11.8833  C     
17   C        -1.1372    9.8127   11.8379  C     
18   C        -2.4036   10.4012   11.6387  C     
19   C        -3.5071    9.5430   11.4060  C     
20   C        -3.3743    8.1454   11.4988  C     
21   C        -2.5785   11.8806   11.7075  C     
22   C        -1.7958   12.6107   12.8444  C     
23   C        -1.5841   11.8622   14.1944  C     
24   C        -2.7001   10.8709   14.5937  C     
25   H        -3.4167    1.7457   16.0823  H     
26   H        -2.2859    3.4181   14.7949  H     
27   H        -5.9605    5.3550   14.0564  H     
28   H        -7.0940    3.6944   15.3707  H     
29   H        -8.4339    0.9750   16.5380  H     
30   H        -8.1274    2.3936   17.3643  H     
31   H        -3.8077    6.3635   13.5314  H     
32   H        -1.1326    5.9109   11.3163  H     
33   H        -0.0648    8.0156   12.0416  H     
34   H        -0.3108   10.4003   11.9783  H     
35   H        -4.4295    9.9343   11.2096  H     
36   H        -4.1944    7.5580   11.3329  H     
37   H        -2.2629   12.2963   10.7494  H     
38   H        -3.6352   12.1308   11.8182  H     
39   H        -0.8053   12.8701   12.4587  H     
40   H        -2.3056   13.5553   13.0569  H     
41   H        -0.6406   11.3116   14.1507  H     
42   H        -1.4901   12.6013   14.9924  H     
43   H        -3.6710   11.3669   14.6653  H     
44   H        -2.4623   10.4068   15.5489  H     
45   H        -2.7671   10.0722   13.8635  H     
@<TRIPOS>BOND
     1    1    2 2
     2    1    6 1
     3    2    3 1
     4    3    4 2
     5    3   11 1
     6    4    5 1
     7    5    6 2
     8    6    7 1
     9    7    8 am
    10    7    9 2
    11    7   10 2
    12   11   12 am
    13   12   13 am
    14   12   14 2
    15   13   15 1
    16   15   16 2
    17   15   20 1
    18   16   17 1
    19   17   18 2
    20   18   19 1
    21   18   21 1
    22   19   20 2
    23   21   22 1
    24   22   23 1
    25   23   24 1
    26    1   25 1
    27    2   26 1
    28    4   27 1
    29    5   28 1
    30    8   29 1
    31    8   30 1
    32   11   31 1
    33   13   32 1
    34   16   33 1
    35   17   34 1
    36   19   35 1
    37   20   36 1
    38   21   37 1
    39   21   38 1
    40   22   39 1
    41   22   40 1
    42   23   41 1
    43   23   42 1
    44   24   43 1
    45   24   44 1
    46   24   45 1
@<TRIPOS>PROPERTY_DATA
  Total_Score	| 3.8336
  Crash		| -1.8258
  Polar		| 3.0811
  FragIndex	| 1
  FragRMSD	| 1.375

