@<TRIPOS>MOLECULE
BindingDB_54376
 33 34 0 0 0
SMALL
NO_CHARGES


@<TRIPOS>ATOM
1    Cl        0.6631   10.8224   12.2724  Cl    
2    S        -6.0567    1.1634   16.8156  S     
3    O        -5.1339    0.8761   18.0771  O     
4    O        -5.9728   -0.1523   15.9296  O     
5    O        -5.6383    5.9414   12.1627  O     
6    N        -3.9636    5.7177   13.6129  N     
7    N        -4.0132    7.2813   11.8525  N     
8    N        -7.6233    1.2695   17.4069  N     
9    C        -5.4450    2.5330   15.9357  C     
10   C        -4.4738    4.7092   14.3861  C     
11   C        -4.0726    2.6282   15.6193  C     
12   C        -6.3240    3.5441   15.5034  C     
13   C        -3.5919    3.7159   14.8644  C     
14   C        -5.8420    4.6233   14.7437  C     
15   C        -2.8879    8.0337   12.0307  C     
16   C        -4.5546    6.3216   12.5840  C     
17   C        -2.2026    8.4306   10.8630  C     
18   C        -2.4603    8.5446   13.2807  C     
19   C        -1.0971    9.2934   10.9348  C     
20   C        -1.3603    9.4186   13.3536  C     
21   C        -0.6721    9.7912   12.1825  C     
22   H        -3.0326    5.9409   13.7645  H     
23   H        -4.5054    7.4839   11.0403  H     
24   H        -8.3733    1.2075   16.7915  H     
25   H        -7.7743    1.1831   18.3619  H     
26   H        -3.4183    1.9049   15.9264  H     
27   H        -7.3200    3.5039   15.7354  H     
28   H        -2.5947    3.7632   14.6350  H     
29   H        -6.5007    5.3514   14.4649  H     
30   H        -2.5064    8.0965    9.9440  H     
31   H        -2.9760    8.3298   14.1386  H     
32   H        -0.6108    9.5589   10.0769  H     
33   H        -1.0710    9.7841   14.2654  H     
@<TRIPOS>BOND
     1    1   21 1
     2    2    3 2
     3    2    4 2
     4    2    8 am
     5    2    9 1
     6    5   16 2
     7    6   10 1
     8    6   16 am
     9    7   15 1
    10    7   16 am
    11    9   11 2
    12    9   12 1
    13   10   13 2
    14   10   14 1
    15   11   13 1
    16   12   14 2
    17   15   17 2
    18   15   18 1
    19   17   19 1
    20   18   20 2
    21   19   21 2
    22   20   21 1
    23    6   22 1
    24    7   23 1
    25    8   24 1
    26    8   25 1
    27   11   26 1
    28   12   27 1
    29   13   28 1
    30   14   29 1
    31   17   30 1
    32   18   31 1
    33   19   32 1
    34   20   33 1
@<TRIPOS>PROPERTY_DATA
  Total_Score	| 4.4579
  Crash		| -0.7577
  Polar		| 3.8224
  FragIndex	| 1
  FragRMSD	| 1.391

