@<TRIPOS>MOLECULE
BindingDB_50334365
 57 58 0 0 0
SMALL
NO_CHARGES


@<TRIPOS>ATOM
1    C        -4.0243    2.6173   15.5542  C     
2    C        -3.6672    3.7674   14.8259  C     
3    C        -4.6549    4.6001   14.2497  C     
4    C        -6.0215    4.2818   14.4578  C     
5    C        -6.3794    3.1390   15.1919  C     
6    C        -5.3875    2.2924   15.7454  C     
7    S        -5.8139    0.8680   16.6574  S     
8    N        -5.1508   -0.4922   15.9195  N     
9    O        -5.1265    1.0161   18.0901  O     
10   O        -7.3922    0.6690   16.7961  O     
11   N        -4.1923    5.6882   13.5317  N     
12   C        -4.8182    6.5417   12.7153  C     
13   N        -4.2219    7.5106   12.0333  N     
14   O        -6.0155    6.4681   12.4588  O     
15   C        -2.9213    7.8634   12.0549  C     
16   C        -2.1944    7.7754   10.8529  C     
17   C        -0.8732    8.2566   10.7849  C     
18   C        -0.2600    8.8723   11.9096  C     
19   C        -1.0144    8.9794   13.1125  C     
20   C        -2.3291    8.4649   13.1857  C     
21   C         1.1583    9.3262   11.8559  C     
22   C         2.1012    8.3840   12.6634  C     
23   C         3.6067    8.6700   12.3696  C     
24   C         4.6557    7.9851   13.2905  C     
25   C         5.3703    6.7090   12.7427  C     
26   C         4.5368    5.3867   12.7739  C     
27   C         3.6212    5.1785   11.5252  C     
28   C         2.3970    4.2966   11.8522  C     
29   H        -3.2895    2.0229   15.9556  H     
30   H        -2.6708    3.9994   14.6918  H     
31   H        -6.7967    4.8416   14.1127  H     
32   H        -7.3716    2.9054   15.3421  H     
33   H        -5.0058   -1.2974   16.4485  H     
34   H        -4.7412   -0.4224   15.0276  H     
35   H        -3.2402    5.8455   13.5739  H     
36   H        -4.7651    7.9843   11.3766  H     
37   H        -2.6048    7.3491   10.0203  H     
38   H        -0.3526    8.1505    9.9103  H     
39   H        -0.6131    9.4301   13.9367  H     
40   H        -2.8616    8.5768   14.0467  H     
41   H         1.4983    9.3419   10.8075  H     
42   H         1.2160   10.3549   12.2437  H     
43   H         1.9369    8.5091   13.7327  H     
44   H         1.8515    7.3543   12.4276  H     
45   H         3.8441    8.4493   11.3168  H     
46   H         3.7287    9.7601   12.5045  H     
47   H         5.4498    8.7240   13.4523  H     
48   H         4.2128    7.8003   14.2713  H     
49   H         5.7763    6.9229   11.7485  H     
50   H         6.2401    6.5478   13.3828  H     
51   H         5.2250    4.5374   12.8268  H     
52   H         3.9381    5.3328   13.6853  H     
53   H         3.2497    6.1192   11.1342  H     
54   H         4.2116    4.7169   10.7334  H     
55   H         2.7134    3.3979   12.3731  H     
56   H         1.8894    4.0222   10.9247  H     
57   H         1.6936    4.8401   12.4897  H     
@<TRIPOS>BOND
     1    1    2 2
     2    1    6 1
     3    2    3 1
     4    3    4 2
     5    3   11 1
     6    4    5 1
     7    5    6 2
     8    6    7 1
     9    7    8 am
    10    7    9 2
    11    7   10 2
    12   11   12 am
    13   12   13 am
    14   12   14 2
    15   13   15 1
    16   15   16 2
    17   15   20 1
    18   16   17 1
    19   17   18 2
    20   18   19 1
    21   18   21 1
    22   19   20 2
    23   21   22 1
    24   22   23 1
    25   23   24 1
    26   24   25 1
    27   25   26 1
    28   26   27 1
    29   27   28 1
    30    1   29 1
    31    2   30 1
    32    4   31 1
    33    5   32 1
    34    8   33 1
    35    8   34 1
    36   11   35 1
    37   13   36 1
    38   16   37 1
    39   17   38 1
    40   19   39 1
    41   20   40 1
    42   21   41 1
    43   21   42 1
    44   22   43 1
    45   22   44 1
    46   23   45 1
    47   23   46 1
    48   24   47 1
    49   24   48 1
    50   25   49 1
    51   25   50 1
    52   26   51 1
    53   26   52 1
    54   27   53 1
    55   27   54 1
    56   28   55 1
    57   28   56 1
    58   28   57 1
@<TRIPOS>PROPERTY_DATA
  Total_Score	| 4.2527
  Crash		| -1.1882
  Polar		| 2.1715
  FragIndex	| 1
  FragRMSD	| 1.376

