@<TRIPOS>MOLECULE
BindingDB_11425
 43 45 0 0 0
SMALL
NO_CHARGES


@<TRIPOS>ATOM
1    C        -3.5931    2.1666   12.4840  C     
2    C        -3.1635    3.0228   11.5206  C     
3    N        -3.6015    4.3256   11.4354  N     
4    S        -4.5926    5.0464   12.6092  S     
5    O        -3.8351    6.1793   13.4311  O     
6    O        -5.9857    5.5329   12.0188  O     
7    C        -4.4562    2.4920   13.5177  C     
8    C        -4.9705    3.7749   13.6970  C     
9    C        -4.8489    1.5915   14.5261  C     
10   C        -5.6425    2.1545   15.5269  C     
11   S        -5.8862    3.8137   15.1454  S     
12   N        -7.2469    2.1998   17.9216  N     
13   S        -6.1633    1.3503   16.9657  S     
14   O        -6.6775   -0.1211   16.6558  O     
15   O        -4.8534    1.1627   17.8451  O     
16   C        -2.0748    2.5422   10.6508  C     
17   C        -0.3306    2.6549   12.5015  C     
18   N        -0.7290    2.9778   11.1091  N     
19   C        -3.3029    5.1649   10.3966  C     
20   C        -2.1645    6.0004   10.4583  C     
21   C        -1.8327    6.8397    9.3785  C     
22   C        -2.6703    6.8863    8.2479  C     
23   C        -3.8242    6.0792    8.1889  C     
24   C        -4.1327    5.2141    9.2558  C     
25   O        -0.7103    7.5877    9.4443  O     
26   C        -0.9091    3.4785   13.4220  C     
27   C        -1.4378    4.1930   14.2296  C     
28   H        -3.2198    1.2434   12.5141  H     
29   H        -4.5534    0.6111   14.5432  H     
30   H        -6.9424    2.5795   18.7597  H     
31   H        -8.1012    2.4734   17.5496  H     
32   H        -2.0587    1.4503   10.5460  H     
33   H        -2.2261    2.9210    9.6460  H     
34   H        -0.5725    1.6164   12.7435  H     
35   H         0.7496    2.7768   12.5914  H     
36   H        -0.0416    2.5381   10.4862  H     
37   H        -0.6456    3.9828   10.9778  H     
38   H        -1.5657    5.9873   11.2874  H     
39   H        -2.4474    7.5115    7.4672  H     
40   H        -4.4368    6.1218    7.3701  H     
41   H        -4.9688    4.6293    9.1987  H     
42   H        -0.1045    7.1869    8.7795  H     
43   H        -1.8276    4.7385   14.8564  H     
@<TRIPOS>BOND
     1    1    2 2
     2    1    7 1
     3    2    3 1
     4    2   16 1
     5    3    4 1
     6    3   19 1
     7    4    5 2
     8    4    6 2
     9    4    8 1
    10    7    8 2
    11    7    9 1
    12    8   11 1
    13    9   10 2
    14   10   11 1
    15   10   13 1
    16   12   13 am
    17   13   14 2
    18   13   15 2
    19   16   18 1
    20   17   18 1
    21   17   26 1
    22   19   20 2
    23   19   24 1
    24   20   21 1
    25   21   22 2
    26   21   25 1
    27   22   23 1
    28   23   24 2
    29   26   27 3
    30    1   28 1
    31    9   29 1
    32   12   30 1
    33   12   31 1
    34   16   32 1
    35   16   33 1
    36   17   34 1
    37   17   35 1
    38   18   36 1
    39   18   37 1
    40   20   38 1
    41   22   39 1
    42   23   40 1
    43   24   41 1
    44   25   42 1
    45   27   43 1
@<TRIPOS>PROPERTY_DATA
  Total_Score	| 5.0455
  Crash		| -1.3406
  Polar		| 3.9866
  FragIndex	| 1
  FragRMSD	| 1.343

