@<TRIPOS>MOLECULE
BindingDB_17980
 59 62 0 0 0
SMALL
NO_CHARGES


@<TRIPOS>ATOM
1    C         0.8497   89.3314  163.0627  C     
2    C         1.4793   87.1355  162.4107  C     
3    C         2.8440   87.5202  162.3726  C     
4    C         3.1640   88.8590  162.7536  C     
5    N         2.1482   89.7096  163.0687  N     
6    N         0.5305   88.0482  162.7456  N     
7    N        -0.1022   90.2307  163.3489  N     
8    N         1.0637   85.8875  162.1058  N     
9    C         4.5390   89.4243  162.8252  C     
10   C         4.7449   90.6008  161.8387  C     
11   C         3.8138   86.7030  161.7445  C     
12   C         3.9821   86.8341  160.3495  C     
13   C         4.6471   85.8426  162.4817  C     
14   C         5.6438   85.1138  161.8166  C     
15   C         4.9844   86.1137  159.6524  C     
16   C         5.8051   85.2483  160.4256  C     
17   C         6.6344   84.2141  158.4244  C     
18   C         6.0827   85.3508  157.6890  C     
19   O         6.7985   84.5127  159.8302  O     
20   N         5.2189   86.2107  158.2700  N     
21   C         4.5248   87.2274  157.4630  C     
22   C         5.0599   88.6903  157.6462  C     
23   C         3.9550   89.7922  157.6427  C     
24   O         4.3856   90.9527  156.8941  O     
25   C         3.4133   92.0099  156.7877  C     
26   O         6.4127   85.4596  156.5094  O     
27   C         5.8790   82.9564  158.1211  C     
28   C         4.9754   82.3637  159.0381  C     
29   C         6.0572   82.3173  156.8680  C     
30   C         5.3519   81.1451  156.5396  C     
31   C         4.4578   80.5775  157.4606  C     
32   C         4.2736   81.1881  158.7118  C     
33   F         3.4385   80.6606  159.5597  F     
34   F         5.5190   80.5815  155.3767  F     
35   H        -1.0324   89.9729  163.3267  H     
36   H         0.1430   91.1489  163.5318  H     
37   H         0.1192   85.6827  162.1359  H     
38   H         1.7059   85.1884  161.9127  H     
39   H         4.7163   89.7721  163.8568  H     
40   H         5.3001   88.6642  162.6162  H     
41   H         4.5790   90.2732  160.8085  H     
42   H         5.7718   90.9783  161.9613  H     
43   H         4.0493   91.4148  162.0879  H     
44   H         3.3721   87.4799  159.8507  H     
45   H         4.5399   85.7522  163.4995  H     
46   H         6.2424   84.4774  162.3433  H     
47   H         7.6632   84.0531  158.0923  H     
48   H         4.5753   87.0129  156.3909  H     
49   H         3.4478   87.1718  157.6648  H     
50   H         5.6404   88.7606  158.5683  H     
51   H         5.7625   88.8837  156.8291  H     
52   H         3.0354   89.3759  157.1848  H     
53   H         3.7434   90.0860  158.6767  H     
54   H         2.9750   92.2591  157.7558  H     
55   H         3.9248   92.8915  156.3997  H     
56   H         2.6218   91.7391  156.0822  H     
57   H         4.8072   82.7836  159.9511  H     
58   H         6.7063   82.7084  156.1799  H     
59   H         3.9606   79.7176  157.2269  H     
@<TRIPOS>BOND
     1    1    5 2
     2    1    6 1
     3    1    7 1
     4    2    3 1
     5    2    6 2
     6    2    8 1
     7    3    4 2
     8    3   11 1
     9    4    5 1
    10    4    9 1
    11    9   10 1
    12   11   12 1
    13   11   13 2
    14   12   15 2
    15   13   14 1
    16   14   16 2
    17   15   16 1
    18   15   20 1
    19   16   19 1
    20   17   18 1
    21   17   19 1
    22   17   27 1
    23   18   20 1
    24   18   26 2
    25   20   21 1
    26   21   22 1
    27   22   23 1
    28   23   24 1
    29   24   25 1
    30   27   28 1
    31   27   29 2
    32   28   32 2
    33   29   30 1
    34   30   31 2
    35   30   34 1
    36   31   32 1
    37   32   33 1
    38    7   35 1
    39    7   36 1
    40    8   37 1
    41    8   38 1
    42    9   39 1
    43    9   40 1
    44   10   41 1
    45   10   42 1
    46   10   43 1
    47   12   44 1
    48   13   45 1
    49   14   46 1
    50   17   47 1
    51   21   48 1
    52   21   49 1
    53   22   50 1
    54   22   51 1
    55   23   52 1
    56   23   53 1
    57   25   54 1
    58   25   55 1
    59   25   56 1
    60   28   57 1
    61   29   58 1
    62   31   59 1
@<TRIPOS>PROPERTY_DATA
  Total_Score	| 11.2070
  Crash		| -1.0607
  Polar		| 4.5173
  FragIndex	| 1
  FragRMSD	| 0.224

