@<TRIPOS>MOLECULE
BindingDB_18011
 61 64 0 0 0
SMALL
NO_CHARGES


@<TRIPOS>ATOM
1    C         0.8424   89.3705  163.2119  C     
2    C         3.1581   88.9262  162.8152  C     
3    C         2.8473   87.5831  162.4634  C     
4    C         1.4817   87.1902  162.5327  C     
5    N         0.5326   88.0924  162.9033  N     
6    N         2.1395   89.7567  163.1654  N     
7    N        -0.1055   90.2621  163.5381  N     
8    C         3.8075   86.7388  161.8521  C     
9    C         4.0790   86.9202  160.4807  C     
10   C         4.4901   85.7249  162.5537  C     
11   C         5.4462   84.9363  161.8861  C     
12   C         5.0482   86.1543  159.7812  C     
13   C         5.7065   85.1412  160.5177  C     
14   O         6.6829   84.3892  159.9227  O     
15   N         5.3927   86.3511  158.4396  N     
16   C         5.0358   87.6047  157.7679  C     
17   C         6.1077   85.4090  157.7936  C     
18   O         6.3457   85.5218  156.5952  O     
19   C         5.8750   82.9744  158.0827  C     
20   C         4.5141   80.5871  157.3015  C     
21   C         5.3645   81.2413  156.3941  C     
22   C         6.0235   82.4242  156.7820  C     
23   C         5.0108   82.2862  158.9814  C     
24   C         4.3328   81.1117  158.5948  C     
25   C         6.6454   84.2121  158.4817  C     
26   C         8.1671   84.0451  158.1690  C     
27   F         5.5451   80.7477  155.1964  F     
28   F         3.5490   80.4976  159.4430  F     
29   N         1.0539   85.9586  162.2051  N     
30   C         4.5553   89.4630  162.8353  C     
31   C         4.7528   90.8810  162.2587  C     
32   C         3.5543   87.6495  157.2973  C     
33   C         3.5259   90.2706  157.8156  C     
34   C         2.9574   89.0619  157.0219  C     
35   F         2.6822   91.3507  157.7291  F     
36   F         3.6826   89.9799  159.1418  F     
37   F         4.7340   90.6711  157.3064  F     
38   H         0.1400   91.1788  163.7333  H     
39   H        -1.0446   90.0190  163.5006  H     
40   H         3.5776   87.6618  160.0042  H     
41   H         4.3088   85.5605  163.5457  H     
42   H         5.9456   84.2074  162.4037  H     
43   H         5.2501   88.4366  158.4449  H     
44   H         5.6543   87.8068  156.8884  H     
45   H         4.0379   79.7228  157.0235  H     
46   H         6.6357   82.8779  156.0988  H     
47   H         4.8755   82.6140  159.9422  H     
48   H         8.7107   84.9136  158.5437  H     
49   H         8.3709   83.9596  157.0974  H     
50   H         8.5650   83.1522  158.6548  H     
51   H         0.1029   85.7603  162.2400  H     
52   H         1.6830   85.2643  161.9290  H     
53   H         4.9066   89.4523  163.8678  H     
54   H         5.2113   88.8135  162.2504  H     
55   H         4.4154   90.9083  161.2201  H     
56   H         5.8117   91.1463  162.2944  H     
57   H         4.1894   91.6130  162.8313  H     
58   H         3.4905   87.0658  156.3741  H     
59   H         2.9041   87.1438  158.0107  H     
60   H         3.0681   89.2900  155.9627  H     
61   H         1.8812   88.9981  157.2039  H     
@<TRIPOS>BOND
     1    1    5 2
     2    1    6 1
     3    1    7 1
     4    2    3 1
     5    2    6 2
     6    2   30 1
     7    3    4 2
     8    3    8 1
     9    4    5 1
    10    4   29 1
    11    8    9 1
    12    8   10 2
    13    9   12 2
    14   10   11 1
    15   11   13 2
    16   12   13 1
    17   12   15 1
    18   13   14 1
    19   14   25 1
    20   15   16 1
    21   15   17 1
    22   16   32 1
    23   17   18 2
    24   17   25 1
    25   19   22 1
    26   19   23 2
    27   19   25 1
    28   20   21 1
    29   20   24 2
    30   21   22 2
    31   21   27 1
    32   23   24 1
    33   24   28 1
    34   25   26 1
    35   30   31 1
    36   32   34 1
    37   33   34 1
    38   33   35 1
    39   33   36 1
    40   33   37 1
    41    7   38 1
    42    7   39 1
    43    9   40 1
    44   10   41 1
    45   11   42 1
    46   16   43 1
    47   16   44 1
    48   20   45 1
    49   22   46 1
    50   23   47 1
    51   26   48 1
    52   26   49 1
    53   26   50 1
    54   29   51 1
    55   29   52 1
    56   30   53 1
    57   30   54 1
    58   31   55 1
    59   31   56 1
    60   31   57 1
    61   32   58 1
    62   32   59 1
    63   34   60 1
    64   34   61 1
@<TRIPOS>PROPERTY_DATA
  Total_Score	| 10.4513
  Crash		| -2.4197
  Polar		| 3.5271
  FragIndex	| 1
  FragRMSD	| 0.428

