@<TRIPOS>MOLECULE
BindingDB_17998
 59 62 0 0 0
SMALL
NO_CHARGES


@<TRIPOS>ATOM
1    C         0.8478   89.4286  163.1647  C     
2    C         3.1735   89.0193  162.8479  C     
3    C         2.8877   87.6817  162.4644  C     
4    C         1.5340   87.2607  162.5039  C     
5    N         0.5632   88.1432  162.8503  N     
6    N         2.1375   89.8405  163.1604  N     
7    N        -0.1319   90.2956  163.4602  N     
8    C         3.8577   86.8629  161.8443  C     
9    C         4.1007   87.0340  160.4649  C     
10   C         4.5403   85.8549  162.5515  C     
11   C         5.4765   85.0526  161.8796  C     
12   C         4.9240   86.1417  159.7340  C     
13   C         5.6641   85.1984  160.4910  C     
14   O         6.6267   84.4319  159.8968  O     
15   N         5.0454   86.1483  158.3397  N     
16   C         3.9556   86.6580  157.4944  C     
17   C         3.7708   88.1956  157.3551  C     
18   C         6.0322   85.4321  157.7644  C     
19   O         6.3161   85.5956  156.5816  O     
20   C         5.9016   83.0191  158.0328  C     
21   C         4.4935   80.6804  157.1952  C     
22   C         5.3793   81.3224  156.3145  C     
23   C         6.0681   82.4778  156.7294  C     
24   C         4.9920   82.3504  158.8964  C     
25   C         4.2980   81.1959  158.4868  C     
26   C         6.6366   84.2745  158.4542  C     
27   C         8.1681   84.1780  158.1735  C     
28   F         5.5642   80.8450  155.1138  F     
29   F         3.4713   80.6038  159.3052  F     
30   N         1.1395   86.0125  162.1852  N     
31   C         4.5351   89.6086  162.9331  C     
32   C         4.7617   90.7201  161.8869  C     
33   C         5.0847   89.0098  157.2703  C     
34   O         4.8388   90.3390  156.8115  O     
35   H         0.0889   91.2183  163.6577  H     
36   H        -1.0624   90.0225  163.4144  H     
37   H         3.6805   87.8395  159.9991  H     
38   H         4.3810   85.7198  163.5541  H     
39   H         6.0111   84.3530  162.4003  H     
40   H         4.0160   86.2652  156.4736  H     
41   H         3.0176   86.2404  157.8748  H     
42   H         3.1906   88.4019  156.4531  H     
43   H         3.1528   88.5416  158.1870  H     
44   H         3.9911   79.8409  156.8959  H     
45   H         6.6983   82.9251  156.0611  H     
46   H         4.8206   82.6919  159.8425  H     
47   H         8.6575   85.0911  158.5186  H     
48   H         8.3914   84.0630  157.1115  H     
49   H         8.6053   83.3296  158.7056  H     
50   H         0.1970   85.7875  162.2103  H     
51   H         1.7896   85.3284  161.9462  H     
52   H         4.6714   90.0262  163.9342  H     
53   H         5.3096   88.8501  162.7996  H     
54   H         4.6682   90.3144  160.8781  H     
55   H         5.7647   91.1299  162.0061  H     
56   H         4.0382   91.5284  162.0142  H     
57   H         5.5673   89.0605  158.2488  H     
58   H         5.7715   88.5328  156.5679  H     
59   H         4.4409   90.8060  157.5765  H     
@<TRIPOS>BOND
     1    1    5 2
     2    1    6 1
     3    1    7 1
     4    2    3 1
     5    2    6 2
     6    2   31 1
     7    3    4 2
     8    3    8 1
     9    4    5 1
    10    4   30 1
    11    8    9 1
    12    8   10 2
    13    9   12 2
    14   10   11 1
    15   11   13 2
    16   12   13 1
    17   12   15 1
    18   13   14 1
    19   14   26 1
    20   15   16 1
    21   15   18 1
    22   16   17 1
    23   17   33 1
    24   18   19 2
    25   18   26 1
    26   20   23 1
    27   20   24 2
    28   20   26 1
    29   21   22 1
    30   21   25 2
    31   22   23 2
    32   22   28 1
    33   24   25 1
    34   25   29 1
    35   26   27 1
    36   31   32 1
    37   33   34 1
    38    7   35 1
    39    7   36 1
    40    9   37 1
    41   10   38 1
    42   11   39 1
    43   16   40 1
    44   16   41 1
    45   17   42 1
    46   17   43 1
    47   21   44 1
    48   23   45 1
    49   24   46 1
    50   27   47 1
    51   27   48 1
    52   27   49 1
    53   30   50 1
    54   30   51 1
    55   31   52 1
    56   31   53 1
    57   32   54 1
    58   32   55 1
    59   32   56 1
    60   33   57 1
    61   33   58 1
    62   34   59 1
@<TRIPOS>PROPERTY_DATA
  Total_Score	| 11.0703
  Crash		| -1.4796
  Polar		| 4.4319
  FragIndex	| 1
  FragRMSD	| 0.432

