@<TRIPOS>MOLECULE
BindingDB_50330347
 62 65 0 0 0
SMALL
NO_CHARGES


@<TRIPOS>ATOM
1    C         0.8802   89.3146  163.0452  C     
2    N         0.6535   88.0134  162.7491  N     
3    C         1.6684   87.1424  162.5262  C     
4    C         3.0157   87.5898  162.5811  C     
5    C         3.2321   88.9544  162.9179  C     
6    N         2.1562   89.7580  163.1264  N     
7    C         4.0359   86.7995  161.9929  C     
8    C         4.6158   85.6717  162.6140  C     
9    C         5.5388   84.8787  161.8974  C     
10   C         4.3964   87.0828  160.6615  C     
11   C         5.2225   86.2606  159.8768  C     
12   C         5.8143   85.1630  160.5418  C     
13   O         6.7220   84.4078  159.8643  O     
14   C         6.5648   84.2576  158.4237  C     
15   C         5.9977   85.4854  157.8011  C     
16   N         5.4242   86.4791  158.5113  N     
17   C         4.5579   89.6059  163.0743  C     
18   C         4.8108   90.7387  162.0466  C     
19   N         1.3068   85.8857  162.1927  N     
20   N        -0.1352   90.1717  163.2186  N     
21   O         6.1164   85.5751  156.5829  O     
22   C         5.1476   87.8033  157.9122  C     
23   C         3.6807   88.2813  157.5848  C     
24   C         5.7617   83.0142  158.0955  C     
25   C         5.8422   82.4143  156.8083  C     
26   C         5.1492   81.2273  156.5072  C     
27   C         4.3584   80.6054  157.4878  C     
28   C         4.2497   81.1788  158.7647  C     
29   C         4.9399   82.3673  159.0629  C     
30   C         8.0528   84.0578  157.9877  C     
31   F         5.2461   80.6959  155.3179  F     
32   F         3.5199   80.6023  159.6807  F     
33   C         3.5739   89.8299  157.6731  C     
34   O         2.3460   90.3051  157.0963  O     
35   C         2.4609   91.2687  156.0362  C     
36   H         4.3762   85.4266  163.5799  H     
37   H         5.9899   84.0773  162.3541  H     
38   H         4.0405   87.9138  160.2361  H     
39   H         4.6149   90.0343  164.0802  H     
40   H         5.3727   88.8845  162.9967  H     
41   H         4.8205   90.3387  161.0289  H     
42   H         5.7794   91.1996  162.2470  H     
43   H         4.0428   91.5105  162.1177  H     
44   H         1.9741   85.2046  162.0103  H     
45   H         0.3661   85.6593  162.1356  H     
46   H         0.0581   91.1079  163.3842  H     
47   H        -1.0567   89.8847  163.1021  H     
48   H         5.5928   88.5384  158.5908  H     
49   H         5.7100   87.9310  156.9841  H     
50   H         3.4267   87.9593  156.5722  H     
51   H         2.8920   87.8966  158.2610  H     
52   H         6.4252   82.8305  156.0822  H     
53   H         3.8581   79.7410  157.2703  H     
54   H         4.8415   82.7419  160.0027  H     
55   H         8.6555   84.9220  158.2830  H     
56   H         8.1574   83.9357  156.9061  H     
57   H         8.4804   83.1707  158.4682  H     
58   H         3.5471   90.1161  158.7284  H     
59   H         4.4549   90.3079  157.2357  H     
60   H         2.9028   92.1981  156.4055  H     
61   H         1.4560   91.4881  155.6709  H     
62   H         3.0598   90.8800  155.2061  H     
@<TRIPOS>BOND
     1    1    2 2
     2    1    6 1
     3    1   20 1
     4    2    3 1
     5    3    4 2
     6    3   19 1
     7    4    5 1
     8    4    7 1
     9    5    6 2
    10    5   17 1
    11    7    8 2
    12    7   10 1
    13    8    9 1
    14    9   12 2
    15   10   11 2
    16   11   12 1
    17   11   16 1
    18   12   13 1
    19   13   14 1
    20   14   15 1
    21   14   24 1
    22   14   30 1
    23   15   16 1
    24   15   21 2
    25   16   22 1
    26   17   18 1
    27   22   23 1
    28   23   33 1
    29   24   25 2
    30   24   29 1
    31   25   26 1
    32   26   27 2
    33   26   31 1
    34   27   28 1
    35   28   29 2
    36   28   32 1
    37   33   34 1
    38   34   35 1
    39    8   36 1
    40    9   37 1
    41   10   38 1
    42   17   39 1
    43   17   40 1
    44   18   41 1
    45   18   42 1
    46   18   43 1
    47   19   44 1
    48   19   45 1
    49   20   46 1
    50   20   47 1
    51   22   48 1
    52   22   49 1
    53   23   50 1
    54   23   51 1
    55   25   52 1
    56   27   53 1
    57   29   54 1
    58   30   55 1
    59   30   56 1
    60   30   57 1
    61   33   58 1
    62   33   59 1
    63   35   60 1
    64   35   61 1
    65   35   62 1
@<TRIPOS>PROPERTY_DATA
  Total_Score	| 11.8139
  Crash		| -1.4680
  Polar		| 3.7962
  FragIndex	| 1
  FragRMSD	| 0.717

