@<TRIPOS>MOLECULE
BindingDB_17981
 59 62 0 0 0
SMALL
NO_CHARGES


@<TRIPOS>ATOM
1    C         0.8176   89.3491  163.1374  C     
2    C         1.4954   87.1909  162.4330  C     
3    C         2.8527   87.6020  162.4128  C     
4    C         3.1430   88.9345  162.8181  C     
5    N         2.1095   89.7524  163.1476  N     
6    N         0.5266   88.0731  162.7910  N     
7    N        -0.1549   90.2192  163.4475  N     
8    N         1.0999   85.9498  162.0883  N     
9    C         4.5021   89.5342  162.9013  C     
10   C         4.7168   90.6589  161.8649  C     
11   C         3.8336   86.7916  161.7936  C     
12   C         3.9950   86.8801  160.3951  C     
13   C         4.6702   85.9357  162.5325  C     
14   C         5.6636   85.1932  161.8733  C     
15   C         4.9825   86.1369  159.6960  C     
16   C         5.8159   85.2920  160.4770  C     
17   C         6.6588   84.2400  158.4815  C     
18   C         6.0901   85.3677  157.7376  C     
19   O         6.8107   84.5537  159.8862  O     
20   N         5.1913   86.1978  158.3058  N     
21   C         4.4222   87.1186  157.4667  C     
22   C         4.9613   88.5781  157.4970  C     
23   C         3.8343   89.6295  157.3631  C     
24   O         4.3735   90.8524  156.8278  O     
25   C         3.4453   91.9521  156.8177  C     
26   O         6.4500   85.4950  156.5718  O     
27   C         5.8956   82.9775  158.1913  C     
28   C         6.0098   82.3340  156.9265  C     
29   C         5.0370   82.3866  159.1544  C     
30   C         4.3074   81.2200  158.8662  C     
31   C         4.4195   80.6133  157.6057  C     
32   C         5.2705   81.1679  156.6349  C     
33   F         5.3669   80.5881  155.4673  F     
34   F         6.8117   82.7963  156.0015  F     
35   H        -1.0875   89.9539  163.3986  H     
36   H         0.0746   91.1356  163.6698  H     
37   H         0.1560   85.7274  162.0967  H     
38   H         1.7511   85.2677  161.8481  H     
39   H         4.6405   89.9442  163.9058  H     
40   H         5.2828   88.7854  162.7559  H     
41   H         5.7235   91.0652  161.9722  H     
42   H         3.9996   91.4688  162.0152  H     
43   H         4.6033   90.2667  160.8527  H     
44   H         3.3784   87.5173  159.8902  H     
45   H         4.5721   85.8612  163.5492  H     
46   H         6.2789   84.5802  162.4140  H     
47   H         7.6913   84.0810  158.1529  H     
48   H         4.3912   86.8110  156.4174  H     
49   H         3.3741   87.0847  157.7727  H     
50   H         5.5025   88.7677  158.4260  H     
51   H         5.6681   88.7082  156.6727  H     
52   H         3.0585   89.2369  156.7006  H     
53   H         3.3961   89.8142  158.3487  H     
54   H         2.5578   91.7145  156.2255  H     
55   H         3.9343   92.8131  156.3631  H     
56   H         3.1462   92.2199  157.8340  H     
57   H         4.9259   82.7930  160.0829  H     
58   H         3.6894   80.8151  159.5732  H     
59   H         3.8832   79.7669  157.4001  H     
@<TRIPOS>BOND
     1    1    5 2
     2    1    6 1
     3    1    7 1
     4    2    3 1
     5    2    6 2
     6    2    8 1
     7    3    4 2
     8    3   11 1
     9    4    5 1
    10    4    9 1
    11    9   10 1
    12   11   12 1
    13   11   13 2
    14   12   15 2
    15   13   14 1
    16   14   16 2
    17   15   16 1
    18   15   20 1
    19   16   19 1
    20   17   18 1
    21   17   19 1
    22   17   27 1
    23   18   20 1
    24   18   26 2
    25   20   21 1
    26   21   22 1
    27   22   23 1
    28   23   24 1
    29   24   25 1
    30   27   28 1
    31   27   29 2
    32   28   32 2
    33   28   34 1
    34   29   30 1
    35   30   31 2
    36   31   32 1
    37   32   33 1
    38    7   35 1
    39    7   36 1
    40    8   37 1
    41    8   38 1
    42    9   39 1
    43    9   40 1
    44   10   41 1
    45   10   42 1
    46   10   43 1
    47   12   44 1
    48   13   45 1
    49   14   46 1
    50   17   47 1
    51   21   48 1
    52   21   49 1
    53   22   50 1
    54   22   51 1
    55   23   52 1
    56   23   53 1
    57   25   54 1
    58   25   55 1
    59   25   56 1
    60   29   57 1
    61   30   58 1
    62   31   59 1
@<TRIPOS>PROPERTY_DATA
  Total_Score	| 10.9751
  Crash		| -0.9632
  Polar		| 4.2566
  FragIndex	| 1
  FragRMSD	| 0.490

