@<TRIPOS>MOLECULE
BindingDB_18000
 62 65 0 0 0
SMALL
NO_CHARGES


@<TRIPOS>ATOM
1    C         0.8482   89.3035  163.2082  C     
2    C         3.1736   88.8458  162.9220  C     
3    C         2.8687   87.5015  162.5344  C     
4    C         1.5055   87.1169  162.5708  C     
5    N         0.5340   88.0136  162.8803  N     
6    N         2.1398   89.6725  163.2365  N     
7    N        -0.1054   90.2163  163.4473  N     
8    C         3.8283   86.6867  161.8902  C     
9    C         4.0530   86.8912  160.5108  C     
10   C         4.5755   85.7261  162.5914  C     
11   C         5.5445   84.9738  161.9056  C     
12   C         5.0578   86.1687  159.8120  C     
13   C         5.7661   85.1740  160.5297  C     
14   O         6.7452   84.4577  159.8950  O     
15   N         5.3690   86.3617  158.4656  N     
16   C         5.0293   87.6229  157.8171  C     
17   C         3.5609   87.6743  157.2910  C     
18   C         6.0589   85.4265  157.7896  C     
19   O         6.2228   85.5309  156.5775  O     
20   C         5.8892   82.9941  158.1031  C     
21   C         4.5323   80.5553  157.4666  C     
22   C         5.3371   81.1929  156.4999  C     
23   C         6.0049   82.3925  156.8231  C     
24   C         5.0469   82.3371  159.0450  C     
25   C         4.3804   81.1320  158.7370  C     
26   C         6.6482   84.2530  158.4516  C     
27   C         8.1495   84.1106  158.0737  C     
28   F         5.4795   80.6571  155.3147  F     
29   F         3.6284   80.5502  159.6358  F     
30   N         1.1033   85.8609  162.2420  N     
31   C         4.5328   89.4284  163.0010  C     
32   C         4.6816   90.6978  162.1419  C     
33   C         2.8692   89.0680  157.1720  C     
34   C         3.6413   90.3329  157.6711  C     
35   O         4.6619   90.7411  156.7455  O     
36   H         0.1631   91.1441  163.5881  H     
37   H        -1.0363   89.9769  163.3777  H     
38   H         3.4730   87.5813  160.0224  H     
39   H         4.4268   85.5807  163.5858  H     
40   H         6.0922   84.2808  162.4118  H     
41   H         5.2348   88.4590  158.5002  H     
42   H         5.6712   87.8315  156.9575  H     
43   H         3.5199   87.1837  156.3072  H     
44   H         2.9414   87.0505  157.9302  H     
45   H         4.0491   79.6816  157.2332  H     
46   H         6.6006   82.8229  156.0991  H     
47   H         4.9234   82.7092  159.9944  H     
48   H         8.6999   85.0022  158.3703  H     
49   H         8.2888   83.9808  156.9981  H     
50   H         8.5969   83.2479  158.5720  H     
51   H         0.1615   85.6389  162.2577  H     
52   H         1.7599   85.1698  162.0588  H     
53   H         4.7380   89.6827  164.0471  H     
54   H         5.2983   88.7164  162.6985  H     
55   H         4.5203   90.4756  161.0899  H     
56   H         5.6906   91.1048  162.2551  H     
57   H         3.9755   91.4692  162.4535  H     
58   H         2.5880   89.2455  156.1224  H     
59   H         1.9217   89.0417  157.7388  H     
60   H         2.9350   91.1609  157.7992  H     
61   H         4.0870   90.1230  158.6501  H     
62   H         5.4249   90.1687  156.9483  H     
@<TRIPOS>BOND
     1    1    5 2
     2    1    6 1
     3    1    7 1
     4    2    3 1
     5    2    6 2
     6    2   31 1
     7    3    4 2
     8    3    8 1
     9    4    5 1
    10    4   30 1
    11    8    9 1
    12    8   10 2
    13    9   12 2
    14   10   11 1
    15   11   13 2
    16   12   13 1
    17   12   15 1
    18   13   14 1
    19   14   26 1
    20   15   16 1
    21   15   18 1
    22   16   17 1
    23   17   33 1
    24   18   19 2
    25   18   26 1
    26   20   23 1
    27   20   24 2
    28   20   26 1
    29   21   22 1
    30   21   25 2
    31   22   23 2
    32   22   28 1
    33   24   25 1
    34   25   29 1
    35   26   27 1
    36   31   32 1
    37   33   34 1
    38   34   35 1
    39    7   36 1
    40    7   37 1
    41    9   38 1
    42   10   39 1
    43   11   40 1
    44   16   41 1
    45   16   42 1
    46   17   43 1
    47   17   44 1
    48   21   45 1
    49   23   46 1
    50   24   47 1
    51   27   48 1
    52   27   49 1
    53   27   50 1
    54   30   51 1
    55   30   52 1
    56   31   53 1
    57   31   54 1
    58   32   55 1
    59   32   56 1
    60   32   57 1
    61   33   58 1
    62   33   59 1
    63   34   60 1
    64   34   61 1
    65   35   62 1
@<TRIPOS>PROPERTY_DATA
  Total_Score	| 11.8761
  Crash		| -2.1421
  Polar		| 5.0015
  FragIndex	| 1
  FragRMSD	| 0.722

