@<TRIPOS>MOLECULE
BindingDB_20608
 59 61 0 0 0
SMALL
NO_CHARGES


@<TRIPOS>ATOM
1    C        48.2645  -29.2925  -98.1795  C     
2    C        48.2858  -30.6928  -98.3872  C     
3    C        47.2248  -31.5083  -97.9231  C     
4    C        47.2416  -32.9045  -98.1254  C     
5    C        48.3236  -33.5056  -98.7894  C     
6    C        49.3882  -32.7090  -99.2518  C     
7    C        49.3677  -31.3160  -99.0444  C     
8    C        48.4382  -28.4414  -99.3883  C     
9    C        48.2474  -29.0768 -100.8027  C     
10   C        48.1835  -28.7721  -96.9308  C     
11   C        48.2514  -29.5619  -95.7563  C     
12   C        47.2898  -29.4197  -94.7298  C     
13   C        49.2959  -30.4991  -95.5571  C     
14   C        49.3647  -31.2740  -94.3796  C     
15   C        48.4012  -31.1201  -93.3669  C     
16   C        47.3611  -30.1866  -93.5519  C     
17   O        48.4461  -31.9818  -92.3018  O     
18   C        48.3227  -31.4378  -90.9630  C     
19   C        48.4414  -32.6118  -89.9304  C     
20   N        49.8004  -32.8368  -89.3463  N     
21   C        49.8364  -34.0360  -88.4559  C     
22   C        50.9193  -32.8914  -90.3398  C     
23   C        47.9840  -27.3975  -96.6652  C     
24   C        46.5568  -25.4001  -96.7753  C     
25   C        46.8209  -26.7363  -97.1276  C     
26   C        48.8619  -26.6823  -95.8160  C     
27   C        48.5776  -25.3546  -95.4264  C     
28   C        47.4247  -24.7088  -95.9131  C     
29   O        47.1415  -23.4227  -95.5635  O     
30   H        46.4146  -31.0939  -97.4495  H     
31   H        46.4644  -33.4818  -97.7870  H     
32   H        48.3396  -34.5199  -98.9338  H     
33   H        50.1727  -33.1430  -99.7484  H     
34   H        50.1531  -30.7624  -99.3908  H     
35   H        47.6994  -27.6375  -99.3872  H     
36   H        49.4271  -27.9652  -99.3490  H     
37   H        49.0698  -29.7527 -101.0465  H     
38   H        48.2109  -28.2890 -101.5671  H     
39   H        47.3014  -29.6265 -100.8427  H     
40   H        46.5178  -28.7506  -94.8275  H     
41   H        50.0272  -30.6171  -96.2606  H     
42   H        50.1199  -31.9571  -94.2698  H     
43   H        46.6406  -30.0611  -92.8395  H     
44   H        49.1298  -30.7083  -90.7752  H     
45   H        47.3250  -30.9610  -90.8451  H     
46   H        47.7727  -32.3701  -89.1054  H     
47   H        48.0584  -33.5280  -90.3938  H     
48   H        49.9988  -32.0245  -88.7542  H     
49   H        49.0444  -33.9913  -87.7048  H     
50   H        50.7900  -34.0787  -87.9217  H     
51   H        49.7216  -34.9580  -89.0321  H     
52   H        50.7638  -33.7126  -91.0601  H     
53   H        51.8781  -33.0651  -89.8079  H     
54   H        50.9553  -31.9248  -90.8750  H     
55   H        45.7244  -24.9302  -97.1531  H     
56   H        46.1380  -27.2222  -97.7158  H     
57   H        49.7079  -27.1246  -95.4466  H     
58   H        49.2138  -24.8584  -94.7984  H     
59   H        47.1574  -23.3969  -94.5859  H     
@<TRIPOS>BOND
     1    1    2 1
     2    1    8 1
     3    1   10 2
     4    2    3 2
     5    2    7 1
     6    3    4 1
     7    4    5 2
     8    5    6 1
     9    6    7 2
    10    8    9 1
    11   10   11 1
    12   10   23 1
    13   11   12 2
    14   11   13 1
    15   12   16 1
    16   13   14 2
    17   14   15 1
    18   15   16 2
    19   15   17 1
    20   17   18 1
    21   18   19 1
    22   19   20 1
    23   20   21 1
    24   20   22 1
    25   23   25 2
    26   23   26 1
    27   24   25 1
    28   24   28 2
    29   26   27 2
    30   27   28 1
    31   28   29 1
    32    3   30 1
    33    4   31 1
    34    5   32 1
    35    6   33 1
    36    7   34 1
    37    8   35 1
    38    8   36 1
    39    9   37 1
    40    9   38 1
    41    9   39 1
    42   12   40 1
    43   13   41 1
    44   14   42 1
    45   16   43 1
    46   18   44 1
    47   18   45 1
    48   19   46 1
    49   19   47 1
    50   20   48 1
    51   21   49 1
    52   21   50 1
    53   21   51 1
    54   22   52 1
    55   22   53 1
    56   22   54 1
    57   24   55 1
    58   25   56 1
    59   26   57 1
    60   27   58 1
    61   29   59 1
@<TRIPOS>PROPERTY_DATA
  Total_Score	| 12.4769
  Crash		| -1.1670
  Polar		| 5.2908
  FragIndex	| 1
  FragRMSD	| 0.335

