@<TRIPOS>MOLECULE
BindingDB_22435
 63 65 0 0 0
SMALL
NO_CHARGES


@<TRIPOS>ATOM
1    C        48.4420  -31.0983  -93.1278  C     
2    C        49.4204  -31.2449  -94.1289  C     
3    C        49.3545  -30.4937  -95.3136  C     
4    C        48.2896  -29.5837  -95.5438  C     
5    C        47.3001  -29.4535  -94.5378  C     
6    C        47.3767  -30.2053  -93.3460  C     
7    O        48.4753  -31.9483  -92.0552  O     
8    C        48.4834  -31.3675  -90.7359  C     
9    C        48.5683  -32.5162  -89.6925  C     
10   N        49.9411  -32.8370  -89.1782  N     
11   C        49.9596  -34.1088  -88.3946  C     
12   C        51.0067  -32.8282  -90.2236  C     
13   C        48.2697  -28.7695  -96.6999  C     
14   C        48.6264  -29.2268  -97.9410  C     
15   C        48.5446  -30.6073  -98.2327  C     
16   C        49.5293  -32.7217  -99.0358  C     
17   C        49.6390  -31.3425  -98.7589  C     
18   C        47.3364  -31.3135  -97.9766  C     
19   C        47.2358  -32.6981  -98.2270  C     
20   C        48.3323  -33.4020  -98.7570  C     
21   C        49.0059  -28.2681  -99.0125  C     
22   C        47.9876  -27.4144  -96.4468  C     
23   C        46.8603  -26.7755  -97.0205  C     
24   C        46.5636  -25.4355  -96.7182  C     
25   C        47.3818  -24.7098  -95.8261  C     
26   C        48.5090  -25.3313  -95.2596  C     
27   C        48.8156  -26.6656  -95.5750  C     
28   O        47.0828  -23.4213  -95.5174  O     
29   C        49.8550  -28.7462 -100.2216  C     
30   C        49.0896  -29.6107 -101.2567  C     
31   O        48.1065  -28.8354 -101.9340  O     
32   H        50.1887  -31.9086  -93.9889  H     
33   H        50.1064  -30.5897  -95.9988  H     
34   H        46.5127  -28.8109  -94.6607  H     
35   H        46.6409  -30.1014  -92.6444  H     
36   H        49.3340  -30.6909  -90.6103  H     
37   H        47.5595  -30.8029  -90.5741  H     
38   H        47.9599  -32.2102  -88.8361  H     
39   H        48.1058  -33.4179  -90.1105  H     
40   H        50.1699  -32.0894  -88.5183  H     
41   H        49.1743  -34.1143  -87.6365  H     
42   H        50.9119  -34.2130  -87.8750  H     
43   H        49.8190  -34.9759  -89.0460  H     
44   H        50.7684  -33.5203  -91.0361  H     
45   H        51.9707  -33.1156  -89.7981  H     
46   H        51.1180  -31.8256  -90.6379  H     
47   H        50.3284  -33.2316  -99.4216  H     
48   H        50.5175  -30.8847  -98.9598  H     
49   H        46.5180  -30.8290  -97.6002  H     
50   H        46.3672  -33.1987  -98.0102  H     
51   H        48.2622  -34.4112  -98.9145  H     
52   H        48.1034  -27.7953  -99.4097  H     
53   H        49.5971  -27.4715  -98.5590  H     
54   H        46.2301  -27.2899  -97.6443  H     
55   H        45.7448  -24.9826  -97.1357  H     
56   H        49.1146  -24.8096  -94.6183  H     
57   H        49.6429  -27.0925  -95.1514  H     
58   H        47.1214  -23.3672  -94.5369  H     
59   H        50.2198  -27.8694 -100.7707  H     
60   H        50.7303  -29.2716  -99.8215  H     
61   H        49.7865  -30.0105 -102.0011  H     
62   H        48.5923  -30.4547 -100.7819  H     
63   H        48.5682  -28.0091 -102.1910  H     
@<TRIPOS>BOND
     1    1    2 2
     2    1    6 1
     3    1    7 1
     4    2    3 1
     5    3    4 2
     6    4    5 1
     7    4   13 1
     8    5    6 2
     9    7    8 1
    10    8    9 1
    11    9   10 1
    12   10   11 1
    13   10   12 1
    14   13   14 2
    15   13   22 1
    16   14   15 1
    17   14   21 1
    18   15   17 2
    19   15   18 1
    20   16   17 1
    21   16   20 2
    22   18   19 2
    23   19   20 1
    24   21   29 1
    25   22   23 1
    26   22   27 2
    27   23   24 2
    28   24   25 1
    29   25   26 2
    30   25   28 1
    31   26   27 1
    32   29   30 1
    33   30   31 1
    34    2   32 1
    35    3   33 1
    36    5   34 1
    37    6   35 1
    38    8   36 1
    39    8   37 1
    40    9   38 1
    41    9   39 1
    42   10   40 1
    43   11   41 1
    44   11   42 1
    45   11   43 1
    46   12   44 1
    47   12   45 1
    48   12   46 1
    49   16   47 1
    50   17   48 1
    51   18   49 1
    52   19   50 1
    53   20   51 1
    54   21   52 1
    55   21   53 1
    56   23   54 1
    57   24   55 1
    58   26   56 1
    59   27   57 1
    60   28   58 1
    61   29   59 1
    62   29   60 1
    63   30   61 1
    64   30   62 1
    65   31   63 1
@<TRIPOS>PROPERTY_DATA
  Total_Score	| 12.8703
  Crash		| -2.3127
  Polar		| 6.8661
  FragIndex	| 1
  FragRMSD	| 0.601

