@<TRIPOS>MOLECULE
BindingDB_22424
 62 64 0 0 0
SMALL
NO_CHARGES


@<TRIPOS>ATOM
1    C        48.1525  -31.3433  -93.3461  C     
2    C        47.2645  -30.2671  -93.5335  C     
3    C        47.4084  -29.4048  -94.6290  C     
4    C        48.4593  -29.5847  -95.5640  C     
5    C        49.3825  -30.6401  -95.3368  C     
6    C        49.2218  -31.5183  -94.2483  C     
7    O        47.8576  -32.2958  -92.4109  O     
8    C        48.2489  -32.0623  -91.0500  C     
9    C        49.7615  -32.3155  -90.8233  C     
10   N        50.1032  -32.7574  -89.4186  N     
11   C        49.4488  -34.0502  -89.0294  C     
12   C        51.5674  -32.8075  -89.1676  C     
13   C        48.5198  -28.7938  -96.7278  C     
14   C        48.7884  -29.3194  -97.9693  C     
15   C        48.7762  -30.7237  -98.1983  C     
16   C        49.7715  -32.7930  -99.1144  C     
17   C        49.8471  -31.4134  -98.8462  C     
18   C        47.6472  -31.5006  -97.8096  C     
19   C        47.5701  -32.8820  -98.0854  C     
20   C        48.6340  -33.5358  -98.7417  C     
21   C        49.1549  -28.4499  -99.1263  C     
22   C        48.2499  -27.4257  -96.5147  C     
23   C        49.0449  -26.6582  -95.6284  C     
24   C        48.6891  -25.3384  -95.2908  C     
25   C        47.5402  -24.7474  -95.8531  C     
26   C        46.7492  -25.4861  -96.7495  C     
27   C        47.0947  -26.8132  -97.0637  C     
28   O        47.1817  -23.4765  -95.5294  O     
29   C        48.1996  -28.4331 -100.3689  C     
30   C        47.3813  -29.7191 -100.6773  C     
31   Cl       45.7932  -29.7161  -99.8901  Cl    
32   H        46.4831  -30.1379  -92.8906  H     
33   H        46.7159  -28.6680  -94.7566  H     
34   H        50.1638  -30.7907  -95.9720  H     
35   H        49.8705  -32.3020  -94.1320  H     
36   H        47.9783  -31.0529  -90.6985  H     
37   H        47.6615  -32.7653  -90.4616  H     
38   H        50.1312  -33.0565  -91.5421  H     
39   H        50.2630  -31.3719  -91.0605  H     
40   H        49.7434  -32.0373  -88.7856  H     
41   H        48.3654  -33.9769  -89.0804  H     
42   H        49.7043  -34.3128  -87.9967  H     
43   H        49.7717  -34.8717  -89.6807  H     
44   H        52.0594  -33.5338  -89.8221  H     
45   H        51.7768  -33.0737  -88.1281  H     
46   H        52.0095  -31.8243  -89.3379  H     
47   H        50.5581  -33.2688  -99.5715  H     
48   H        50.7080  -30.9310  -99.1000  H     
49   H        46.8498  -31.0577  -97.3534  H     
50   H        46.7354  -33.4163  -97.8213  H     
51   H        48.5831  -34.5424  -98.9287  H     
52   H        49.2748  -27.4010  -98.8199  H     
53   H        50.1512  -28.7023  -99.4896  H     
54   H        49.8833  -27.0604  -95.2066  H     
55   H        49.2762  -24.8032  -94.6473  H     
56   H        45.9127  -25.0624  -97.1662  H     
57   H        46.4614  -27.3363  -97.6694  H     
58   H        47.2036  -23.4489  -94.5467  H     
59   H        47.5104  -27.5924 -100.2881  H     
60   H        48.8131  -28.2392 -101.2583  H     
61   H        47.1943  -29.7801 -101.7557  H     
62   H        47.9400  -30.6015 -100.3790  H     
@<TRIPOS>BOND
     1    1    2 2
     2    1    6 1
     3    1    7 1
     4    2    3 1
     5    3    4 2
     6    4    5 1
     7    4   13 1
     8    5    6 2
     9    7    8 1
    10    8    9 1
    11    9   10 1
    12   10   11 1
    13   10   12 1
    14   13   14 2
    15   13   22 1
    16   14   15 1
    17   14   21 1
    18   15   17 2
    19   15   18 1
    20   16   17 1
    21   16   20 2
    22   18   19 2
    23   19   20 1
    24   21   29 1
    25   22   23 1
    26   22   27 2
    27   23   24 2
    28   24   25 1
    29   25   26 2
    30   25   28 1
    31   26   27 1
    32   29   30 1
    33   30   31 1
    34    2   32 1
    35    3   33 1
    36    5   34 1
    37    6   35 1
    38    8   36 1
    39    8   37 1
    40    9   38 1
    41    9   39 1
    42   10   40 1
    43   11   41 1
    44   11   42 1
    45   11   43 1
    46   12   44 1
    47   12   45 1
    48   12   46 1
    49   16   47 1
    50   17   48 1
    51   18   49 1
    52   19   50 1
    53   20   51 1
    54   21   52 1
    55   21   53 1
    56   23   54 1
    57   24   55 1
    58   26   56 1
    59   27   57 1
    60   28   58 1
    61   29   59 1
    62   29   60 1
    63   30   61 1
    64   30   62 1
@<TRIPOS>PROPERTY_DATA
  Total_Score	| 12.2855
  Crash		| -2.3045
  Polar		| 5.0402
  FragIndex	| 1
  FragRMSD	| 0.348

