@<TRIPOS>MOLECULE
BindingDB_22436
 66 68 0 0 0
SMALL
NO_CHARGES


@<TRIPOS>ATOM
1    C        48.6973  -31.0320  -93.1042  C     
2    C        47.5635  -30.2400  -93.3672  C     
3    C        47.4759  -29.4943  -94.5581  C     
4    C        48.5193  -29.5297  -95.5215  C     
5    C        49.6651  -30.3182  -95.2340  C     
6    C        49.7390  -31.0773  -94.0522  C     
7    O        48.7546  -31.8390  -92.0037  O     
8    C        49.5304  -31.3061  -90.9092  C     
9    C        50.3522  -32.4591  -90.2826  C     
10   N        49.8320  -32.9578  -88.9719  N     
11   C        48.4079  -33.4278  -88.9769  C     
12   C        50.7300  -33.9992  -88.3749  C     
13   C        48.4651  -28.7653  -96.7108  C     
14   C        48.7265  -29.3031  -97.9442  C     
15   C        48.6278  -30.7047  -98.1750  C     
16   C        49.3650  -32.8030  -99.2548  C     
17   C        49.5509  -31.4365  -98.9687  C     
18   C        47.5358  -31.4332  -97.6353  C     
19   C        47.3322  -32.7920  -97.9256  C     
20   C        48.2447  -33.4763  -98.7423  C     
21   C        49.1638  -28.4361  -99.0648  C     
22   C        48.1717  -27.4024  -96.5128  C     
23   C        49.0052  -26.6089  -95.6930  C     
24   C        48.6468  -25.2856  -95.3687  C     
25   C        47.4485  -24.7367  -95.8674  C     
26   C        46.6312  -25.5097  -96.7159  C     
27   C        46.9711  -26.8426  -97.0082  C     
28   O        47.0842  -23.4718  -95.5353  O     
29   C        48.2818  -28.3887 -100.3373  C     
30   C        47.3776  -29.6122 -100.6778  C     
31   C        45.9644  -29.5614 -100.0418  C     
32   O        45.0039  -30.1583 -100.9063  O     
33   H        46.7859  -30.2186  -92.6916  H     
34   H        46.6345  -28.9368  -94.7219  H     
35   H        50.4542  -30.3500  -95.8831  H     
36   H        50.5563  -31.6775  -93.8801  H     
37   H        50.2225  -30.5158  -91.2134  H     
38   H        48.8537  -30.8828  -90.1559  H     
39   H        50.4428  -33.2783  -91.0092  H     
40   H        51.3618  -32.0780  -90.0892  H     
41   H        49.8663  -32.1528  -88.3347  H     
42   H        47.7546  -32.5959  -89.2369  H     
43   H        48.1143  -33.7868  -87.9902  H     
44   H        48.2557  -34.2293  -89.7001  H     
45   H        50.7457  -34.9061  -88.9955  H     
46   H        50.4061  -34.2724  -87.3720  H     
47   H        51.7569  -33.6220  -88.3036  H     
48   H        50.0404  -33.2999  -99.8431  H     
49   H        50.3961  -30.9924  -99.3389  H     
50   H        46.8457  -30.9649  -97.0455  H     
51   H        46.5215  -33.2802  -97.5467  H     
52   H        48.0941  -34.4629  -98.9615  H     
53   H        49.2782  -27.4022  -98.7346  H     
54   H        50.1659  -28.7015  -99.3913  H     
55   H        49.8785  -26.9874  -95.3105  H     
56   H        49.2545  -24.7221  -94.7580  H     
57   H        45.7600  -25.1161  -97.0839  H     
58   H        46.3271  -27.4102  -97.5560  H     
59   H        47.1477  -23.4254  -94.5542  H     
60   H        47.6771  -27.4786 -100.3370  H     
61   H        48.9692  -28.2829 -101.1815  H     
62   H        47.2422  -29.6462 -101.7613  H     
63   H        47.8668  -30.5525 -100.3976  H     
64   H        45.9429  -30.0935  -99.0890  H     
65   H        45.6575  -28.5288  -99.8634  H     
66   H        44.7649  -29.4390 -101.5290  H     
@<TRIPOS>BOND
     1    1    2 2
     2    1    6 1
     3    1    7 1
     4    2    3 1
     5    3    4 2
     6    4    5 1
     7    4   13 1
     8    5    6 2
     9    7    8 1
    10    8    9 1
    11    9   10 1
    12   10   11 1
    13   10   12 1
    14   13   14 2
    15   13   22 1
    16   14   15 1
    17   14   21 1
    18   15   17 2
    19   15   18 1
    20   16   17 1
    21   16   20 2
    22   18   19 2
    23   19   20 1
    24   21   29 1
    25   22   23 1
    26   22   27 2
    27   23   24 2
    28   24   25 1
    29   25   26 2
    30   25   28 1
    31   26   27 1
    32   29   30 1
    33   30   31 1
    34   31   32 1
    35    2   33 1
    36    3   34 1
    37    5   35 1
    38    6   36 1
    39    8   37 1
    40    8   38 1
    41    9   39 1
    42    9   40 1
    43   10   41 1
    44   11   42 1
    45   11   43 1
    46   11   44 1
    47   12   45 1
    48   12   46 1
    49   12   47 1
    50   16   48 1
    51   17   49 1
    52   18   50 1
    53   19   51 1
    54   20   52 1
    55   21   53 1
    56   21   54 1
    57   23   55 1
    58   24   56 1
    59   26   57 1
    60   27   58 1
    61   28   59 1
    62   29   60 1
    63   29   61 1
    64   30   62 1
    65   30   63 1
    66   31   64 1
    67   31   65 1
    68   32   66 1
@<TRIPOS>PROPERTY_DATA
  Total_Score	| 12.1195
  Crash		| -3.3384
  Polar		| 5.2276
  FragIndex	| 1
  FragRMSD	| 0.384

