@<TRIPOS>MOLECULE
BindingDB_22434
 60 62 0 0 0
SMALL
NO_CHARGES


@<TRIPOS>ATOM
1    C        48.3655  -31.3269  -93.3049  C     
2    C        47.3901  -30.3139  -93.4522  C     
3    C        47.3690  -29.4953  -94.6032  C     
4    C        48.3314  -29.6515  -95.6371  C     
5    C        49.3478  -30.6275  -95.4417  C     
6    C        49.3424  -31.4830  -94.3083  C     
7    O        48.3221  -32.1719  -92.2347  O     
8    C        48.3497  -31.5273  -90.9420  C     
9    C        48.4704  -32.6063  -89.8448  C     
10   N        49.8485  -32.8320  -89.3030  N     
11   C        49.9054  -34.0081  -88.3839  C     
12   C        50.9136  -32.9184  -90.3510  C     
13   C        48.3266  -28.8409  -96.7939  C     
14   C        48.5253  -29.3466  -98.0465  C     
15   C        48.4518  -30.7167  -98.3021  C     
16   C        47.2650  -32.8531  -98.0351  C     
17   C        47.3645  -31.4680  -97.7962  C     
18   C        49.4308  -31.3893  -99.0723  C     
19   C        49.3366  -32.7759  -99.3224  C     
20   C        48.2469  -33.5080  -98.8013  C     
21   C        48.8325  -28.5089  -99.2314  C     
22   C        48.0788  -27.4769  -96.5412  C     
23   C        46.9314  -26.8256  -97.0744  C     
24   C        46.6628  -25.4722  -96.7593  C     
25   C        47.5114  -24.7628  -95.8814  C     
26   C        48.6530  -25.4035  -95.3563  C     
27   C        48.9277  -26.7438  -95.6815  C     
28   O        47.2347  -23.4728  -95.5773  O     
29   C        47.6988  -28.4024 -100.3083  C     
30   O        48.1916  -28.7536 -101.6080  O     
31   H        46.6878  -30.1775  -92.7170  H     
32   H        46.6092  -28.8152  -94.6844  H     
33   H        50.1097  -30.7538  -96.1020  H     
34   H        50.0613  -32.2190  -94.2376  H     
35   H        49.2035  -30.8462  -90.8852  H     
36   H        47.4256  -30.9379  -90.7871  H     
37   H        47.8081  -32.2848  -89.0355  H     
38   H        48.0816  -33.5534  -90.2341  H     
39   H        50.0735  -32.0145  -88.7295  H     
40   H        49.1822  -33.8936  -87.5680  H     
41   H        50.8982  -34.0875  -87.9211  H     
42   H        49.6881  -34.9387  -88.9225  H     
43   H        50.7064  -33.7322  -91.0551  H     
44   H        51.8965  -33.0916  -89.8938  H     
45   H        50.9821  -31.9778  -90.9041  H     
46   H        46.4814  -33.3973  -97.6428  H     
47   H        46.6150  -31.0216  -97.2753  H     
48   H        50.2421  -30.8981  -99.4488  H     
49   H        50.0558  -33.2499  -99.8801  H     
50   H        48.1956  -34.5236  -98.9566  H     
51   H        49.0766  -27.4696  -98.9672  H     
52   H        49.7567  -28.8782  -99.7106  H     
53   H        46.2805  -27.3281  -97.6791  H     
54   H        45.8335  -25.0233  -97.1513  H     
55   H        49.2655  -24.9028  -94.7127  H     
56   H        49.7647  -27.1856  -95.2858  H     
57   H        47.2246  -23.4364  -94.5964  H     
58   H        46.8818  -29.1079 -100.1148  H     
59   H        47.2773  -27.3743 -100.3639  H     
60   H        48.6355  -27.9433 -101.9329  H     
@<TRIPOS>BOND
     1    1    2 2
     2    1    6 1
     3    1    7 1
     4    2    3 1
     5    3    4 2
     6    4    5 1
     7    4   13 1
     8    5    6 2
     9    7    8 1
    10    8    9 1
    11    9   10 1
    12   10   11 1
    13   10   12 1
    14   13   14 2
    15   13   22 1
    16   14   15 1
    17   14   21 1
    18   15   17 2
    19   15   18 1
    20   16   17 1
    21   16   20 2
    22   18   19 2
    23   19   20 1
    24   21   29 1
    25   22   23 1
    26   22   27 2
    27   23   24 2
    28   24   25 1
    29   25   26 2
    30   25   28 1
    31   26   27 1
    32   29   30 1
    33    2   31 1
    34    3   32 1
    35    5   33 1
    36    6   34 1
    37    8   35 1
    38    8   36 1
    39    9   37 1
    40    9   38 1
    41   10   39 1
    42   11   40 1
    43   11   41 1
    44   11   42 1
    45   12   43 1
    46   12   44 1
    47   12   45 1
    48   16   46 1
    49   17   47 1
    50   18   48 1
    51   19   49 1
    52   20   50 1
    53   21   51 1
    54   21   52 1
    55   23   53 1
    56   24   54 1
    57   26   55 1
    58   27   56 1
    59   28   57 1
    60   29   58 1
    61   29   59 1
    62   30   60 1
@<TRIPOS>PROPERTY_DATA
  Total_Score	| 13.1634
  Crash		| -1.4027
  Polar		| 6.7627
  FragIndex	| 1
  FragRMSD	| 0.251

