@<TRIPOS>MOLECULE
BindingDB_22426
 63 65 0 0 0
SMALL
NO_CHARGES


@<TRIPOS>ATOM
1    C        48.2859  -31.2017  -93.3625  C     
2    C        47.2953  -30.2099  -93.5487  C     
3    C        47.2155  -29.4832  -94.7469  C     
4    C        48.1348  -29.7178  -95.8022  C     
5    C        49.1281  -30.7070  -95.6116  C     
6    C        49.2031  -31.4394  -94.4082  C     
7    O        48.3079  -32.0284  -92.2623  O     
8    C        48.2592  -31.4094  -90.9594  C     
9    C        48.3298  -32.4880  -89.8481  C     
10   N        49.7079  -32.7970  -89.3321  N     
11   C        49.7230  -34.0370  -88.5027  C     
12   C        50.7623  -32.8297  -90.3903  C     
13   C        48.0715  -28.9449  -96.9836  C     
14   C        48.0942  -29.4873  -98.2415  C     
15   C        48.2129  -30.8712  -98.4284  C     
16   C        47.2349  -33.1077  -98.2293  C     
17   C        47.1585  -31.7187  -98.0045  C     
18   C        49.3302  -31.4400  -99.1042  C     
19   C        49.4010  -32.8326  -99.3163  C     
20   C        48.3553  -33.6662  -98.8803  C     
21   C        47.8787  -28.7206  -99.4916  C     
22   C        47.9279  -27.5713  -96.7222  C     
23   C        46.7890  -26.8655  -97.1759  C     
24   C        46.5815  -25.5200  -96.8199  C     
25   C        47.4850  -24.8631  -95.9646  C     
26   C        48.6073  -25.5620  -95.4780  C     
27   C        48.8354  -26.8965  -95.8642  C     
28   O        47.2614  -23.5635  -95.6131  O     
29   C        49.0382  -28.7562 -100.5228  C     
30   C        50.3703  -28.1838  -99.9522  C     
31   C        51.1788  -27.7434 -100.9699  C     
32   N        51.8017  -27.3705 -101.8660  N     
33   H        46.6184  -30.0192  -92.8101  H     
34   H        46.4657  -28.7911  -94.8417  H     
35   H        49.8075  -30.8961  -96.3540  H     
36   H        49.9316  -32.1540  -94.2961  H     
37   H        49.0971  -30.7128  -90.8488  H     
38   H        47.3143  -30.8605  -90.8416  H     
39   H        47.7388  -32.1116  -89.0105  H     
40   H        47.8416  -33.4046  -90.1965  H     
41   H        49.9483  -32.0305  -88.6969  H     
42   H        48.9615  -33.9946  -87.7171  H     
43   H        50.6916  -34.1525  -88.0049  H     
44   H        49.5408  -34.9252  -89.1150  H     
45   H        50.5186  -33.5602  -91.1666  H     
46   H        51.7392  -33.0865  -89.9651  H     
47   H        50.8605  -31.8451  -90.8525  H     
48   H        46.4679  -33.7153  -97.9260  H     
49   H        46.3369  -31.3384  -97.5174  H     
50   H        50.1049  -30.8549  -99.4458  H     
51   H        50.2119  -33.2306  -99.7917  H     
52   H        48.3999  -34.6784  -99.0415  H     
53   H        46.9720  -29.0996  -99.9809  H     
54   H        47.6834  -27.6640  -99.3086  H     
55   H        46.0924  -27.3332  -97.7629  H     
56   H        45.7603  -25.0262  -97.1778  H     
57   H        49.2622  -25.0926  -94.8457  H     
58   H        49.6645  -27.3786  -95.5003  H     
59   H        47.2145  -23.5559  -94.6351  H     
60   H        49.1813  -29.7775 -100.8777  H     
61   H        48.7129  -28.1747 -101.3886  H     
62   H        50.1519  -27.3368  -99.3035  H     
63   H        50.8866  -28.9510  -99.3618  H     
@<TRIPOS>BOND
     1    1    2 2
     2    1    6 1
     3    1    7 1
     4    2    3 1
     5    3    4 2
     6    4    5 1
     7    4   13 1
     8    5    6 2
     9    7    8 1
    10    8    9 1
    11    9   10 1
    12   10   11 1
    13   10   12 1
    14   13   14 2
    15   13   22 1
    16   14   15 1
    17   14   21 1
    18   15   17 2
    19   15   18 1
    20   16   17 1
    21   16   20 2
    22   18   19 2
    23   19   20 1
    24   21   29 1
    25   22   23 1
    26   22   27 2
    27   23   24 2
    28   24   25 1
    29   25   26 2
    30   25   28 1
    31   26   27 1
    32   29   30 1
    33   30   31 1
    34   31   32 3
    35    2   33 1
    36    3   34 1
    37    5   35 1
    38    6   36 1
    39    8   37 1
    40    8   38 1
    41    9   39 1
    42    9   40 1
    43   10   41 1
    44   11   42 1
    45   11   43 1
    46   11   44 1
    47   12   45 1
    48   12   46 1
    49   12   47 1
    50   16   48 1
    51   17   49 1
    52   18   50 1
    53   19   51 1
    54   20   52 1
    55   21   53 1
    56   21   54 1
    57   23   55 1
    58   24   56 1
    59   26   57 1
    60   27   58 1
    61   28   59 1
    62   29   60 1
    63   29   61 1
    64   30   62 1
    65   30   63 1
@<TRIPOS>PROPERTY_DATA
  Total_Score	| 12.0148
  Crash		| -2.5459
  Polar		| 5.7299
  FragIndex	| 1
  FragRMSD	| 0.293

