@<TRIPOS>MOLECULE
BindingDB_22423
 59 61 0 0 0
SMALL
NO_CHARGES


@<TRIPOS>ATOM
1    C        48.5299  -31.1557  -93.2195  C     
2    C        49.5642  -31.2214  -94.1741  C     
3    C        49.5072  -30.4505  -95.3503  C     
4    C        48.4093  -29.5896  -95.6135  C     
5    C        47.3730  -29.5391  -94.6465  C     
6    C        47.4305  -30.3115  -93.4731  C     
7    O        48.5875  -31.9961  -92.1334  O     
8    C        48.4960  -31.4013  -90.8174  C     
9    C        48.5570  -32.5119  -89.7290  C     
10   N        49.9271  -32.8392  -89.2132  N     
11   C        49.9325  -34.0722  -88.3611  C     
12   C        50.9865  -32.9060  -90.2658  C     
13   C        48.3566  -28.7973  -96.7910  C     
14   C        48.5356  -29.3014  -98.0515  C     
15   C        48.4682  -30.6979  -98.2889  C     
16   C        49.3124  -32.7581  -99.3538  C     
17   C        49.4261  -31.3821  -99.0838  C     
18   C        47.3939  -31.4669  -97.7589  C     
19   C        47.2887  -32.8455  -98.0056  C     
20   C        48.2423  -33.4963  -98.8057  C     
21   C        48.7616  -28.4315  -99.2342  C     
22   C        48.0905  -27.4366  -96.5510  C     
23   C        46.9222  -26.8202  -97.0707  C     
24   C        46.6171  -25.4836  -96.7568  C     
25   C        47.4408  -24.7527  -95.8846  C     
26   C        48.5980  -25.3567  -95.3506  C     
27   C        48.9249  -26.6806  -95.6909  C     
28   O        47.1205  -23.4735  -95.5530  O     
29   C        47.5446  -28.1884 -100.1758  C     
30   Cl       46.1444  -29.2424  -99.9580  Cl    
31   H        50.3633  -31.8432  -94.0126  H     
32   H        50.2860  -30.5090  -96.0170  H     
33   H        46.5527  -28.9456  -94.7972  H     
34   H        46.6595  -30.2621  -92.8145  H     
35   H        49.3163  -30.6901  -90.6600  H     
36   H        47.5443  -30.8736  -90.7173  H     
37   H        47.9598  -32.1586  -88.8842  H     
38   H        48.0726  -33.4177  -90.1105  H     
39   H        50.1729  -32.0715  -88.5836  H     
40   H        49.1660  -34.0191  -87.5827  H     
41   H        50.8962  -34.1811  -87.8614  H     
42   H        49.7527  -34.9706  -88.9640  H     
43   H        50.7266  -33.6494  -91.0327  H     
44   H        51.9563  -33.1613  -89.8255  H     
45   H        51.0981  -31.9315  -90.7433  H     
46   H        50.0057  -33.2266  -99.9434  H     
47   H        50.2357  -30.8912  -99.4695  H     
48   H        46.6600  -31.0194  -97.2034  H     
49   H        46.5028  -33.3810  -97.6205  H     
50   H        48.1529  -34.4924  -99.0074  H     
51   H        49.1554  -27.4573  -98.9335  H     
52   H        49.5521  -28.8466  -99.8530  H     
53   H        46.2690  -27.3500  -97.6467  H     
54   H        45.7748  -25.0495  -97.1459  H     
55   H        49.2027  -24.8309  -94.7105  H     
56   H        49.7676  -27.1024  -95.2857  H     
57   H        47.1989  -23.4229  -94.5773  H     
58   H        47.2058  -27.1561 -100.0974  H     
59   H        47.8754  -28.3108 -101.2076  H     
@<TRIPOS>BOND
     1    1    2 2
     2    1    6 1
     3    1    7 1
     4    2    3 1
     5    3    4 2
     6    4    5 1
     7    4   13 1
     8    5    6 2
     9    7    8 1
    10    8    9 1
    11    9   10 1
    12   10   11 1
    13   10   12 1
    14   13   14 2
    15   13   22 1
    16   14   15 1
    17   14   21 1
    18   15   17 2
    19   15   18 1
    20   16   17 1
    21   16   20 2
    22   18   19 2
    23   19   20 1
    24   21   29 1
    25   22   23 1
    26   22   27 2
    27   23   24 2
    28   24   25 1
    29   25   26 2
    30   25   28 1
    31   26   27 1
    32   29   30 1
    33    2   31 1
    34    3   32 1
    35    5   33 1
    36    6   34 1
    37    8   35 1
    38    8   36 1
    39    9   37 1
    40    9   38 1
    41   10   39 1
    42   11   40 1
    43   11   41 1
    44   11   42 1
    45   12   43 1
    46   12   44 1
    47   12   45 1
    48   16   46 1
    49   17   47 1
    50   18   48 1
    51   19   49 1
    52   20   50 1
    53   21   51 1
    54   21   52 1
    55   23   53 1
    56   24   54 1
    57   26   55 1
    58   27   56 1
    59   28   57 1
    60   29   58 1
    61   29   59 1
@<TRIPOS>PROPERTY_DATA
  Total_Score	| 12.5427
  Crash		| -1.4699
  Polar		| 5.2322
  FragIndex	| 1
  FragRMSD	| 0.344

