@<TRIPOS>MOLECULE
BindingDB_22425
 60 62 0 0 0
SMALL
NO_CHARGES


@<TRIPOS>ATOM
1    C        48.3500  -31.1936  -93.2193  C     
2    C        47.3208  -30.2598  -93.4587  C     
3    C        47.3120  -29.4967  -94.6456  C     
4    C        48.3196  -29.6557  -95.6349  C     
5    C        49.3506  -30.5965  -95.3741  C     
6    C        49.3560  -31.3608  -94.1883  C     
7    O        48.3527  -32.0522  -92.1509  O     
8    C        48.1729  -31.5024  -90.8328  C     
9    C        48.3922  -32.6292  -89.7814  C     
10   N        49.8115  -32.8311  -89.3270  N     
11   C        49.9513  -34.0463  -88.4641  C     
12   C        50.8241  -32.8325  -90.4251  C     
13   C        48.3262  -28.8661  -96.8123  C     
14   C        48.5619  -29.3841  -98.0590  C     
15   C        48.4494  -30.7731  -98.3144  C     
16   C        49.2190  -32.8470  -99.4180  C     
17   C        49.3850  -31.4795  -99.1292  C     
18   C        47.3637  -31.5157  -97.7852  C     
19   C        47.2108  -32.8913  -98.0552  C     
20   C        48.1366  -33.5556  -98.8730  C     
21   C        48.8900  -28.5223  -99.2265  C     
22   C        48.0649  -27.5000  -96.5893  C     
23   C        46.9158  -26.8737  -97.1336  C     
24   C        46.6009  -25.5390  -96.8211  C     
25   C        47.4089  -24.8102  -95.9241  C     
26   C        48.5541  -25.4174  -95.3765  C     
27   C        48.8837  -26.7426  -95.7105  C     
28   O        47.0761  -23.5401  -95.5956  O     
29   C        47.7981  -28.3267 -100.3288  C     
30   C        46.7561  -29.2115 -100.3157  C     
31   N        45.8560  -29.9340 -100.3180  N     
32   H        46.5687  -30.1336  -92.7791  H     
33   H        46.5421  -28.8327  -94.7926  H     
34   H        50.1120  -30.7285  -96.0434  H     
35   H        50.1020  -32.0454  -94.0333  H     
36   H        48.8924  -30.6951  -90.6419  H     
37   H        47.1497  -31.1149  -90.7366  H     
38   H        47.8023  -32.3678  -88.8997  H     
39   H        47.9838  -33.5662  -90.1773  H     
40   H        50.0277  -32.0292  -88.7288  H     
41   H        49.2261  -34.0343  -87.6457  H     
42   H        50.9496  -34.0789  -88.0143  H     
43   H        49.8058  -34.9642  -89.0448  H     
44   H        50.5973  -33.6035  -91.1688  H     
45   H        51.8314  -33.0078  -90.0282  H     
46   H        50.8386  -31.8566  -90.9203  H     
47   H        49.8971  -33.3302 -100.0159  H     
48   H        50.2028  -31.0056  -99.5191  H     
49   H        46.6497  -31.0520  -97.2234  H     
50   H        46.4196  -33.4041  -97.6596  H     
51   H        48.0273  -34.5540  -99.0647  H     
52   H        49.1975  -27.5269  -98.8977  H     
53   H        49.7904  -28.9022  -99.7137  H     
54   H        46.2771  -27.4016  -97.7383  H     
55   H        45.7657  -25.1049  -97.2230  H     
56   H        49.1460  -24.8985  -94.7227  H     
57   H        49.7187  -27.1632  -95.2885  H     
58   H        47.0976  -23.4915  -94.6156  H     
59   H        47.3710  -27.3218 -100.2368  H     
60   H        48.2724  -28.3886 -101.3157  H     
@<TRIPOS>BOND
     1    1    2 2
     2    1    6 1
     3    1    7 1
     4    2    3 1
     5    3    4 2
     6    4    5 1
     7    4   13 1
     8    5    6 2
     9    7    8 1
    10    8    9 1
    11    9   10 1
    12   10   11 1
    13   10   12 1
    14   13   14 2
    15   13   22 1
    16   14   15 1
    17   14   21 1
    18   15   17 2
    19   15   18 1
    20   16   17 1
    21   16   20 2
    22   18   19 2
    23   19   20 1
    24   21   29 1
    25   22   23 1
    26   22   27 2
    27   23   24 2
    28   24   25 1
    29   25   26 2
    30   25   28 1
    31   26   27 1
    32   29   30 1
    33   30   31 3
    34    2   32 1
    35    3   33 1
    36    5   34 1
    37    6   35 1
    38    8   36 1
    39    8   37 1
    40    9   38 1
    41    9   39 1
    42   10   40 1
    43   11   41 1
    44   11   42 1
    45   11   43 1
    46   12   44 1
    47   12   45 1
    48   12   46 1
    49   16   47 1
    50   17   48 1
    51   18   49 1
    52   19   50 1
    53   20   51 1
    54   21   52 1
    55   21   53 1
    56   23   54 1
    57   24   55 1
    58   26   56 1
    59   27   57 1
    60   28   58 1
    61   29   59 1
    62   29   60 1
@<TRIPOS>PROPERTY_DATA
  Total_Score	| 12.8436
  Crash		| -1.3634
  Polar		| 5.0656
  FragIndex	| 1
  FragRMSD	| 0.206

