@<TRIPOS>MOLECULE
BindingDB_22429
 66 68 0 0 0
SMALL
NO_CHARGES


@<TRIPOS>ATOM
1    C        48.0865  -31.3567  -93.1083  C     
2    C        49.0769  -31.6044  -94.0857  C     
3    C        49.1664  -30.8021  -95.2281  C     
4    C        48.2642  -29.7212  -95.4418  C     
5    C        47.2894  -29.4687  -94.4404  C     
6    C        47.2003  -30.2696  -93.2962  C     
7    O        47.9757  -32.2419  -92.0734  O     
8    C        47.8902  -31.6811  -90.7456  C     
9    C        48.2871  -32.7616  -89.7067  C     
10   N        49.7497  -32.8165  -89.3710  N     
11   C        50.1179  -34.1027  -88.7029  C     
12   C        50.6680  -32.5135  -90.5059  C     
13   C        48.3651  -28.9351  -96.6045  C     
14   C        48.8053  -29.4445  -97.7987  C     
15   C        48.7702  -30.8373  -98.0619  C     
16   C        49.8433  -32.9047  -98.8712  C     
17   C        49.8950  -31.5270  -98.5856  C     
18   C        47.5976  -31.5970  -97.8116  C     
19   C        47.5345  -32.9700  -98.1153  C     
20   C        48.6605  -33.6303  -98.6396  C     
21   C        49.4297  -28.5529  -98.8089  C     
22   C        48.1458  -27.5736  -96.3731  C     
23   C        49.1723  -26.7535  -95.8476  C     
24   C        48.9356  -25.3940  -95.5632  C     
25   C        47.6725  -24.8196  -95.8172  C     
26   C        46.6494  -25.6283  -96.3462  C     
27   C        46.8779  -26.9961  -96.6064  C     
28   O        47.4353  -23.5102  -95.5631  O     
29   C        49.5116  -28.9336 -100.3186  C     
30   C        48.1795  -28.9124 -101.1182  C     
31   S        46.8216  -29.8470 -100.3614  S     
32   C        46.1360  -28.5491  -99.3117  C     
33   H        49.7354  -32.3744  -93.9643  H     
34   H        49.9064  -30.9928  -95.9032  H     
35   H        46.6162  -28.6994  -94.5568  H     
36   H        46.4732  -30.0821  -92.6116  H     
37   H        48.5616  -30.8249  -90.6293  H     
38   H        46.8537  -31.3663  -90.5699  H     
39   H        47.7463  -32.5288  -88.7826  H     
40   H        47.9333  -33.7435  -90.0469  H     
41   H        49.9044  -32.0822  -88.6735  H     
42   H        49.4941  -34.2731  -87.8221  H     
43   H        51.1542  -34.0710  -88.3628  H     
44   H        49.9989  -34.9473  -89.3847  H     
45   H        50.4964  -33.1938  -91.3409  H     
46   H        51.7128  -32.6040  -90.1962  H     
47   H        50.5115  -31.4878  -90.8418  H     
48   H        50.6662  -33.3822  -99.2478  H     
49   H        50.7861  -31.0414  -98.7317  H     
50   H        46.7617  -31.1486  -97.4421  H     
51   H        46.6695  -33.4940  -97.9536  H     
52   H        48.6193  -34.6324  -98.8498  H     
53   H        48.9509  -27.5697  -98.7986  H     
54   H        50.4596  -28.3806  -98.4668  H     
55   H        50.1016  -27.1414  -95.6500  H     
56   H        49.6864  -24.8148  -95.1789  H     
57   H        45.7193  -25.2232  -96.5272  H     
58   H        46.1025  -27.5632  -96.9361  H     
59   H        47.3269  -23.4528  -94.5796  H     
60   H        50.1704  -28.1960 -100.8017  H     
61   H        49.9877  -29.9079 -100.4518  H     
62   H        47.8728  -27.8798 -101.3037  H     
63   H        48.3614  -29.3774 -102.0848  H     
64   H        46.9255  -28.1443  -98.6771  H     
65   H        45.3629  -28.9718  -98.6684  H     
66   H        45.7212  -27.7507  -99.9290  H     
@<TRIPOS>BOND
     1    1    2 2
     2    1    6 1
     3    1    7 1
     4    2    3 1
     5    3    4 2
     6    4    5 1
     7    4   13 1
     8    5    6 2
     9    7    8 1
    10    8    9 1
    11    9   10 1
    12   10   11 1
    13   10   12 1
    14   13   14 2
    15   13   22 1
    16   14   15 1
    17   14   21 1
    18   15   17 2
    19   15   18 1
    20   16   17 1
    21   16   20 2
    22   18   19 2
    23   19   20 1
    24   21   29 1
    25   22   23 1
    26   22   27 2
    27   23   24 2
    28   24   25 1
    29   25   26 2
    30   25   28 1
    31   26   27 1
    32   29   30 1
    33   30   31 1
    34   31   32 1
    35    2   33 1
    36    3   34 1
    37    5   35 1
    38    6   36 1
    39    8   37 1
    40    8   38 1
    41    9   39 1
    42    9   40 1
    43   10   41 1
    44   11   42 1
    45   11   43 1
    46   11   44 1
    47   12   45 1
    48   12   46 1
    49   12   47 1
    50   16   48 1
    51   17   49 1
    52   18   50 1
    53   19   51 1
    54   20   52 1
    55   21   53 1
    56   21   54 1
    57   23   55 1
    58   24   56 1
    59   26   57 1
    60   27   58 1
    61   28   59 1
    62   29   60 1
    63   29   61 1
    64   30   62 1
    65   30   63 1
    66   32   64 1
    67   32   65 1
    68   32   66 1
@<TRIPOS>PROPERTY_DATA
  Total_Score	| 10.4833
  Crash		| -3.9410
  Polar		| 5.0124
  FragIndex	| 1
  FragRMSD	| 0.527

