@<TRIPOS>MOLECULE
BindingDB_22427
 62 64 0 0 0
SMALL
NO_CHARGES


@<TRIPOS>ATOM
1    C        48.2928  -31.2590  -93.2681  C     
2    C        47.3034  -30.2840  -93.4986  C     
3    C        47.3113  -29.5255  -94.6830  C     
4    C        48.3190  -29.7056  -95.6689  C     
5    C        49.3089  -30.6923  -95.4214  C     
6    C        49.2919  -31.4626  -94.2424  C     
7    O        48.2163  -32.1102  -92.2002  O     
8    C        48.0680  -31.5129  -90.8901  C     
9    C        48.2706  -32.6286  -89.8201  C     
10   N        49.6933  -32.7901  -89.3754  N     
11   C        49.9099  -34.0275  -88.5658  C     
12   C        50.6858  -32.6857  -90.4868  C     
13   C        48.3536  -28.9086  -96.8367  C     
14   C        48.6215  -29.4127  -98.0843  C     
15   C        48.4981  -30.7987  -98.3553  C     
16   C        49.2349  -32.8640  -99.4927  C     
17   C        49.4070  -31.4989  -99.1966  C     
18   C        47.4172  -31.5449  -97.8170  C     
19   C        47.2415  -32.9117  -98.1070  C     
20   C        48.1471  -33.5708  -98.9493  C     
21   C        49.0214  -28.5371  -99.2228  C     
22   C        48.1214  -27.5372  -96.6073  C     
23   C        49.0093  -26.7863  -95.8014  C     
24   C        48.7194  -25.4549  -95.4510  C     
25   C        47.5419  -24.8425  -95.9170  C     
26   C        46.6601  -25.5671  -96.7380  C     
27   C        46.9397  -26.9085  -97.0716  C     
28   O        47.2474  -23.5628  -95.5692  O     
29   C        48.0551  -28.4592 -100.4481  C     
30   N        47.1899  -29.5299 -100.6043  N     
31   N        46.2697  -29.7071  -99.9151  N     
32   N        45.3598  -29.8654  -99.2136  N     
33   H        46.5634  -30.1340  -92.8135  H     
34   H        46.5634  -28.8412  -94.8216  H     
35   H        50.0633  -30.8460  -96.0908  H     
36   H        50.0077  -32.1804  -94.0984  H     
37   H        48.8372  -30.7320  -90.7193  H     
38   H        47.0695  -31.0668  -90.7720  H     
39   H        47.6713  -32.3632  -88.9452  H     
40   H        47.8793  -33.5816  -90.2000  H     
41   H        49.8793  -32.0006  -88.7477  H     
42   H        49.1837  -34.0848  -87.7502  H     
43   H        50.9075  -34.0058  -88.1167  H     
44   H        49.8159  -34.9290  -89.1859  H     
45   H        50.5811  -33.5109  -91.1982  H     
46   H        51.7013  -32.6950  -90.0803  H     
47   H        50.5549  -31.7335  -91.0312  H     
48   H        49.9034  -33.3432 -100.0976  H     
49   H        50.2286  -31.0346  -99.5928  H     
50   H        46.7204  -31.1003  -97.2252  H     
51   H        46.4436  -33.4189  -97.7113  H     
52   H        48.0196  -34.5581  -99.1666  H     
53   H        49.1822  -27.5040  -98.8893  H     
54   H        50.0023  -28.8308  -99.5978  H     
55   H        49.8682  -27.2153  -95.4383  H     
56   H        49.3678  -24.9336  -94.8540  H     
57   H        45.7998  -25.1300  -97.0803  H     
58   H        46.2513  -27.4321  -97.6195  H     
59   H        47.2365  -23.5435  -94.5895  H     
60   H        47.4887  -27.5210 -100.4016  H     
61   H        48.6501  -28.4210 -101.3589  H     
62   H        45.1953  -29.2538  -98.5207  H     
@<TRIPOS>BOND
     1    1    2 2
     2    1    6 1
     3    1    7 1
     4    2    3 1
     5    3    4 2
     6    4    5 1
     7    4   13 1
     8    5    6 2
     9    7    8 1
    10    8    9 1
    11    9   10 1
    12   10   11 1
    13   10   12 1
    14   13   14 2
    15   13   22 1
    16   14   15 1
    17   14   21 1
    18   15   17 2
    19   15   18 1
    20   16   17 1
    21   16   20 2
    22   18   19 2
    23   19   20 1
    24   21   29 1
    25   22   23 1
    26   22   27 2
    27   23   24 2
    28   24   25 1
    29   25   26 2
    30   25   28 1
    31   26   27 1
    32   29   30 1
    33   30   31 2
    34   31   32 2
    35    2   33 1
    36    3   34 1
    37    5   35 1
    38    6   36 1
    39    8   37 1
    40    8   38 1
    41    9   39 1
    42    9   40 1
    43   10   41 1
    44   11   42 1
    45   11   43 1
    46   11   44 1
    47   12   45 1
    48   12   46 1
    49   12   47 1
    50   16   48 1
    51   17   49 1
    52   18   50 1
    53   19   51 1
    54   20   52 1
    55   21   53 1
    56   21   54 1
    57   23   55 1
    58   24   56 1
    59   26   57 1
    60   27   58 1
    61   28   59 1
    62   29   60 1
    63   29   61 1
    64   32   62 1
@<TRIPOS>PROPERTY_DATA
  Total_Score	| 12.7324
  Crash		| -1.8404
  Polar		| 5.0365
  FragIndex	| 1
  FragRMSD	| 0.288

