@<TRIPOS>MOLECULE
BindingDB_22428
 65 67 0 0 0
SMALL
NO_CHARGES


@<TRIPOS>ATOM
1    C        48.3019  -31.2023  -93.2846  C     
2    C        47.3117  -30.2177  -93.4661  C     
3    C        47.3096  -29.4138  -94.6214  C     
4    C        48.2958  -29.5816  -95.6243  C     
5    C        49.2981  -30.5625  -95.4238  C     
6    C        49.2887  -31.3747  -94.2725  C     
7    O        48.2992  -32.0825  -92.2383  O     
8    C        48.0845  -31.5318  -90.9210  C     
9    C        48.2781  -32.6666  -89.8821  C     
10   N        49.6716  -32.8342  -89.3460  N     
11   C        49.8015  -34.0911  -88.5464  C     
12   C        50.7718  -32.7237  -90.3529  C     
13   C        48.3042  -28.7566  -96.7677  C     
14   C        48.6286  -29.2424  -98.0065  C     
15   C        48.4720  -30.6159  -98.2976  C     
16   C        49.3418  -32.7829  -99.0944  C     
17   C        49.5099  -31.4042  -98.8547  C     
18   C        47.2833  -31.2925  -97.9136  C     
19   C        47.1193  -32.6711  -98.1346  C     
20   C        48.1394  -33.4168  -98.7442  C     
21   C        49.1719  -28.3075  -99.0285  C     
22   C        48.0334  -27.3984  -96.5209  C     
23   C        46.8442  -26.8035  -97.0133  C     
24   C        46.5276  -25.4666  -96.7024  C     
25   C        47.3737  -24.7132  -95.8679  C     
26   C        48.5539  -25.2944  -95.3671  C     
27   C        48.8825  -26.6215  -95.6891  C     
28   O        47.0449  -23.4327  -95.5582  O     
29   C        49.6823  -28.7753 -100.4209  C     
30   C        48.6086  -29.0453 -101.5156  C     
31   N        47.5754  -29.8945 -101.1339  N     
32   N        46.7035  -29.6060 -100.4195  N     
33   N        45.8229  -29.3249  -99.7180  N     
34   H        46.5830  -30.0871  -92.7627  H     
35   H        46.5679  -28.7168  -94.7251  H     
36   H        50.0496  -30.6843  -96.1095  H     
37   H        50.0066  -32.0986  -94.1626  H     
38   H        48.7793  -30.7156  -90.6960  H     
39   H        47.0536  -31.1522  -90.8469  H     
40   H        47.6238  -32.4369  -89.0337  H     
41   H        47.9201  -33.6026  -90.3277  H     
42   H        49.8045  -32.0608  -88.6861  H     
43   H        49.0138  -34.1488  -87.7834  H     
44   H        50.7583  -34.1076  -88.0210  H     
45   H        49.7329  -34.9796  -89.1888  H     
46   H        50.6470  -33.4526  -91.1605  H     
47   H        51.7482  -32.8871  -89.8879  H     
48   H        50.7764  -31.7149  -90.7814  H     
49   H        50.1049  -33.3289  -99.4949  H     
50   H        50.4407  -31.0092  -98.9888  H     
51   H        46.5179  -30.7757  -97.4704  H     
52   H        46.2575  -33.1431  -97.8382  H     
53   H        48.0258  -34.4233  -98.8913  H     
54   H        48.4291  -27.5377  -99.2296  H     
55   H        50.0264  -27.8184  -98.5571  H     
56   H        46.1854  -27.3393  -97.5849  H     
57   H        45.6689  -25.0447  -97.0656  H     
58   H        49.1791  -24.7561  -94.7655  H     
59   H        49.7383  -27.0312  -95.3028  H     
60   H        47.1431  -23.3510  -94.5830  H     
61   H        50.3123  -27.9782 -100.8190  H     
62   H        50.3438  -29.6272 -100.3003  H     
63   H        48.2048  -28.0963 -101.8897  H     
64   H        49.1089  -29.5269 -102.3592  H     
65   H        45.9429  -28.6612  -99.0723  H     
@<TRIPOS>BOND
     1    1    2 2
     2    1    6 1
     3    1    7 1
     4    2    3 1
     5    3    4 2
     6    4    5 1
     7    4   13 1
     8    5    6 2
     9    7    8 1
    10    8    9 1
    11    9   10 1
    12   10   11 1
    13   10   12 1
    14   13   14 2
    15   13   22 1
    16   14   15 1
    17   14   21 1
    18   15   17 2
    19   15   18 1
    20   16   17 1
    21   16   20 2
    22   18   19 2
    23   19   20 1
    24   21   29 1
    25   22   23 1
    26   22   27 2
    27   23   24 2
    28   24   25 1
    29   25   26 2
    30   25   28 1
    31   26   27 1
    32   29   30 1
    33   30   31 1
    34   31   32 2
    35   32   33 2
    36    2   34 1
    37    3   35 1
    38    5   36 1
    39    6   37 1
    40    8   38 1
    41    8   39 1
    42    9   40 1
    43    9   41 1
    44   10   42 1
    45   11   43 1
    46   11   44 1
    47   11   45 1
    48   12   46 1
    49   12   47 1
    50   12   48 1
    51   16   49 1
    52   17   50 1
    53   18   51 1
    54   19   52 1
    55   20   53 1
    56   21   54 1
    57   21   55 1
    58   23   56 1
    59   24   57 1
    60   26   58 1
    61   27   59 1
    62   28   60 1
    63   29   61 1
    64   29   62 1
    65   30   63 1
    66   30   64 1
    67   33   65 1
@<TRIPOS>PROPERTY_DATA
  Total_Score	| 11.9388
  Crash		| -2.4566
  Polar		| 5.3177
  FragIndex	| 1
  FragRMSD	| 0.312

