@<TRIPOS>MOLECULE
BindingDB_16654
 33 34 0 0 0
SMALL
NO_CHARGES


@<TRIPOS>ATOM
1    C        -5.4711    2.3116   16.3869  C     
2    C        -4.1085    2.4888   16.0929  C     
3    C        -3.6840    3.6084   15.3614  C     
4    C        -4.6106    4.5607   14.8903  C     
5    C        -5.9792    4.3691   15.1785  C     
6    C        -6.4057    3.2530   15.9188  C     
7    S        -5.9777    0.9923   17.3982  S     
8    O        -6.7055   -0.1051   16.5220  O     
9    O        -4.7995    0.2369   18.1386  O     
10   N        -7.0318    1.5044   18.5789  N     
11   N        -4.0923    5.6310   14.2305  N     
12   O        -5.7451    6.2755   12.8731  O     
13   C        -4.6229    6.4415   13.3211  C     
14   N        -3.8943    7.3995   12.7597  N     
15   C        -2.6129    7.7340   13.1240  C     
16   C        -1.6386    7.9031   12.1078  C     
17   C        -2.2427    7.8993   14.4793  C     
18   C        -0.9127    8.2083   14.8175  C     
19   C         0.0585    8.3288   13.8064  C     
20   C        -0.2999    8.1758   12.4510  C     
21   H        -3.4128    1.8190   16.4232  H     
22   H        -2.6848    3.7193   15.1691  H     
23   H        -6.6731    5.0578   14.8882  H     
24   H        -7.3997    3.1381   16.1173  H     
25   H        -7.9123    1.1135   18.6423  H     
26   H        -6.7242    2.1759   19.2285  H     
27   H        -3.1552    5.7907   14.4290  H     
28   H        -4.2747    7.8639   12.0020  H     
29   H        -1.8940    7.7831   11.1198  H     
30   H        -2.9452    7.7914   15.2208  H     
31   H        -0.6528    8.3369   15.7991  H     
32   H         1.0236    8.5491   14.0471  H     
33   H         0.4086    8.2493   11.7178  H     
@<TRIPOS>BOND
     1    1    2 1
     2    1    6 2
     3    1    7 1
     4    2    3 2
     5    3    4 1
     6    4    5 2
     7    4   11 1
     8    5    6 1
     9    7    8 2
    10    7    9 2
    11    7   10 am
    12   11   13 am
    13   12   13 2
    14   13   14 am
    15   14   15 1
    16   15   16 1
    17   15   17 2
    18   16   20 2
    19   17   18 1
    20   18   19 2
    21   19   20 1
    22    2   21 1
    23    3   22 1
    24    5   23 1
    25    6   24 1
    26   10   25 1
    27   10   26 1
    28   11   27 1
    29   14   28 1
    30   16   29 1
    31   17   30 1
    32   18   31 1
    33   19   32 1
    34   20   33 1
@<TRIPOS>PROPERTY_DATA
  Total_Score	| 5.2789
  Crash		| -2.2424
  Polar		| 3.8877
  FragIndex	| 1
  FragRMSD	| 0.871

