@<TRIPOS>MOLECULE
BindingDB_50334362
 42 43 0 0 0
SMALL
NO_CHARGES


@<TRIPOS>ATOM
1    C        -6.4446    3.4968   15.9838  C     
2    C        -5.9457    4.6226   15.3042  C     
3    C        -4.5720    4.7121   14.9759  C     
4    C        -3.7057    3.6661   15.3669  C     
5    C        -4.2083    2.5277   16.0219  C     
6    C        -5.5825    2.4306   16.3207  C     
7    S        -6.1723    1.0109   17.1334  S     
8    N        -7.8285    1.0144   17.3898  N     
9    O        -5.9129   -0.1883   16.1258  O     
10   O        -5.3299    0.6794   18.4396  O     
11   N        -3.9977    5.7651   14.3212  N     
12   C        -4.4651    6.4955   13.3172  C     
13   N        -3.7503    7.4564   12.7395  N     
14   O        -5.5371    6.2399   12.7897  O     
15   C        -2.5336    7.9573   13.1027  C     
16   C        -1.5927    8.2181   12.0764  C     
17   C        -0.3468    8.7892   12.3789  C     
18   C         0.0117    9.1081   13.7148  C     
19   C        -0.9284    8.8273   14.7414  C     
20   C        -2.1783    8.2648   14.4383  C     
21   C         1.3126    9.7732   14.0331  C     
22   C         2.5454    8.9477   13.5571  C     
23   C         1.3639   11.2335   13.4938  C     
24   H        -7.4390    3.4593   16.2194  H     
25   H        -6.5909    5.3925   15.0852  H     
26   H        -2.7001    3.7256   15.1687  H     
27   H        -3.5578    1.7785   16.2799  H     
28   H        -8.3674    0.3049   16.9961  H     
29   H        -8.2604    1.8600   17.5949  H     
30   H        -3.0759    5.9376   14.5597  H     
31   H        -4.1116    7.8012   11.9075  H     
32   H        -1.8242    8.0046   11.0999  H     
33   H         0.3070    8.9782   11.6101  H     
34   H        -0.7094    9.0469   15.7190  H     
35   H        -2.8529    8.1180   15.1944  H     
36   H         1.4228    9.8588   15.1221  H     
37   H         2.4891    7.9255   13.9420  H     
38   H         3.4727    9.3949   13.9261  H     
39   H         2.5870    8.9031   12.4639  H     
40   H         1.2799   11.2643   12.4007  H     
41   H         2.2936   11.7278   13.7857  H     
42   H         0.5311   11.8067   13.9219  H     
@<TRIPOS>BOND
     1    1    2 2
     2    1    6 1
     3    2    3 1
     4    3    4 2
     5    3   11 1
     6    4    5 1
     7    5    6 2
     8    6    7 1
     9    7    8 am
    10    7    9 2
    11    7   10 2
    12   11   12 am
    13   12   13 am
    14   12   14 2
    15   13   15 1
    16   15   16 2
    17   15   20 1
    18   16   17 1
    19   17   18 2
    20   18   19 1
    21   18   21 1
    22   19   20 2
    23   21   22 1
    24   21   23 1
    25    1   24 1
    26    2   25 1
    27    4   26 1
    28    5   27 1
    29    8   28 1
    30    8   29 1
    31   11   30 1
    32   13   31 1
    33   16   32 1
    34   17   33 1
    35   19   34 1
    36   20   35 1
    37   21   36 1
    38   22   37 1
    39   22   38 1
    40   22   39 1
    41   23   40 1
    42   23   41 1
    43   23   42 1
@<TRIPOS>PROPERTY_DATA
  Total_Score	| 5.0201
  Crash		| -1.5264
  Polar		| 3.5169
  FragIndex	| 1
  FragRMSD	| 0.944

