@<TRIPOS>MOLECULE
BindingDB_54376
 33 34 0 0 0
SMALL
NO_CHARGES


@<TRIPOS>ATOM
1    Cl        1.6823    9.1954   13.7104  Cl    
2    S        -6.1181    0.9165   17.1954  S     
3    O        -5.2675    0.7170   18.5205  O     
4    O        -5.8751   -0.4030   16.3477  O     
5    O        -5.7083    6.3099   12.9228  O     
6    N        -4.0366    5.6030   14.2204  N     
7    N        -3.8752    7.4426   12.8061  N     
8    N        -7.7339    0.9512   17.6361  N     
9    C        -5.5453    2.3126   16.3392  C     
10   C        -4.5932    4.5556   14.8930  C     
11   C        -6.4415    3.3138   15.9143  C     
12   C        -4.1710    2.4440   16.0614  C     
13   C        -5.9688    4.4279   15.1989  C     
14   C        -3.7008    3.5642   15.3553  C     
15   C        -2.5940    7.8433   13.0760  C     
16   C        -4.5727    6.4569   13.3549  C     
17   C        -1.7991    8.2641   11.9875  C     
18   C        -2.0420    7.9038   14.3799  C     
19   C        -0.4689    8.6786   12.1846  C     
20   C        -0.7102    8.3133   14.5797  C     
21   C         0.0818    8.6958   13.4802  C     
22   H        -3.0830    5.6981   14.3551  H     
23   H        -4.3105    7.8993   12.0675  H     
24   H        -8.4116    0.9641   16.9425  H     
25   H        -7.9676    1.1993   18.5420  H     
26   H        -7.4401    3.2447   16.1236  H     
27   H        -3.5047    1.7317   16.3719  H     
28   H        -6.6368    5.1501   14.9268  H     
29   H        -2.6975    3.6422   15.1668  H     
30   H        -2.1792    8.2524   11.0370  H     
31   H        -2.6074    7.6642   15.1970  H     
32   H         0.0940    8.9650   11.3802  H     
33   H        -0.3256    8.3373   15.5277  H     
@<TRIPOS>BOND
     1    1   21 1
     2    2    3 2
     3    2    4 2
     4    2    8 am
     5    2    9 1
     6    5   16 2
     7    6   10 1
     8    6   16 am
     9    7   15 1
    10    7   16 am
    11    9   11 2
    12    9   12 1
    13   10   13 2
    14   10   14 1
    15   11   13 1
    16   12   14 2
    17   15   17 2
    18   15   18 1
    19   17   19 1
    20   18   20 2
    21   19   21 2
    22   20   21 1
    23    6   22 1
    24    7   23 1
    25    8   24 1
    26    8   25 1
    27   11   26 1
    28   12   27 1
    29   13   28 1
    30   14   29 1
    31   17   30 1
    32   18   31 1
    33   19   32 1
    34   20   33 1
@<TRIPOS>PROPERTY_DATA
  Total_Score	| 5.3301
  Crash		| -1.4999
  Polar		| 3.3533
  FragIndex	| 1
  FragRMSD	| 0.898

