@<TRIPOS>MOLECULE
BindingDB_50334354
 33 34 0 0 0
SMALL
NO_CHARGES


@<TRIPOS>ATOM
1    C        -5.5629    2.1818   16.2422  C     
2    N        -7.8121    1.0604   17.5773  N     
3    O        -6.0073   -0.4238   16.4064  O     
4    S        -6.1747    0.9076   17.2497  S     
5    C        -4.1754    2.3811   16.0980  C     
6    O        -5.3249    0.7529   18.5802  O     
7    C        -3.6970    3.4466   15.3135  C     
8    C        -4.5866    4.3287   14.6561  C     
9    C        -5.9795    4.1062   14.8029  C     
10   C        -6.4591    3.0465   15.5872  C     
11   N        -4.0163    5.3817   14.0010  N     
12   C        -4.5463    6.3430   13.2509  C     
13   O        -5.6893    6.2885   12.8220  O     
14   N        -3.8523    7.4045   12.8662  N     
15   C        -2.5967    7.8040   13.2379  C     
16   C        -1.7187    8.1975   12.1978  C     
17   C        -0.4001    8.5938   12.4925  C     
18   C         0.0573    8.6305   13.8272  C     
19   F         1.2843    8.9990   14.0851  F     
20   C        -0.8284    8.2892   14.8723  C     
21   C        -2.1461    7.8994   14.5826  C     
22   H        -8.3886    0.2774   17.5183  H     
23   H        -8.2203    1.9434   17.5215  H     
24   H        -3.5069    1.7737   16.5865  H     
25   H        -2.6855    3.5913   15.2526  H     
26   H        -6.6702    4.7301   14.3842  H     
27   H        -7.4716    2.9317   15.6918  H     
28   H        -3.0604    5.4598   14.1504  H     
29   H        -4.2867    7.9781   12.2103  H     
30   H        -2.0273    8.1837   11.2141  H     
31   H         0.2270    8.8684   11.7260  H     
32   H        -0.5157    8.3319   15.8443  H     
33   H        -2.7783    7.7050   15.3614  H     
@<TRIPOS>BOND
     1    1    4 1
     2    1    5 1
     3    1   10 2
     4    2    4 am
     5    3    4 2
     6    4    6 2
     7    5    7 2
     8    7    8 1
     9    8    9 2
    10    8   11 1
    11    9   10 1
    12   11   12 am
    13   12   13 2
    14   12   14 am
    15   14   15 1
    16   15   16 2
    17   15   21 1
    18   16   17 1
    19   17   18 2
    20   18   19 1
    21   18   20 1
    22   20   21 2
    23    2   22 1
    24    2   23 1
    25    5   24 1
    26    7   25 1
    27    9   26 1
    28   10   27 1
    29   11   28 1
    30   14   29 1
    31   16   30 1
    32   17   31 1
    33   20   32 1
    34   21   33 1
@<TRIPOS>PROPERTY_DATA
  Total_Score	| 4.7165
  Crash		| -1.7643
  Polar		| 3.3998
  FragIndex	| 1
  FragRMSD	| 0.874

