@<TRIPOS>MOLECULE
BindingDB_50334356
 33 34 0 0 0
SMALL
NO_CHARGES


@<TRIPOS>ATOM
1    C        -6.4283    3.4467   15.9435  C     
2    C        -5.9492    4.5729   15.2526  C     
3    C        -4.5774    4.6897   14.9251  C     
4    C        -3.6904    3.6781   15.3555  C     
5    C        -4.1674    2.5455   16.0394  C     
6    C        -5.5411    2.4191   16.3247  C     
7    S        -6.1268    1.0110   17.1559  S     
8    N        -7.7821    0.9849   17.4159  N     
9    O        -5.8840   -0.2248   16.1898  O     
10   O        -5.3057    0.6801   18.4749  O     
11   N        -4.0313    5.7351   14.2384  N     
12   C        -4.5752    6.5169   13.3074  C     
13   N        -3.8895    7.4686   12.6875  N     
14   O        -5.7399    6.3970   12.9511  O     
15   C        -2.5516    7.7399   12.7704  C     
16   C        -2.1298    9.0860   12.7300  C     
17   C        -0.7631    9.4105   12.8149  C     
18   C         0.1992    8.3894   12.9144  C     
19   C        -0.2055    7.0446   12.9162  C     
20   C        -1.5715    6.7218   12.8321  C     
21   I         2.1938    8.8671   13.0028  I     
22   H        -7.4251    3.3890   16.1656  H     
23   H        -6.6111    5.3128   15.0122  H     
24   H        -2.6893    3.7471   15.1517  H     
25   H        -3.5077    1.8164   16.3227  H     
26   H        -8.3339    0.4524   16.8011  H     
27   H        -8.1855    1.7471   17.8524  H     
28   H        -3.0822    5.8806   14.4024  H     
29   H        -4.4096    8.0664   12.1269  H     
30   H        -2.8149    9.8412   12.6569  H     
31   H        -0.4710   10.3886   12.8008  H     
32   H         0.4915    6.2978   12.9565  H     
33   H        -1.8530    5.7369   12.7996  H     
@<TRIPOS>BOND
     1    1    2 2
     2    1    6 1
     3    2    3 1
     4    3    4 2
     5    3   11 1
     6    4    5 1
     7    5    6 2
     8    6    7 1
     9    7    8 am
    10    7    9 2
    11    7   10 2
    12   11   12 am
    13   12   13 am
    14   12   14 2
    15   13   15 1
    16   15   16 2
    17   15   20 1
    18   16   17 1
    19   17   18 2
    20   18   19 1
    21   18   21 1
    22   19   20 2
    23    1   22 1
    24    2   23 1
    25    4   24 1
    26    5   25 1
    27    8   26 1
    28    8   27 1
    29   11   28 1
    30   13   29 1
    31   16   30 1
    32   17   31 1
    33   19   32 1
    34   20   33 1
@<TRIPOS>PROPERTY_DATA
  Total_Score	| 4.4500
  Crash		| -1.7250
  Polar		| 3.4771
  FragIndex	| 1
  FragRMSD	| 1.239

