@<TRIPOS>MOLECULE
BindingDB_50334355
 33 34 0 0 0
SMALL
NO_CHARGES


@<TRIPOS>ATOM
1    C        -4.1582    2.4393   16.0410  C     
2    C        -3.6713    3.5547   15.3379  C     
3    C        -4.5475    4.5530   14.8625  C     
4    C        -5.9239    4.4358   15.1572  C     
5    C        -6.4124    3.3299   15.8733  C     
6    C        -5.5349    2.3196   16.3088  C     
7    S        -6.1373    0.9496   17.1893  S     
8    N        -7.7932    0.9620   17.4517  N     
9    O        -5.9095   -0.3122   16.2554  O     
10   O        -5.3118    0.6514   18.5129  O     
11   N        -3.9814    5.5982   14.1938  N     
12   C        -4.5115    6.4485   13.3214  C     
13   N        -3.8143    7.4391   12.7829  N     
14   O        -5.6421    6.2946   12.8771  O     
15   C        -2.5511    7.8765   13.0834  C     
16   C        -1.7273    8.2752   12.0048  C     
17   C        -0.4273    8.7624   12.2335  C     
18   C         0.0625    8.8763   13.5450  C     
19   C        -0.7492    8.4997   14.6325  C     
20   C        -2.0546    8.0243   14.4029  C     
21   Br        1.7748    9.5428   13.8285  Br    
22   H        -3.4998    1.7222   16.3588  H     
23   H        -2.6665    3.6253   15.1612  H     
24   H        -6.5839    5.1623   14.8811  H     
25   H        -7.4115    3.2784   16.0815  H     
26   H        -8.3551    0.3832   16.9074  H     
27   H        -8.1860    1.7635   17.8307  H     
28   H        -3.0294    5.6958   14.3384  H     
29   H        -4.2446    7.8898   12.0387  H     
30   H        -2.0668    8.2017   11.0413  H     
31   H         0.1554    9.0454   11.4420  H     
32   H        -0.4003    8.5927   15.5891  H     
33   H        -2.6458    7.8056   15.2091  H     
@<TRIPOS>BOND
     1    1    2 2
     2    1    6 1
     3    2    3 1
     4    3    4 2
     5    3   11 1
     6    4    5 1
     7    5    6 2
     8    6    7 1
     9    7    8 am
    10    7    9 2
    11    7   10 2
    12   11   12 am
    13   12   13 am
    14   12   14 2
    15   13   15 1
    16   15   16 2
    17   15   20 1
    18   16   17 1
    19   17   18 2
    20   18   19 1
    21   18   21 1
    22   19   20 2
    23    1   22 1
    24    2   23 1
    25    4   24 1
    26    5   25 1
    27    8   26 1
    28    8   27 1
    29   11   28 1
    30   13   29 1
    31   16   30 1
    32   17   31 1
    33   19   32 1
    34   20   33 1
@<TRIPOS>PROPERTY_DATA
  Total_Score	| 4.9043
  Crash		| -1.5374
  Polar		| 3.4256
  FragIndex	| 1
  FragRMSD	| 0.907

