@<TRIPOS>MOLECULE
BindingDB_50146756
 33 34 0 0 0
SMALL
NO_CHARGES


@<TRIPOS>ATOM
1    C        -1.8329    7.6644   13.1917  C     
2    S        -6.2748    1.0504   17.3128  S     
3    C        -1.1605    8.2413   12.0879  C     
4    C        -1.5076    8.1170   14.5001  C     
5    C        -0.5395    9.1233   14.6910  C     
6    C        -0.1928    9.2472   12.2808  C     
7    C         0.1201    9.6859   13.5826  C     
8    C        -3.6375    6.0754   13.6037  C     
9    N        -2.6073    6.5643   12.9356  N     
10   C        -5.6117    2.1694   16.1649  C     
11   O        -6.4840   -0.3692   16.6377  O     
12   O        -5.2350    0.8632   18.4992  O     
13   N        -3.8402    4.7819   13.4223  N     
14   N        -7.7391    1.5179   17.9736  N     
15   O        -4.2617    6.7374   14.4235  O     
16   F        -1.4076    7.8273   10.8682  F     
17   F        -2.0044    7.5542   15.5694  F     
18   F        -0.2221    9.5091   15.9014  F     
19   F         0.4369    9.7535   11.2532  F     
20   F         1.0439   10.5920   13.7648  F     
21   C        -6.3235    3.3223   15.7690  C     
22   C        -4.3521    1.8964   15.5981  C     
23   C        -4.4877    3.9518   14.2820  C     
24   C        -3.8010    2.7769   14.6543  C     
25   C        -5.7637    4.2102   14.8324  C     
26   H        -2.2850    5.9998   12.2133  H     
27   H        -3.2273    4.3490   12.8060  H     
28   H        -7.9338    1.3038   18.8972  H     
29   H        -8.4432    1.8385   17.3861  H     
30   H        -7.2484    3.5248   16.1544  H     
31   H        -3.8278    1.0571   15.8646  H     
32   H        -2.8779    2.5681   14.2625  H     
33   H        -6.2939    5.0364   14.5483  H     
@<TRIPOS>BOND
     1    1    3 1
     2    1    4 2
     3    1    9 1
     4    2   10 1
     5    2   11 2
     6    2   12 2
     7    2   14 am
     8    3    6 2
     9    3   16 1
    10    4    5 1
    11    4   17 1
    12    5    7 2
    13    5   18 1
    14    6    7 1
    15    6   19 1
    16    7   20 1
    17    8    9 am
    18    8   13 am
    19    8   15 2
    20   10   21 2
    21   10   22 1
    22   13   23 1
    23   21   25 1
    24   22   24 2
    25   23   24 1
    26   23   25 2
    27    9   26 1
    28   13   27 1
    29   14   28 1
    30   14   29 1
    31   21   30 1
    32   22   31 1
    33   24   32 1
    34   25   33 1
@<TRIPOS>PROPERTY_DATA
  Total_Score	| 3.1704
  Crash		| -1.8639
  Polar		| 3.4211
  FragIndex	| 1
  FragRMSD	| 1.270

