@<TRIPOS>MOLECULE
BindingDB_50212492
 62 66 0 0 0
SMALL
NO_CHARGES


@<TRIPOS>ATOM
1    C        21.7267   -4.1156    9.2056  C     
2    C        21.7098   -4.9481   10.3631  C     
3    C        20.5034   -5.2461   11.0395  C     
4    C        20.5001   -3.5776    8.7392  C     
5    C        19.3152   -3.8991    9.4148  C     
6    C        19.2975   -4.7126   10.5501  C     
7    C        17.9314   -4.8709   11.0912  C     
8    C        18.0197   -3.5057    9.1809  C     
9    C        17.1852   -4.0315   10.1359  C     
10   C        15.9182   -3.5177    9.8509  C     
11   N        16.0675   -2.7550    8.7426  N     
12   N        17.3016   -2.7566    8.3463  N     
13   C        14.6938   -3.6531   10.5631  C     
14   C        13.5771   -2.8501   10.2218  C     
15   C        12.3749   -2.9283   10.9462  C     
16   C        12.2333   -3.8311   12.0244  C     
17   C        13.3411   -4.6455   12.3586  C     
18   C        14.5468   -4.5573   11.6418  C     
19   C        10.9980   -3.9390   12.7279  C     
20   C        10.3187   -2.7870   13.1959  C     
21   C         9.0741   -2.8980   13.8455  C     
22   C         8.4882   -4.1610   14.0430  C     
23   C         9.1555   -5.3153   13.5906  C     
24   C        10.3997   -5.2040   12.9425  C     
25   O         7.2820   -4.2497   14.6623  O     
26   C        22.9972   -3.8239    8.4778  C     
27   N        23.0305   -4.5010    7.1581  N     
28   C        22.6059   -3.7459    5.9475  C     
29   C        23.7809   -3.3393    5.0169  C     
30   N        24.4616   -2.0740    5.4744  N     
31   C        25.7696   -2.3134    6.1421  C     
32   C        24.5752   -1.0336    4.4120  C     
33   H        22.5836   -5.3555   10.7246  H     
34   H        20.5122   -5.8475   11.8624  H     
35   H        20.4639   -2.9554    7.9339  H     
36   H        17.6042   -5.9134   11.0489  H     
37   H        17.8558   -4.4763   12.1059  H     
38   H        17.6556   -2.2759    7.5848  H     
39   H        13.6279   -2.1897    9.4417  H     
40   H        11.5935   -2.3311   10.6614  H     
41   H        13.2807   -5.3046   13.1386  H     
42   H        15.3165   -5.1678   11.9203  H     
43   H        10.7275   -1.8566   13.0769  H     
44   H         8.5941   -2.0539   14.1721  H     
45   H         8.7322   -6.2349   13.7214  H     
46   H        10.8526   -6.0545   12.6053  H     
47   H         7.1458   -5.1977   14.8745  H     
48   H        23.1357   -2.7411    8.3940  H     
49   H        23.8550   -4.2038    9.0368  H     
50   H        23.9802   -4.8286    6.9984  H     
51   H        22.4433   -5.3361    7.2246  H     
52   H        21.9391   -4.4086    5.3822  H     
53   H        22.0278   -2.8467    6.1944  H     
54   H        24.4852   -4.1711    4.9309  H     
55   H        23.3599   -3.2252    4.0126  H     
56   H        23.8712   -1.6415    6.1829  H     
57   H        25.6710   -3.0697    6.9241  H     
58   H        26.1302   -1.4015    6.6221  H     
59   H        26.5232   -2.6538    5.4278  H     
60   H        25.1947   -1.3816    3.5814  H     
61   H        25.0168   -0.1151    4.8035  H     
62   H        23.5831   -0.7785    4.0341  H     
@<TRIPOS>BOND
     1    1    2 2
     2    1    4 1
     3    1   26 1
     4    2    3 1
     5    3    6 2
     6    4    5 2
     7    5    6 1
     8    5    8 1
     9    6    7 1
    10    7    9 1
    11    8    9 2
    12    8   12 1
    13    9   10 1
    14   10   11 2
    15   10   13 1
    16   11   12 1
    17   13   14 2
    18   13   18 1
    19   14   15 1
    20   15   16 2
    21   16   17 1
    22   16   19 1
    23   17   18 2
    24   19   20 2
    25   19   24 1
    26   20   21 1
    27   21   22 2
    28   22   23 1
    29   22   25 1
    30   23   24 2
    31   26   27 1
    32   27   28 1
    33   28   29 1
    34   29   30 1
    35   30   31 1
    36   30   32 1
    37    2   33 1
    38    3   34 1
    39    4   35 1
    40    7   36 1
    41    7   37 1
    42   12   38 1
    43   14   39 1
    44   15   40 1
    45   17   41 1
    46   18   42 1
    47   20   43 1
    48   21   44 1
    49   23   45 1
    50   24   46 1
    51   25   47 1
    52   26   48 1
    53   26   49 1
    54   27   50 1
    55   27   51 1
    56   28   52 1
    57   28   53 1
    58   29   54 1
    59   29   55 1
    60   30   56 1
    61   31   57 1
    62   31   58 1
    63   31   59 1
    64   32   60 1
    65   32   61 1
    66   32   62 1
@<TRIPOS>PROPERTY_DATA
  Total_Score	| 10.3168
  Crash		| -1.6678
  Polar		| 4.1161
  FragIndex	| 1
  FragRMSD	| 0.271

