@<TRIPOS>MOLECULE
BindingDB_91827
 44 48 0 0 0
SMALL
NO_CHARGES


@<TRIPOS>ATOM
1    O        22.8569   -3.0147    6.8687  O     
2    C        22.9772   -3.6518    8.1445  C     
3    C        21.7096   -3.8668    8.8882  C     
4    C        20.4689   -3.3203    8.4711  C     
5    C        19.3089   -3.6292    9.2063  C     
6    C        19.3397   -4.4735   10.3197  C     
7    C        17.9842   -4.6907   10.8698  C     
8    C        17.1956   -3.8361    9.9605  C     
9    C        17.9982   -3.2502    9.0171  C     
10   N        17.2689   -2.4404    8.2497  N     
11   N        16.0424   -2.5199    8.6614  N     
12   C        15.9113   -3.3455    9.7242  C     
13   C        14.6954   -3.5502   10.4407  C     
14   C        14.5687   -4.5323   11.4533  C     
15   C        13.3780   -4.6600   12.1956  C     
16   C        12.2690   -3.8109   11.9536  C     
17   C        11.0455   -3.9440   12.6943  C     
18   C        10.3750   -2.8071   13.2183  C     
19   C         9.1417   -2.9327   13.8865  C     
20   C         8.5577   -4.2001   14.0563  C     
21   O         7.3677   -4.2915   14.7025  O     
22   C         9.2122   -5.3404   13.5550  C     
23   C        10.4437   -5.2132   12.8840  C     
24   C        12.3884   -2.8450   10.9256  C     
25   C        13.5751   -2.7223   10.1822  C     
26   C        20.5678   -4.9834   10.7698  C     
27   C        21.7435   -4.6710   10.0564  C     
28   H        23.0637   -2.0534    7.0137  H     
29   H        23.4307   -4.6345    7.9555  H     
30   H        23.6744   -3.0734    8.7614  H     
31   H        20.4097   -2.7074    7.6453  H     
32   H        17.9027   -4.3408   11.9032  H     
33   H        17.6791   -5.7412   10.7917  H     
34   H        15.3386   -5.1671   11.6633  H     
35   H        13.3314   -5.3709   12.9300  H     
36   H        10.7897   -1.8726   13.1256  H     
37   H         8.6735   -2.0994   14.2441  H     
38   H         7.2364   -5.2421   14.9179  H     
39   H         8.7879   -6.2613   13.6648  H     
40   H        10.8862   -6.0535   12.5112  H     
41   H        11.6037   -2.2336   10.6987  H     
42   H        13.6132   -2.0092    9.4555  H     
43   H        20.6063   -5.5911   11.5941  H     
44   H        22.6340   -5.0448   10.3933  H     
@<TRIPOS>BOND
     1    1    2 1
     2    2    3 1
     3    3    4 ar
     4    4    5 ar
     5    5    6 ar
     6    6    7 1
     7    7    8 1
     8    8    9 ar
     9    5    9 1
    10    9   10 ar
    11   10   11 ar
    12   11   12 ar
    13    8   12 ar
    14   12   13 1
    15   13   14 ar
    16   14   15 ar
    17   15   16 ar
    18   16   17 1
    19   17   18 ar
    20   18   19 ar
    21   19   20 ar
    22   20   21 1
    23   20   22 ar
    24   22   23 ar
    25   17   23 ar
    26   16   24 ar
    27   24   25 ar
    28   13   25 ar
    29    6   26 ar
    30   26   27 ar
    31    3   27 ar
    32    1   28 1
    33    2   29 1
    34    2   30 1
    35    4   31 1
    36    7   32 1
    37    7   33 1
    38   14   34 1
    39   15   35 1
    40   18   36 1
    41   19   37 1
    42   21   38 1
    43   22   39 1
    44   23   40 1
    45   24   41 1
    46   25   42 1
    47   26   43 1
    48   27   44 1
@<TRIPOS>PROPERTY_DATA
  Total_Score	| 9.3945
  Crash		| -0.7676
  Polar		| 4.2299
  FragIndex	| 1
  FragRMSD	| 0.912

