@<TRIPOS>MOLECULE
BindingDB_50212485
 48 52 0 0 0
SMALL
NO_CHARGES


@<TRIPOS>ATOM
1    C        21.7359   -4.1638    9.1359  C     
2    C        21.6815   -4.9489   10.3247  C     
3    C        20.4708   -5.2050   10.9976  C     
4    C        20.5155   -3.6056    8.6562  C     
5    C        19.3157   -3.8713    9.3413  C     
6    C        19.2810   -4.6654   10.4929  C     
7    C        17.9058   -4.8255   11.0198  C     
8    C        18.0201   -3.4678    9.1010  C     
9    C        17.1764   -3.9942   10.0496  C     
10   C        15.9086   -3.4869    9.7637  C     
11   N        16.0679   -2.7093    8.6643  N     
12   N        17.3061   -2.7080    8.2745  N     
13   C        14.6862   -3.6320   10.4786  C     
14   C        14.5156   -4.5870   11.5112  C     
15   C        13.3134   -4.6697   12.2384  C     
16   C        12.2273   -3.8057   11.9626  C     
17   C        12.3957   -2.8563   10.9271  C     
18   C        13.5927   -2.7814   10.1939  C     
19   C        10.9917   -3.9188   12.6698  C     
20   C        10.3767   -5.1838   12.8460  C     
21   C         9.1469   -5.3072   13.5164  C     
22   C         8.5023   -4.1672   14.0325  C     
23   C         9.0961   -2.9005   13.8613  C     
24   C        10.3288   -2.7782   13.1945  C     
25   O         7.3172   -4.2631   14.6881  O     
26   C        22.9600   -3.9874    8.4712  C     
27   O        23.9920   -4.4242    8.9669  O     
28   N        23.0460   -3.3905    7.2860  N     
29   C        24.2394   -3.2135    6.5241  C     
30   H        22.5289   -5.3655   10.7135  H     
31   H        20.4616   -5.7885   11.8358  H     
32   H        20.4788   -3.0168    7.8210  H     
33   H        17.5845   -5.8686   10.9748  H     
34   H        17.8104   -4.4252   12.0296  H     
35   H        17.6680   -2.2119    7.5253  H     
36   H        15.2622   -5.2425   11.7463  H     
37   H        13.2398   -5.3634   12.9840  H     
38   H        11.6338   -2.2180   10.6810  H     
39   H        13.6612   -2.0858    9.4489  H     
40   H        10.8149   -6.0269   12.4722  H     
41   H         8.7166   -6.2287   13.6258  H     
42   H         8.6284   -2.0664   14.2252  H     
43   H        10.7497   -1.8489   13.1054  H     
44   H         7.1625   -5.2191   14.8501  H     
45   H        22.2286   -3.0623    6.8860  H     
46   H        24.9541   -2.5955    7.0716  H     
47   H        23.9868   -2.7147    5.5889  H     
48   H        24.6971   -4.1787    6.2942  H     
@<TRIPOS>BOND
     1    1    2 2
     2    1    4 1
     3    1   26 1
     4    2    3 1
     5    3    6 2
     6    4    5 2
     7    5    6 1
     8    5    8 1
     9    6    7 1
    10    7    9 1
    11    8    9 2
    12    8   12 1
    13    9   10 1
    14   10   11 2
    15   10   13 1
    16   11   12 1
    17   13   14 2
    18   13   18 1
    19   14   15 1
    20   15   16 2
    21   16   17 1
    22   16   19 1
    23   17   18 2
    24   19   20 2
    25   19   24 1
    26   20   21 1
    27   21   22 2
    28   22   23 1
    29   22   25 1
    30   23   24 2
    31   26   27 2
    32   26   28 am
    33   28   29 1
    34    2   30 1
    35    3   31 1
    36    4   32 1
    37    7   33 1
    38    7   34 1
    39   12   35 1
    40   14   36 1
    41   15   37 1
    42   17   38 1
    43   18   39 1
    44   20   40 1
    45   21   41 1
    46   23   42 1
    47   24   43 1
    48   25   44 1
    49   28   45 1
    50   29   46 1
    51   29   47 1
    52   29   48 1
@<TRIPOS>PROPERTY_DATA
  Total_Score	| 7.8075
  Crash		| -1.2215
  Polar		| 2.5692
  FragIndex	| 1
  FragRMSD	| 0.285

