@<TRIPOS>MOLECULE
BindingDB_50212513
 62 66 0 0 0
SMALL
NO_CHARGES


@<TRIPOS>ATOM
1    C        21.9163   -3.6542    8.5363  C     
2    C        22.0835   -4.5710    9.5794  C     
3    C        20.9732   -5.0801   10.3156  C     
4    C        20.6346   -3.1843    8.2038  C     
5    C        19.5321   -3.6357    8.9626  C     
6    C        19.6779   -4.5672   10.0041  C     
7    C        18.3425   -4.8216   10.6503  C     
8    C        18.1974   -3.2842    8.9055  C     
9    C        17.4549   -3.9284    9.8703  C     
10   C        16.1536   -3.4231    9.7001  C     
11   N        16.2189   -2.5487    8.6663  N     
12   N        17.4153   -2.4778    8.2012  N     
13   C        14.9446   -3.6140   10.4231  C     
14   C        14.8654   -4.4521   11.5667  C     
15   C        13.6673   -4.5935   12.2923  C     
16   C        12.4628   -3.9033   11.9265  C     
17   C        12.5439   -3.1003   10.7522  C     
18   C        13.7411   -2.9533   10.0330  C     
19   C        11.2223   -4.0118   12.6740  C     
20   C        10.5383   -2.8511   13.1721  C     
21   C         9.2815   -2.9412   13.7971  C     
22   C         8.6714   -4.1990   14.0088  C     
23   C         9.3412   -5.3629   13.5403  C     
24   C        10.5940   -5.2810   12.9036  C     
25   O         7.5033   -4.2744   14.7119  O     
26   C        21.2737   -6.0483   11.4001  C     
27   N        21.6698   -7.3583   10.7964  N     
28   C        22.1139   -8.4846   11.6599  C     
29   C        23.5528   -8.5076   12.3251  C     
30   C        23.5145   -7.9223   13.7778  C     
31   C        24.0075  -10.0059   12.4158  C     
32   C        24.6373   -7.7578   11.4745  C     
33   H        22.7241   -3.3343    8.0057  H     
34   H        23.0410   -4.8650    9.7614  H     
35   H        20.5082   -2.4984    7.4563  H     
36   H        18.0385   -5.8606   10.5197  H     
37   H        18.3437   -4.5409   11.7064  H     
38   H        17.7009   -1.9106    7.4897  H     
39   H        15.6827   -4.9784   11.9119  H     
40   H        13.6969   -5.2016   13.1205  H     
41   H        11.7225   -2.5963   10.3838  H     
42   H        13.7097   -2.3506    9.2063  H     
43   H        10.9400   -1.9017   13.0775  H     
44   H         8.8342   -2.0735   14.1376  H     
45   H         8.9364   -6.2917   13.7092  H     
46   H        11.0167   -6.1702   12.5799  H     
47   H         7.3739   -5.2407   14.8332  H     
48   H        22.0801   -5.5878   11.9696  H     
49   H        20.4061   -6.2071   12.0735  H     
50   H        20.8622   -7.7069   10.2654  H     
51   H        22.4279   -7.2262   10.1179  H     
52   H        21.3639   -8.6375   12.4389  H     
53   H        22.0222   -9.3709   11.0194  H     
54   H        23.2694   -6.8561   13.8166  H     
55   H        24.5117   -8.0464   14.2182  H     
56   H        22.8018   -8.5032   14.3828  H     
57   H        23.2345  -10.6213   12.8998  H     
58   H        24.9336  -10.1086   12.9891  H     
59   H        24.1902  -10.4377   11.4230  H     
60   H        24.7104   -8.1743   10.4611  H     
61   H        25.6288   -7.7990   11.9523  H     
62   H        24.3616   -6.7213   11.3650  H     
@<TRIPOS>BOND
     1    1    2 2
     2    1    4 1
     3    2    3 1
     4    3    6 2
     5    3   26 1
     6    4    5 2
     7    5    6 1
     8    5    8 1
     9    6    7 1
    10    7    9 1
    11    8    9 2
    12    8   12 1
    13    9   10 1
    14   10   11 2
    15   10   13 1
    16   11   12 1
    17   13   14 2
    18   13   18 1
    19   14   15 1
    20   15   16 2
    21   16   17 1
    22   16   19 1
    23   17   18 2
    24   19   20 2
    25   19   24 1
    26   20   21 1
    27   21   22 2
    28   22   23 1
    29   22   25 1
    30   23   24 2
    31   26   27 1
    32   27   28 1
    33   28   29 1
    34   29   30 1
    35   29   31 1
    36   29   32 1
    37    1   33 1
    38    2   34 1
    39    4   35 1
    40    7   36 1
    41    7   37 1
    42   12   38 1
    43   14   39 1
    44   15   40 1
    45   17   41 1
    46   18   42 1
    47   20   43 1
    48   21   44 1
    49   23   45 1
    50   24   46 1
    51   25   47 1
    52   26   48 1
    53   26   49 1
    54   27   50 1
    55   27   51 1
    56   28   52 1
    57   28   53 1
    58   30   54 1
    59   30   55 1
    60   30   56 1
    61   31   57 1
    62   31   58 1
    63   31   59 1
    64   32   60 1
    65   32   61 1
    66   32   62 1
@<TRIPOS>PROPERTY_DATA
  Total_Score	| 8.6356
  Crash		| -2.2428
  Polar		| 4.0161
  FragIndex	| 1
  FragRMSD	| 1.373

