@<TRIPOS>MOLECULE
BindingDB_50212494
 41 45 0 0 0
SMALL
NO_CHARGES


@<TRIPOS>ATOM
1    C        21.8360   -4.4087    9.3046  C     
2    C        21.7798   -5.2579   10.4287  C     
3    C        20.5492   -5.5049   11.0777  C     
4    C        20.6621   -3.7972    8.8208  C     
5    C        19.4462   -4.0567    9.4784  C     
6    C        19.3782   -4.8971   10.5914  C     
7    C        17.9984   -5.0053   11.1135  C     
8    C        18.1707   -3.5961    9.2469  C     
9    C        17.3003   -4.1096   10.1745  C     
10   C        16.0527   -3.5430    9.8897  C     
11   N        16.2544   -2.7494    8.8117  N     
12   N        17.4970   -2.7872    8.4330  N     
13   C        14.8083   -3.6645   10.5774  C     
14   C        13.7063   -2.8414   10.2148  C     
15   C        12.4835   -2.9076   10.9076  C     
16   C        12.3077   -3.8154   11.9777  C     
17   C        13.3975   -4.6451   12.3291  C     
18   C        14.6221   -4.5701   11.6401  C     
19   C        11.0574   -3.9166   12.6633  C     
20   C        10.3709   -2.7638   13.1172  C     
21   C         9.1293   -2.8733   13.7764  C     
22   C         8.5556   -4.1390   13.9959  C     
23   C         9.2260   -5.2946   13.5512  C     
24   C        10.4644   -5.1821   12.8949  C     
25   O         7.3527   -4.2223   14.6262  O     
26   H        22.7277   -4.2360    8.8397  H     
27   H        22.6350   -5.6991   10.7758  H     
28   H        20.5123   -6.1219   11.8929  H     
29   H        20.6961   -3.1749    8.0051  H     
30   H        17.6237   -6.0307   11.0375  H     
31   H        17.9277   -4.6390   12.1389  H     
32   H        17.8823   -2.2948    7.6911  H     
33   H        13.7851   -2.1775    9.4403  H     
34   H        11.7187   -2.3022   10.6081  H     
35   H        13.3100   -5.3100   13.1068  H     
36   H        15.3750   -5.1944   11.9348  H     
37   H        10.7743   -1.8346   12.9879  H     
38   H         8.6479   -2.0319   14.0930  H     
39   H         8.8107   -6.2168   13.6974  H     
40   H        10.9230   -6.0365   12.5692  H     
41   H         7.1804   -5.1814   14.7786  H     
@<TRIPOS>BOND
     1    1    2 2
     2    1    4 1
     3    2    3 1
     4    3    6 2
     5    4    5 2
     6    5    6 1
     7    5    8 1
     8    6    7 1
     9    7    9 1
    10    8    9 2
    11    8   12 1
    12    9   10 1
    13   10   11 2
    14   10   13 1
    15   11   12 1
    16   13   14 2
    17   13   18 1
    18   14   15 1
    19   15   16 2
    20   16   17 1
    21   16   19 1
    22   17   18 2
    23   19   20 2
    24   19   24 1
    25   20   21 1
    26   21   22 2
    27   22   23 1
    28   22   25 1
    29   23   24 2
    30    1   26 1
    31    2   27 1
    32    3   28 1
    33    4   29 1
    34    7   30 1
    35    7   31 1
    36   12   32 1
    37   14   33 1
    38   15   34 1
    39   17   35 1
    40   18   36 1
    41   20   37 1
    42   21   38 1
    43   23   39 1
    44   24   40 1
    45   25   41 1
@<TRIPOS>PROPERTY_DATA
  Total_Score	| 7.9596
  Crash		| -0.7487
  Polar		| 2.6112
  FragIndex	| 1
  FragRMSD	| 0.993

