@<TRIPOS>MOLECULE
BindingDB_50212486
 54 58 0 0 0
SMALL
NO_CHARGES


@<TRIPOS>ATOM
1    C        21.7979   -4.1431    9.1969  C     
2    C        21.7540   -5.0044   10.3292  C     
3    C        20.5464   -5.2545   11.0127  C     
4    C        20.6039   -3.5118    8.7730  C     
5    C        19.4045   -3.8266    9.4267  C     
6    C        19.3597   -4.6707   10.5405  C     
7    C        17.9814   -4.8139   11.0621  C     
8    C        18.1143   -3.4288    9.1726  C     
9    C        17.2578   -3.9668   10.0990  C     
10   C        15.9880   -3.4760    9.7772  C     
11   N        16.1574   -2.7125    8.6696  N     
12   N        17.4064   -2.6938    8.3155  N     
13   C        14.7496   -3.6389   10.4607  C     
14   C        13.6575   -2.7872   10.1669  C     
15   C        12.4484   -2.8746   10.8818  C     
16   C        12.2768   -3.8362   11.9061  C     
17   C        13.3574   -4.7073   12.1813  C     
18   C        14.5682   -4.6111   11.4722  C     
19   C        11.0432   -3.9397   12.6161  C     
20   C        10.4004   -2.7961   13.1508  C     
21   C         9.1713   -2.9060   13.8274  C     
22   C         8.5615   -4.1622   13.9905  C     
23   C         9.1851   -5.3099   13.4641  C     
24   C        10.4142   -5.1984   12.7861  C     
25   O         7.3784   -4.2441   14.6514  O     
26   C        23.0695   -3.9369    8.4445  C     
27   N        23.0975   -4.7197    7.1812  N     
28   C        22.4326   -4.1164    5.9948  C     
29   C        22.4033   -5.1122    4.8216  C     
30   O        21.4453   -4.6619    3.8672  O     
31   H        22.6106   -5.4691   10.6632  H     
32   H        20.5311   -5.8751   11.8293  H     
33   H        20.5926   -2.8368    8.0181  H     
34   H        17.6542   -5.8540   11.0021  H     
35   H        17.8975   -4.4233   12.0767  H     
36   H        17.7747   -2.2231    7.5456  H     
37   H        13.7286   -2.0839    9.4301  H     
38   H        11.6866   -2.2436   10.6296  H     
39   H        13.2778   -5.4114   12.9206  H     
40   H        15.3163   -5.2629   11.7163  H     
41   H        10.8333   -1.8737   13.0717  H     
42   H         8.7274   -2.0701   14.2144  H     
43   H         8.7394   -6.2266   13.5610  H     
44   H        10.8338   -6.0462   12.3972  H     
45   H         7.2376   -5.1925   14.8575  H     
46   H        23.2448   -2.8690    8.2805  H     
47   H        23.9235   -4.2880    9.0427  H     
48   H        24.0761   -4.8925    6.9393  H     
49   H        22.6702   -5.6364    7.3672  H     
50   H        21.4121   -3.8578    6.2130  H     
51   H        22.9831   -3.2219    5.6888  H     
52   H        23.3896   -5.1763    4.3403  H     
53   H        22.1179   -6.1128    5.1782  H     
54   H        21.1027   -5.4719    3.4236  H     
@<TRIPOS>BOND
     1    1    2 2
     2    1    4 1
     3    1   26 1
     4    2    3 1
     5    3    6 2
     6    4    5 2
     7    5    6 1
     8    5    8 1
     9    6    7 1
    10    7    9 1
    11    8    9 2
    12    8   12 1
    13    9   10 1
    14   10   11 2
    15   10   13 1
    16   11   12 1
    17   13   14 2
    18   13   18 1
    19   14   15 1
    20   15   16 2
    21   16   17 1
    22   16   19 1
    23   17   18 2
    24   19   20 2
    25   19   24 1
    26   20   21 1
    27   21   22 2
    28   22   23 1
    29   22   25 1
    30   23   24 2
    31   26   27 1
    32   27   28 1
    33   28   29 1
    34   29   30 1
    35    2   31 1
    36    3   32 1
    37    4   33 1
    38    7   34 1
    39    7   35 1
    40   12   36 1
    41   14   37 1
    42   15   38 1
    43   17   39 1
    44   18   40 1
    45   20   41 1
    46   21   42 1
    47   23   43 1
    48   24   44 1
    49   25   45 1
    50   26   46 1
    51   26   47 1
    52   27   48 1
    53   27   49 1
    54   28   50 1
    55   28   51 1
    56   29   52 1
    57   29   53 1
    58   30   54 1
@<TRIPOS>PROPERTY_DATA
  Total_Score	| 10.2000
  Crash		| -1.6052
  Polar		| 3.7419
  FragIndex	| 1
  FragRMSD	| 0.343

