@<TRIPOS>MOLECULE
BindingDB_50212518
 59 63 0 0 0
SMALL
NO_CHARGES


@<TRIPOS>ATOM
1    C        21.7434   -4.1427    9.1367  C     
2    C        21.7351   -4.9401   10.3097  C     
3    C        20.5280   -5.2303   10.9801  C     
4    C        20.5215   -3.5979    8.6587  C     
5    C        19.3332   -3.8988    9.3407  C     
6    C        19.3227   -4.7090   10.4801  C     
7    C        17.9541   -4.8750   11.0223  C     
8    C        18.0305   -3.5117    9.1103  C     
9    C        17.2035   -4.0315   10.0755  C     
10   C        15.9294   -3.5355    9.7921  C     
11   N        16.0621   -2.7742    8.6779  N     
12   N        17.2977   -2.7677    8.2819  N     
13   C        14.7081   -3.6821   10.5037  C     
14   C        13.6108   -2.8405   10.2100  C     
15   C        12.4103   -2.9285   10.9383  C     
16   C        12.2515   -3.8763   11.9778  C     
17   C        13.3472   -4.7247   12.2673  C     
18   C        14.5515   -4.6277   11.5438  C     
19   C        11.0202   -3.9781   12.6903  C     
20   C        10.3591   -2.8246   13.1788  C     
21   C         9.1223   -2.9308   13.8447  C     
22   C         8.5272   -4.1906   14.0379  C     
23   C         9.1720   -5.3440   13.5629  C     
24   C        10.4110   -5.2403   12.9022  C     
25   O         7.3363   -4.2593   14.6851  O     
26   C        23.0184   -3.8852    8.4083  C     
27   N        23.6889   -5.1108    7.9212  N     
28   C        23.1140   -5.9834    6.8474  C     
29   C        24.2992   -6.8393    6.3062  C     
30   C        22.0462   -6.9596    7.4333  C     
31   C        22.5185   -5.1481    5.6727  C     
32   H        22.6056   -5.3437   10.6677  H     
33   H        20.5285   -5.8256   11.8084  H     
34   H        20.4859   -3.0104    7.8274  H     
35   H        17.8803   -4.5009   12.0428  H     
36   H        17.6345   -5.9159   10.9648  H     
37   H        17.6422   -2.2950    7.5095  H     
38   H        13.6705   -2.1317    9.4714  H     
39   H        11.6447   -2.2951   10.6913  H     
40   H        13.2854   -5.4136   13.0212  H     
41   H        15.3133   -5.2601   11.7904  H     
42   H        10.7820   -1.9007   13.0652  H     
43   H         8.6635   -2.0861   14.1889  H     
44   H         8.7393   -6.2634   13.6934  H     
45   H        10.8552   -6.0971   12.5601  H     
46   H         7.1296   -5.2099   14.8104  H     
47   H        22.8832   -3.1863    7.5801  H     
48   H        23.7097   -3.3965    9.1070  H     
49   H        24.6162   -4.8155    7.5947  H     
50   H        23.8530   -5.7044    8.7361  H     
51   H        25.0755   -6.1955    5.8821  H     
52   H        23.9613   -7.5212    5.5256  H     
53   H        24.7532   -7.4331    7.1040  H     
54   H        22.4418   -7.4897    8.3031  H     
55   H        21.7499   -7.6993    6.6864  H     
56   H        21.1495   -6.4249    7.7390  H     
57   H        21.6702   -4.5497    6.0073  H     
58   H        22.1641   -5.8087    4.8645  H     
59   H        23.2851   -4.4803    5.2699  H     
@<TRIPOS>BOND
     1    1    2 2
     2    1    4 1
     3    1   26 1
     4    2    3 1
     5    3    6 2
     6    4    5 2
     7    5    6 1
     8    5    8 1
     9    6    7 1
    10    7    9 1
    11    8    9 2
    12    8   12 1
    13    9   10 1
    14   10   11 2
    15   10   13 1
    16   11   12 1
    17   13   14 2
    18   13   18 1
    19   14   15 1
    20   15   16 2
    21   16   17 1
    22   16   19 1
    23   17   18 2
    24   19   20 2
    25   19   24 1
    26   20   21 1
    27   21   22 2
    28   22   23 1
    29   22   25 1
    30   23   24 2
    31   26   27 1
    32   27   28 1
    33   28   29 1
    34   28   30 1
    35   28   31 1
    36    2   32 1
    37    3   33 1
    38    4   34 1
    39    7   35 1
    40    7   36 1
    41   12   37 1
    42   14   38 1
    43   15   39 1
    44   17   40 1
    45   18   41 1
    46   20   42 1
    47   21   43 1
    48   23   44 1
    49   24   45 1
    50   25   46 1
    51   26   47 1
    52   26   48 1
    53   27   49 1
    54   27   50 1
    55   29   51 1
    56   29   52 1
    57   29   53 1
    58   30   54 1
    59   30   55 1
    60   30   56 1
    61   31   57 1
    62   31   58 1
    63   31   59 1
@<TRIPOS>PROPERTY_DATA
  Total_Score	| 9.0807
  Crash		| -1.5644
  Polar		| 2.5757
  FragIndex	| 1
  FragRMSD	| 0.325

