@<TRIPOS>MOLECULE
BindingDB_91964
 41 45 0 0 0
SMALL
NO_CHARGES


@<TRIPOS>ATOM
1    O         7.3029   -4.3041   14.6403  O     
2    C         8.5071   -4.2079   14.0249  C     
3    C         9.0891   -2.9375   13.8584  C     
4    C        10.3361   -2.8085   13.2188  C     
5    C        11.0242   -3.9439   12.7200  C     
6    C        12.2446   -3.8095   12.0012  C     
7    C        12.3615   -2.8705   10.9538  C     
8    C        13.5561   -2.7489   10.2194  C     
9    C        14.6866   -3.5431   10.5199  C     
10   C        15.9067   -3.3452    9.8100  C     
11   C        17.1735   -3.8748   10.0306  C     
12   C        17.9114   -4.8054   10.9029  C     
13   C        19.2734   -4.6575   10.3475  C     
14   C        19.2957   -3.7395    9.2882  C     
15   C        20.4895   -3.4378    8.6081  C     
16   C        21.6734   -4.1001    8.9994  C     
17   C        21.6579   -5.0322   10.0620  C     
18   O        22.8119   -5.6670   10.3998  O     
19   C        20.4532   -5.3130   10.7477  C     
20   C        18.0057   -3.2776    9.1159  C     
21   N        17.2996   -2.4248    8.3671  N     
22   N        16.0656   -2.4802    8.7769  N     
23   C        14.5613   -4.4933   11.5599  C     
24   C        13.3638   -4.6224   12.2888  C     
25   C        10.4286   -5.2154   12.9138  C     
26   C         9.1830   -5.3469   13.5521  C     
27   H         7.1656   -5.2610   14.8369  H     
28   H         8.6061   -2.1021   14.2032  H     
29   H        10.7394   -1.8728   13.1221  H     
30   H        11.5705   -2.2744   10.6991  H     
31   H        13.5902   -2.0530    9.4668  H     
32   H        17.5423   -5.8302   10.7943  H     
33   H        17.8773   -4.4845   11.9492  H     
34   H        20.4936   -2.7683    7.8318  H     
35   H        22.5436   -3.9042    8.5043  H     
36   H        22.7101   -5.9063   11.3515  H     
37   H        20.4372   -5.9872   11.5099  H     
38   H        15.3434   -5.0970   11.8116  H     
39   H        13.3218   -5.3119   13.0435  H     
40   H        10.8890   -6.0620   12.5592  H     
41   H         8.7638   -6.2731   13.6679  H     
@<TRIPOS>BOND
     1    1    2 1
     2    2    3 ar
     3    3    4 ar
     4    4    5 ar
     5    5    6 1
     6    6    7 ar
     7    7    8 ar
     8    8    9 ar
     9    9   10 1
    10   10   11 ar
    11   11   12 1
    12   12   13 1
    13   13   14 ar
    14   14   15 ar
    15   15   16 ar
    16   16   17 ar
    17   17   18 1
    18   17   19 ar
    19   13   19 ar
    20   11   20 ar
    21   14   20 1
    22   20   21 ar
    23   21   22 ar
    24   10   22 ar
    25    9   23 ar
    26   23   24 ar
    27    6   24 ar
    28    5   25 ar
    29   25   26 ar
    30    2   26 ar
    31    1   27 1
    32    3   28 1
    33    4   29 1
    34    7   30 1
    35    8   31 1
    36   12   32 1
    37   12   33 1
    38   15   34 1
    39   16   35 1
    40   18   36 1
    41   19   37 1
    42   23   38 1
    43   24   39 1
    44   25   40 1
    45   26   41 1
@<TRIPOS>PROPERTY_DATA
  Total_Score	| 8.3168
  Crash		| -0.6557
  Polar		| 3.4701
  FragIndex	| 1
  FragRMSD	| 0.118

