@<TRIPOS>MOLECULE
BindingDB_50212495
 45 49 0 0 0
SMALL
NO_CHARGES


@<TRIPOS>ATOM
1    C        21.7008   -4.2705    8.9617  C     
2    C        21.6578   -5.2874    9.9386  C     
3    C        20.4455   -5.6610   10.5884  C     
4    C        20.5236   -3.6022    8.5845  C     
5    C        19.3267   -3.9578    9.2308  C     
6    C        19.2703   -4.9455   10.2344  C     
7    C        17.8928   -5.0514   10.7728  C     
8    C        18.0582   -3.4409    9.0714  C     
9    C        17.1988   -4.0264    9.9666  C     
10   C        15.9543   -3.4152    9.7840  C     
11   N        16.1411   -2.5300    8.7752  N     
12   N        17.3714   -2.5520    8.3578  N     
13   C        14.7253   -3.5809   10.4936  C     
14   C        13.6144   -2.7518   10.1930  C     
15   C        12.4171   -2.8380   10.9272  C     
16   C        12.2698   -3.7720   11.9771  C     
17   C        13.3689   -4.6175   12.2671  C     
18   C        14.5699   -4.5254   11.5371  C     
19   C        11.0400   -3.8805   12.6932  C     
20   C        10.4590   -5.1506   12.9350  C     
21   C         9.2191   -5.2640   13.5950  C     
22   C         8.5405   -4.1116   14.0278  C     
23   C         9.1070   -2.8448   13.8017  C     
24   C        10.3459   -2.7330   13.1419  C     
25   O         7.3384   -4.2029   14.6541  O     
26   C        20.4940   -6.7771   11.5748  C     
27   O        19.2242   -7.2211   12.0742  O     
28   H        22.5865   -4.0337    8.5006  H     
29   H        22.5322   -5.7736   10.1616  H     
30   H        20.5426   -2.8729    7.8763  H     
31   H        17.4516   -6.0272   10.5792  H     
32   H        17.8584   -4.7828   11.8282  H     
33   H        17.7433   -2.0110    7.6484  H     
34   H        13.6645   -2.0652    9.4406  H     
35   H        11.6435   -2.2235   10.6697  H     
36   H        13.3101   -5.2999   13.0264  H     
37   H        15.3305   -5.1543   11.7869  H     
38   H        10.9173   -6.0064   12.6087  H     
39   H         8.8084   -6.1885   13.7457  H     
40   H         8.6200   -2.0044   14.1129  H     
41   H        10.7441   -1.8015   13.0017  H     
42   H         7.1669   -5.1646   14.7876  H     
43   H        20.9521   -7.6466   11.0979  H     
44   H        21.1252   -6.4771   12.4108  H     
45   H        19.3034   -7.1583   13.0601  H     
@<TRIPOS>BOND
     1    1    2 2
     2    1    4 1
     3    2    3 1
     4    3    6 2
     5    3   26 1
     6    4    5 2
     7    5    6 1
     8    5    8 1
     9    6    7 1
    10    7    9 1
    11    8    9 2
    12    8   12 1
    13    9   10 1
    14   10   11 2
    15   10   13 1
    16   11   12 1
    17   13   14 2
    18   13   18 1
    19   14   15 1
    20   15   16 2
    21   16   17 1
    22   16   19 1
    23   17   18 2
    24   19   20 2
    25   19   24 1
    26   20   21 1
    27   21   22 2
    28   22   23 1
    29   22   25 1
    30   23   24 2
    31   26   27 1
    32    1   28 1
    33    2   29 1
    34    4   30 1
    35    7   31 1
    36    7   32 1
    37   12   33 1
    38   14   34 1
    39   15   35 1
    40   17   36 1
    41   18   37 1
    42   20   38 1
    43   21   39 1
    44   23   40 1
    45   24   41 1
    46   25   42 1
    47   26   43 1
    48   26   44 1
    49   27   45 1
@<TRIPOS>PROPERTY_DATA
  Total_Score	| 7.8889
  Crash		| -1.5211
  Polar		| 3.8934
  FragIndex	| 1
  FragRMSD	| 0.406

