@<TRIPOS>MOLECULE
BindingDB_50212517
 42 46 0 0 0
SMALL
NO_CHARGES


@<TRIPOS>ATOM
1    C        21.7488   -4.5887    9.4273  C     
2    C        21.6500   -5.4348   10.5523  C     
3    C        20.4037   -5.6511   11.1741  C     
4    C        20.6020   -3.9439    8.9133  C     
5    C        19.3634   -4.1773    9.5409  C     
6    C        19.2592   -5.0146   10.6586  C     
7    C        17.8785   -5.0859   11.1651  C     
8    C        18.0955   -3.6829    9.2918  C     
9    C        17.2162   -4.1712   10.2239  C     
10   C        15.9772   -3.5872    9.9435  C     
11   N        16.1857   -2.8048    8.8569  N     
12   N        17.4279   -2.8641    8.4751  N     
13   C        14.7377   -3.7106   10.6355  C     
14   C        14.5845   -4.5771   11.7404  C     
15   C        13.3687   -4.6565   12.4495  C     
16   C        12.2572   -3.8670   12.0728  C     
17   C        12.4002   -3.0008   10.9653  C     
18   C        13.6119   -2.9320   10.2504  C     
19   C        11.0107   -3.9743   12.7604  C     
20   C        10.2930   -2.8187   13.1627  C     
21   C         9.0298   -2.9349   13.7762  C     
22   C         8.4622   -4.2062   13.9998  C     
23   C         9.1791   -5.3608   13.6310  C     
24   C        10.4405   -5.2442   13.0172  C     
25   O         7.2314   -4.3027   14.5618  O     
26   O        20.7094   -3.1126    7.8484  O     
27   H        22.6605   -4.4385    8.9904  H     
28   H        22.4851   -5.8867   10.9258  H     
29   H        20.3314   -6.2557   11.9949  H     
30   H        17.4830   -6.1039   11.0912  H     
31   H        17.8169   -4.7060   12.1865  H     
32   H        17.8177   -2.3714    7.7331  H     
33   H        15.3583   -5.1684   12.0562  H     
34   H        13.3062   -5.2939   13.2460  H     
35   H        11.6120   -2.4303   10.6400  H     
36   H        13.6576   -2.2945    9.4536  H     
37   H        10.6803   -1.8819   13.0142  H     
38   H         8.5226   -2.0901   14.0470  H     
39   H         8.7808   -6.2889   13.7891  H     
40   H        10.9223   -6.1034   12.7290  H     
41   H         7.1129   -5.2411   14.8169  H     
42   H        20.3789   -2.2455    8.1734  H     
@<TRIPOS>BOND
     1    1    2 2
     2    1    4 1
     3    2    3 1
     4    3    6 2
     5    4    5 2
     6    4   26 1
     7    5    6 1
     8    5    8 1
     9    6    7 1
    10    7    9 1
    11    8    9 2
    12    8   12 1
    13    9   10 1
    14   10   11 2
    15   10   13 1
    16   11   12 1
    17   13   14 2
    18   13   18 1
    19   14   15 1
    20   15   16 2
    21   16   17 1
    22   16   19 1
    23   17   18 2
    24   19   20 2
    25   19   24 1
    26   20   21 1
    27   21   22 2
    28   22   23 1
    29   22   25 1
    30   23   24 2
    31    1   27 1
    32    2   28 1
    33    3   29 1
    34    7   30 1
    35    7   31 1
    36   12   32 1
    37   14   33 1
    38   15   34 1
    39   17   35 1
    40   18   36 1
    41   20   37 1
    42   21   38 1
    43   23   39 1
    44   24   40 1
    45   25   41 1
    46   26   42 1
@<TRIPOS>PROPERTY_DATA
  Total_Score	| 8.8351
  Crash		| -0.6722
  Polar		| 3.6161
  FragIndex	| 1
  FragRMSD	| 1.036

