@<TRIPOS>MOLECULE
BindingDB_50212489
 45 49 0 0 0
SMALL
NO_CHARGES


@<TRIPOS>ATOM
1    C        21.8184   -4.4590    9.4871  C     
2    C        21.7112   -5.3009   10.6252  C     
3    C        20.4332   -5.5070   11.2021  C     
4    C        20.6791   -3.8375    8.9238  C     
5    C        19.4221   -4.0646    9.5174  C     
6    C        19.3011   -4.8839   10.6449  C     
7    C        17.9136   -4.9640   11.1204  C     
8    C        18.1496   -3.5902    9.2312  C     
9    C        17.2519   -4.0828   10.1463  C     
10   C        16.0049   -3.5242    9.8517  C     
11   N        16.2231   -2.7529    8.7589  N     
12   N        17.4697   -2.8000    8.3935  N     
13   C        14.7591   -3.6481   10.5490  C     
14   C        13.6701   -2.7960   10.2418  C     
15   C        12.4511   -2.8703   10.9490  C     
16   C        12.2576   -3.8169   11.9795  C     
17   C        13.3369   -4.6793   12.2795  C     
18   C        14.5598   -4.5928   11.5846  C     
19   C        11.0128   -3.9266   12.6695  C     
20   C        10.3597   -2.7840   13.1947  C     
21   C         9.1311   -2.9035   13.8747  C     
22   C         8.5329   -4.1642   14.0407  C     
23   C         9.1631   -5.3064   13.5155  C     
24   C        10.3922   -5.1876   12.8424  C     
25   O         7.3437   -4.2573   14.6879  O     
26   C        22.9211   -5.9304   11.2171  C     
27   O        23.4965   -5.0477   12.1752  O     
28   H        22.7281   -4.2912    9.0555  H     
29   H        20.3237   -6.1043   12.0305  H     
30   H        20.7626   -3.2299    8.1056  H     
31   H        17.5330   -5.9856   11.0529  H     
32   H        17.8187   -4.5677   12.1324  H     
33   H        17.8616   -2.3203    7.6436  H     
34   H        13.7557   -2.0954    9.5035  H     
35   H        11.6956   -2.2344   10.6883  H     
36   H        13.2446   -5.3787   13.0241  H     
37   H        15.2978   -5.2447   11.8488  H     
38   H        10.7754   -1.8541   13.1034  H     
39   H         8.6708   -2.0694   14.2469  H     
40   H         8.7291   -6.2266   13.6165  H     
41   H        10.8267   -6.0326   12.4618  H     
42   H         7.1744   -5.2174   14.8249  H     
43   H        22.6698   -6.8725   11.7091  H     
44   H        23.6619   -6.1482   10.4438  H     
45   H        24.2321   -5.5472   12.5940  H     
@<TRIPOS>BOND
     1    1    2 2
     2    1    4 1
     3    2    3 1
     4    2   26 1
     5    3    6 2
     6    4    5 2
     7    5    6 1
     8    5    8 1
     9    6    7 1
    10    7    9 1
    11    8    9 2
    12    8   12 1
    13    9   10 1
    14   10   11 2
    15   10   13 1
    16   11   12 1
    17   13   14 2
    18   13   18 1
    19   14   15 1
    20   15   16 2
    21   16   17 1
    22   16   19 1
    23   17   18 2
    24   19   20 2
    25   19   24 1
    26   20   21 1
    27   21   22 2
    28   22   23 1
    29   22   25 1
    30   23   24 2
    31   26   27 1
    32    1   28 1
    33    3   29 1
    34    4   30 1
    35    7   31 1
    36    7   32 1
    37   12   33 1
    38   14   34 1
    39   15   35 1
    40   17   36 1
    41   18   37 1
    42   20   38 1
    43   21   39 1
    44   23   40 1
    45   24   41 1
    46   25   42 1
    47   26   43 1
    48   26   44 1
    49   27   45 1
@<TRIPOS>PROPERTY_DATA
  Total_Score	| 10.4105
  Crash		| -0.9023
  Polar		| 5.1883
  FragIndex	| 1
  FragRMSD	| 0.429

