@<TRIPOS>MOLECULE
BindingDB_91963
 44 48 0 0 0
SMALL
NO_CHARGES


@<TRIPOS>ATOM
1    O         6.7747   -4.4286   15.0940  O     
2    C         7.0777   -4.6530   13.7163  C     
3    C         8.5211   -4.4125   13.4908  C     
4    C         9.0419   -3.1040   13.4291  C     
5    C        10.3654   -2.8824   12.9991  C     
6    C        11.1947   -3.9847   12.6656  C     
7    C        12.4431   -3.7867   11.9941  C     
8    C        13.5895   -4.5508   12.3137  C     
9    C        14.7684   -4.4274   11.5572  C     
10   C        14.8471   -3.5344   10.4664  C     
11   C        16.0501   -3.3373    9.7332  C     
12   C        17.3239   -3.8624    9.9691  C     
13   C        18.0703   -4.7750   10.8680  C     
14   C        19.4253   -4.6194   10.3222  C     
15   C        19.4402   -3.7312    9.2371  C     
16   C        20.6394   -3.4304    8.5645  C     
17   C        21.8305   -4.0473    9.0073  C     
18   C        21.8202   -4.9393   10.1024  C     
19   O        22.9649   -5.5166   10.5294  O     
20   C        20.6135   -5.2255   10.7649  C     
21   C        18.1510   -3.2783    9.0421  C     
22   N        17.4233   -2.4391    8.2814  N     
23   N        16.1985   -2.4911    8.6915  N     
24   C        13.6942   -2.7830   10.1356  C     
25   C        12.5068   -2.9059   10.8870  C     
26   C        10.7127   -5.2948   12.8738  C     
27   C         9.3877   -5.5020   13.3017  C     
28   H         6.7587   -5.3286   15.4778  H     
29   H         6.4991   -3.9429   13.0967  H     
30   H         6.7886   -5.6586   13.4226  H     
31   H         8.4426   -2.2960   13.5981  H     
32   H        10.7134   -1.9187   12.8953  H     
33   H        13.5780   -5.2021   13.0959  H     
34   H        15.5618   -5.0029   11.8222  H     
35   H        17.7127   -5.8000   10.7666  H     
36   H        18.0123   -4.4301   11.9006  H     
37   H        20.6594   -2.7776    7.7826  H     
38   H        22.7159   -3.8459    8.5303  H     
39   H        23.2741   -6.0789    9.7848  H     
40   H        20.5880   -5.8667   11.5594  H     
41   H        13.6862   -2.1374    9.3374  H     
42   H        11.6891   -2.3590   10.6001  H     
43   H        11.2949   -6.1065   12.6619  H     
44   H         9.0518   -6.4574   13.3864  H     
@<TRIPOS>BOND
     1    1    2 1
     2    2    3 1
     3    3    4 ar
     4    4    5 ar
     5    5    6 ar
     6    6    7 1
     7    7    8 ar
     8    8    9 ar
     9    9   10 ar
    10   10   11 1
    11   11   12 ar
    12   12   13 1
    13   13   14 1
    14   14   15 ar
    15   15   16 ar
    16   16   17 ar
    17   17   18 ar
    18   18   19 1
    19   18   20 ar
    20   14   20 ar
    21   12   21 ar
    22   15   21 1
    23   21   22 ar
    24   22   23 ar
    25   11   23 ar
    26   10   24 ar
    27   24   25 ar
    28    7   25 ar
    29    6   26 ar
    30   26   27 ar
    31    3   27 ar
    32    1   28 1
    33    2   29 1
    34    2   30 1
    35    4   31 1
    36    5   32 1
    37    8   33 1
    38    9   34 1
    39   13   35 1
    40   13   36 1
    41   16   37 1
    42   17   38 1
    43   19   39 1
    44   20   40 1
    45   24   41 1
    46   25   42 1
    47   26   43 1
    48   27   44 1
@<TRIPOS>PROPERTY_DATA
  Total_Score	| 6.5496
  Crash		| -2.5603
  Polar		| 2.0596
  FragIndex	| 1
  FragRMSD	| 0.918

