@<TRIPOS>MOLECULE
BindingDB_50204714
 54 58 0 0 0
SMALL
NO_CHARGES


@<TRIPOS>ATOM
1    C        21.8907   -4.3751    9.2328  C     
2    C        21.8492   -5.2377   10.3641  C     
3    C        20.6053   -5.4525   10.9999  C     
4    C        20.7345   -3.7144    8.7629  C     
5    C        19.5209   -3.9472    9.4200  C     
6    C        19.4511   -4.8074   10.5191  C     
7    C        18.0827   -4.9054   11.0606  C     
8    C        18.2433   -3.4764    9.2023  C     
9    C        17.3837   -4.0026   10.1358  C     
10   C        16.1239   -3.4723    9.8622  C     
11   N        16.2981   -2.6757    8.7786  N     
12   N        17.5396   -2.6817    8.3956  N     
13   C        14.8841   -3.6601   10.5481  C     
14   C        14.7758   -4.3860   11.7605  C     
15   C        13.5484   -4.5085   12.4384  C     
16   C        12.3848   -3.8988   11.9275  C     
17   C        12.4770   -3.1764   10.7200  C     
18   C        13.7019   -3.0688   10.0421  C     
19   C        11.1530   -3.9946   12.6134  C     
20   C        10.5290   -5.2493   12.7998  C     
21   C         9.2910   -5.3338   13.4613  C     
22   C         8.6725   -4.1688   13.9598  C     
23   C         9.2939   -2.9185   13.7815  C     
24   C        10.5239   -2.8300   13.1084  C     
25   O         7.4809   -4.2197   14.6136  O     
26   C        23.1040   -5.8979   10.8251  C     
27   N        23.2042   -6.3417   12.2439  N     
28   C        23.1306   -7.7870   12.5543  C     
29   C        23.6084   -8.0944   13.9961  C     
30   O        24.9068   -8.6859   14.0470  O     
31   H        22.7695   -4.2121    8.7368  H     
32   H        20.5284   -6.0760   11.7994  H     
33   H        20.7866   -3.0803    7.9624  H     
34   H        17.6989   -5.9236   10.9853  H     
35   H        18.0475   -4.5359   12.0850  H     
36   H        17.9025   -2.1865    7.6465  H     
37   H        15.5928   -4.8179   12.1915  H     
38   H        13.5145   -5.0221   13.3243  H     
39   H        11.6516   -2.7199   10.3251  H     
40   H        13.7168   -2.5375    9.1700  H     
41   H        10.9634   -6.1051   12.4453  H     
42   H         8.8422   -6.2444   13.5811  H     
43   H         8.8571   -2.0701   14.1502  H     
44   H        10.9641   -1.9123   13.0028  H     
45   H         7.3018   -5.1678   14.7844  H     
46   H        23.3235   -6.7248   10.1421  H     
47   H        23.9064   -5.1665   10.7056  H     
48   H        24.1084   -6.0082   12.6014  H     
49   H        22.4648   -5.8835   12.7841  H     
50   H        22.0945   -8.1174   12.4787  H     
51   H        23.7294   -8.3652   11.8429  H     
52   H        23.6282   -7.1817   14.5971  H     
53   H        22.9097   -8.7889   14.4640  H     
54   H        25.5161   -7.9510   14.2632  H     
@<TRIPOS>BOND
     1    1    2 2
     2    1    4 1
     3    2    3 1
     4    2   26 1
     5    3    6 2
     6    4    5 2
     7    5    6 1
     8    5    8 1
     9    6    7 1
    10    7    9 1
    11    8    9 2
    12    8   12 1
    13    9   10 1
    14   10   11 2
    15   10   13 1
    16   11   12 1
    17   13   14 2
    18   13   18 1
    19   14   15 1
    20   15   16 2
    21   16   17 1
    22   16   19 1
    23   17   18 2
    24   19   20 2
    25   19   24 1
    26   20   21 1
    27   21   22 2
    28   22   23 1
    29   22   25 1
    30   23   24 2
    31   26   27 1
    32   27   28 1
    33   28   29 1
    34   29   30 1
    35    1   31 1
    36    3   32 1
    37    4   33 1
    38    7   34 1
    39    7   35 1
    40   12   36 1
    41   14   37 1
    42   15   38 1
    43   17   39 1
    44   18   40 1
    45   20   41 1
    46   21   42 1
    47   23   43 1
    48   24   44 1
    49   25   45 1
    50   26   46 1
    51   26   47 1
    52   27   48 1
    53   27   49 1
    54   28   50 1
    55   28   51 1
    56   29   52 1
    57   29   53 1
    58   30   54 1
@<TRIPOS>PROPERTY_DATA
  Total_Score	| 9.8633
  Crash		| -2.1427
  Polar		| 6.3286
  FragIndex	| 1
  FragRMSD	| 0.492

