@<TRIPOS>MOLECULE
BindingDB_50381097
 52 56 0 0 0
SMALL
NO_CHARGES


@<TRIPOS>ATOM
1    C         5.6888    7.7394    2.7319  C     
2    C         4.6608    6.7672    2.5455  C     
3    C         4.9546    5.6520    1.7001  C     
4    C         6.9503    7.6442    2.1113  C     
5    C         7.1828    6.5541    1.2494  C     
6    C         6.2042    5.5785    1.0592  C     
7    N         6.6849    4.7142    0.1624  N     
8    C         7.8683    5.1234   -0.2576  C     
9    C         8.2200    6.2177    0.4449  C     
10   C         3.3253    6.8402    3.2514  C     
11   C         2.1018    6.8269    2.2515  C     
12   C         3.2326    5.6479    4.2629  C     
13   O         3.1991    8.0113    4.0644  O     
14   C         8.5439    4.5179   -1.2741  C     
15   N         8.0846    3.5107   -2.0477  N     
16   N         9.0002    3.1438   -2.8925  N     
17   C         9.8344    4.7640   -1.6954  C     
18   C        10.0985    3.8770   -2.7100  C     
19   C        11.3860    3.9399   -3.2553  C     
20   C        12.2145    4.8979   -2.6303  C     
21   S        11.2467    5.6923   -1.4375  S     
22   C         2.2841    7.6596    0.9310  C     
23   C         4.4703    5.4377    5.1902  C     
24   C        13.5898    5.1489   -2.8489  C     
25   C        14.3708    4.3243   -3.7033  C     
26   C        15.7413    4.5663   -3.8810  C     
27   C        16.3505    5.6486   -3.2365  C     
28   C        15.6109    6.4659   -2.3673  C     
29   C        14.2462    6.2115   -2.1708  C     
30   H         5.5560    8.5353    3.3664  H     
31   H         4.2491    4.9219    1.5693  H     
32   H         7.6717    8.3662    2.2491  H     
33   H         6.2037    3.9304   -0.1427  H     
34   H         9.0399    6.7680    0.3133  H     
35   H         1.8805    5.7759    1.9601  H     
36   H         1.2076    7.2454    2.7600  H     
37   H         2.3818    5.8036    4.9432  H     
38   H         3.0510    4.6935    3.7446  H     
39   H         3.2314    8.7699    3.4222  H     
40   H         8.9095    2.4319   -3.5472  H     
41   H        11.6788    3.3245   -4.0206  H     
42   H         2.2848    8.7391    1.1549  H     
43   H         1.4323    7.4452    0.2586  H     
44   H         3.2280    7.3641    0.4329  H     
45   H         5.3850    5.2432    4.6077  H     
46   H         4.3034    4.5823    5.8613  H     
47   H         4.6310    6.3293    5.8082  H     
48   H        13.9609    3.5259   -4.1911  H     
49   H        16.3063    3.9482   -4.4686  H     
50   H        17.3380    5.8340   -3.3850  H     
51   H        16.0673    7.2396   -1.8697  H     
52   H        13.7432    6.8180   -1.5146  H     
@<TRIPOS>BOND
     1    1    2 2
     2    1    4 1
     3    2    3 1
     4    2   10 1
     5    3    6 2
     6    4    5 2
     7    5    6 1
     8    5    9 1
     9    6    7 1
    10    7    8 1
    11    8    9 2
    12    8   14 1
    13   10   11 1
    14   10   12 1
    15   10   13 1
    16   11   22 1
    17   12   23 1
    18   14   15 2
    19   14   17 1
    20   15   16 1
    21   16   18 1
    22   17   18 2
    23   17   21 1
    24   18   19 1
    25   19   20 2
    26   20   21 1
    27   20   24 1
    28   24   25 2
    29   24   29 1
    30   25   26 1
    31   26   27 2
    32   27   28 1
    33   28   29 2
    34    1   30 1
    35    3   31 1
    36    4   32 1
    37    7   33 1
    38    9   34 1
    39   11   35 1
    40   11   36 1
    41   12   37 1
    42   12   38 1
    43   13   39 1
    44   16   40 1
    45   19   41 1
    46   22   42 1
    47   22   43 1
    48   22   44 1
    49   23   45 1
    50   23   46 1
    51   23   47 1
    52   25   48 1
    53   26   49 1
    54   27   50 1
    55   28   51 1
    56   29   52 1
@<TRIPOS>PROPERTY_DATA
  Total_Score	| 3.0833
  Crash		| -6.1360
  Polar		| 2.6525
  FragIndex	| 1
  FragRMSD	| 0.822

