@<TRIPOS>MOLECULE
BindingDB_50381096
 45 48 0 0 0
SMALL
NO_CHARGES


@<TRIPOS>ATOM
1    C         6.1804    7.5279    2.5986  C     
2    C         5.1929    6.5074    2.4651  C     
3    C         5.4498    5.4507    1.5507  C     
4    C         7.3718    7.5093    1.8411  C     
5    C         7.5772    6.4560    0.9376  C     
6    C         6.6284    5.4497    0.7937  C     
7    N         7.1073    4.5905   -0.1174  N     
8    C         8.2879    5.0130   -0.5514  C     
9    C         8.5960    6.1502    0.0884  C     
10   C         3.8979    6.5365    3.2402  C     
11   C         2.6399    6.4875    2.2999  C     
12   C         3.8309    5.3471    4.2570  C     
13   O         3.7522    7.7273    4.0297  O     
14   C         9.0436    4.3559   -1.5053  C     
15   N         8.6482    3.2436   -2.1586  N     
16   N         9.5707    2.8602   -2.9934  N     
17   C        10.3059    4.6643   -1.9989  C     
18   C        10.6126    3.6985   -2.9317  C     
19   C        11.8572    3.8164   -3.5652  C     
20   C        12.5994    4.9237   -3.1251  C     
21   S        11.6397    5.7464   -1.9448  S     
22   C         2.6453    7.4646    1.0983  C     
23   C         4.8165    5.4302    5.4484  C     
24   C        13.9177    5.3614   -3.6280  C     
25   F        14.6397    6.0000   -2.6498  F     
26   F        14.6659    4.2988   -4.0742  F     
27   H         6.0546    8.3004    3.2542  H     
28   H         4.7803    4.6892    1.4147  H     
29   H         8.0734    8.2448    1.9527  H     
30   H         6.6720    3.7582   -0.3655  H     
31   H         9.4228    6.6846   -0.0239  H     
32   H         2.5226    5.4784    1.8950  H     
33   H         1.7415    6.6949    2.8922  H     
34   H         2.8235    5.2826    4.6805  H     
35   H         4.0143    4.4026    3.7358  H     
36   H         3.7826    8.4811    3.4055  H     
37   H         9.5044    2.0950   -3.5833  H     
38   H        12.1818    3.1596   -4.2795  H     
39   H         2.8332    8.4890    1.4320  H     
40   H         1.6771    7.4327    0.5947  H     
41   H         3.4123    7.1777    0.3795  H     
42   H         5.8450    5.5369    5.0935  H     
43   H         4.7452    4.5198    6.0451  H     
44   H         4.5709    6.2813    6.0863  H     
45   H        13.7670    6.0527   -4.4568  H     
@<TRIPOS>BOND
     1    1    2 2
     2    1    4 1
     3    2    3 1
     4    2   10 1
     5    3    6 2
     6    4    5 2
     7    5    6 1
     8    5    9 1
     9    6    7 1
    10    7    8 1
    11    8    9 2
    12    8   14 1
    13   10   11 1
    14   10   12 1
    15   10   13 1
    16   11   22 1
    17   12   23 1
    18   14   15 2
    19   14   17 1
    20   15   16 1
    21   16   18 1
    22   17   18 2
    23   17   21 1
    24   18   19 1
    25   19   20 2
    26   20   21 1
    27   20   24 1
    28   24   25 1
    29   24   26 1
    30    1   27 1
    31    3   28 1
    32    4   29 1
    33    7   30 1
    34    9   31 1
    35   11   32 1
    36   11   33 1
    37   12   34 1
    38   12   35 1
    39   13   36 1
    40   16   37 1
    41   19   38 1
    42   22   39 1
    43   22   40 1
    44   22   41 1
    45   23   42 1
    46   23   43 1
    47   23   44 1
    48   24   45 1
@<TRIPOS>PROPERTY_DATA
  Total_Score	| 8.3773
  Crash		| -0.4924
  Polar		| 3.0542
  FragIndex	| 1
  FragRMSD	| 0.729

