@<TRIPOS>MOLECULE
BindingDB_50381092
 36 39 0 0 0
SMALL
NO_CHARGES


@<TRIPOS>ATOM
1    C         5.9348    7.3586    2.6895  C     
2    C         4.9475    6.3606    2.4444  C     
3    C         5.2514    5.3481    1.4897  C     
4    C         7.1456    7.4012    1.9628  C     
5    C         7.3889    6.4057    1.0001  C     
6    C         6.4638    5.3936    0.7865  C     
7    N         6.9903    4.5664   -0.1276  N     
8    C         8.1748    5.0234   -0.5117  C     
9    C         8.4379    6.1490    0.1692  C     
10   C         3.6462    6.3554    3.2068  C     
11   C         3.8556    5.7922    4.6400  C     
12   C         2.9908    7.7644    3.2771  C     
13   O         2.6518    5.5402    2.5697  O     
14   C         8.9662    4.4070   -1.4655  C     
15   N         8.6210    3.3002   -2.1638  N     
16   N         9.5709    2.9775   -2.9928  N     
17   C        10.2289    4.7680   -1.9256  C     
18   C        10.5836    3.8466   -2.8869  C     
19   C        11.8358    4.0327   -3.4914  C     
20   C        12.5122    5.1525   -2.9920  C     
21   S        11.5223    5.8935   -1.7913  S     
22   H         5.7806    8.0715    3.4090  H     
23   H         4.6085    4.5783    1.3039  H     
24   H         7.8376    8.1326    2.1481  H     
25   H         6.5875    3.7308   -0.4080  H     
26   H         9.2558    6.7039    0.0918  H     
27   H         4.3020    4.8000    4.5918  H     
28   H         2.9034    5.7145    5.1650  H     
29   H         4.5141    6.4412    5.2217  H     
30   H         3.5879    8.4505    3.8823  H     
31   H         1.9919    7.6985    3.7280  H     
32   H         2.8797    8.1904    2.2752  H     
33   H         2.9188    4.6080    2.7102  H     
34   H         9.5438    2.2279   -3.6071  H     
35   H        12.2092    3.4211   -4.2184  H     
36   H        13.4314    5.4793   -3.2891  H     
@<TRIPOS>BOND
     1    1    2 2
     2    1    4 1
     3    2    3 1
     4    2   10 1
     5    3    6 2
     6    4    5 2
     7    5    6 1
     8    5    9 1
     9    6    7 1
    10    7    8 1
    11    8    9 2
    12    8   14 1
    13   10   11 1
    14   10   12 1
    15   10   13 1
    16   14   15 2
    17   14   17 1
    18   15   16 1
    19   16   18 1
    20   17   18 2
    21   17   21 1
    22   18   19 1
    23   19   20 2
    24   20   21 1
    25    1   22 1
    26    3   23 1
    27    4   24 1
    28    7   25 1
    29    9   26 1
    30   11   27 1
    31   11   28 1
    32   11   29 1
    33   12   30 1
    34   12   31 1
    35   12   32 1
    36   13   33 1
    37   16   34 1
    38   19   35 1
    39   20   36 1
@<TRIPOS>PROPERTY_DATA
  Total_Score	| 7.0736
  Crash		| -0.3472
  Polar		| 3.7005
  FragIndex	| 1
  FragRMSD	| 0.329

