@<TRIPOS>MOLECULE
BindingDB_50320993
 56 59 0 0 0
SMALL
NO_CHARGES


@<TRIPOS>ATOM
1    C         8.2578    5.3321   -0.4147  C     
2    N         9.1039    3.0038   -2.8827  N     
3    N         8.3794    3.5205   -1.9509  N     
4    C         8.9627    4.6261   -1.4364  C     
5    C        10.1693    4.7823   -2.1466  C     
6    C        10.2081    3.7275   -3.0515  C     
7    N         7.1385    4.7849    0.1179  N     
8    C         8.4301    6.5866    0.2073  C     
9    C         7.3771    6.7373    1.1197  C     
10   C         7.0233    7.7552    2.0289  C     
11   C         5.8761    7.5949    2.8346  C     
12   C         5.0856    6.4206    2.7516  C     
13   C         5.4421    5.4127    1.8217  C     
14   C         6.5889    5.5949    1.0277  C     
15   C         3.9494    6.2842    3.5373  C     
16   O         2.9133    6.5450    2.9357  O     
17   N         3.9179    5.8997    4.8328  N     
18   C         5.0841    5.4058    5.5593  C     
19   C         5.5628    6.2620    6.7780  C     
20   C         2.6386    5.8597    5.5201  C     
21   C         6.4165    5.4063    7.7583  C     
22   C         6.3461    7.5278    6.3431  C     
23   C        11.2349    5.7069   -2.1279  C     
24   C        11.9051    6.0093   -0.9214  C     
25   C        13.0697    6.7996   -0.9205  C     
26   C        13.6050    7.2610   -2.1355  C     
27   C        12.9769    6.9240   -3.3472  C     
28   C        11.8005    6.1520   -3.3448  C     
29   C         9.4908    7.5897   -0.0101  C     
30   O        10.4596    7.4817    1.0245  O     
31   H         8.8679    2.2211   -3.4016  H     
32   H        10.9404    3.5302   -3.7383  H     
33   H         6.7809    3.9090   -0.1035  H     
34   H         7.5831    8.6054    2.1101  H     
35   H         5.6155    8.3509    3.4723  H     
36   H         4.8907    4.5550    1.7279  H     
37   H         4.8283    4.4067    5.9243  H     
38   H         5.9445    5.2663    4.9048  H     
39   H         4.6858    6.5981    7.3369  H     
40   H         2.2195    6.8666    5.5789  H     
41   H         2.7004    5.4684    6.5374  H     
42   H         1.9385    5.2187    4.9787  H     
43   H         5.8463    4.5429    8.1080  H     
44   H         6.7017    5.9959    8.6333  H     
45   H         7.3253    5.0475    7.2692  H     
46   H         7.2530    7.2523    5.8009  H     
47   H         6.6310    8.1170    7.2178  H     
48   H         5.7253    8.1560    5.7019  H     
49   H        11.5627    5.6423   -0.0352  H     
50   H        13.5391    7.0188   -0.0390  H     
51   H        14.4614    7.8200   -2.1395  H     
52   H        13.3847    7.2283   -4.2321  H     
53   H        11.3773    5.8957   -4.2402  H     
54   H         9.9487    7.4465   -0.9868  H     
55   H         9.0914    8.6041    0.0106  H     
56   H        11.1769    8.0990    0.7669  H     
@<TRIPOS>BOND
     1    1    4 1
     2    1    7 1
     3    1    8 2
     4    2    3 1
     5    2    6 1
     6    3    4 2
     7    4    5 1
     8    5    6 2
     9    5   23 1
    10    7   14 1
    11    8    9 1
    12    8   29 1
    13    9   10 1
    14    9   14 2
    15   10   11 2
    16   11   12 1
    17   12   13 2
    18   12   15 1
    19   13   14 1
    20   15   16 2
    21   15   17 am
    22   17   18 1
    23   17   20 1
    24   18   19 1
    25   19   21 1
    26   19   22 1
    27   23   24 2
    28   23   28 1
    29   24   25 1
    30   25   26 2
    31   26   27 1
    32   27   28 2
    33   29   30 1
    34    2   31 1
    35    6   32 1
    36    7   33 1
    37   10   34 1
    38   11   35 1
    39   13   36 1
    40   18   37 1
    41   18   38 1
    42   19   39 1
    43   20   40 1
    44   20   41 1
    45   20   42 1
    46   21   43 1
    47   21   44 1
    48   21   45 1
    49   22   46 1
    50   22   47 1
    51   22   48 1
    52   24   49 1
    53   25   50 1
    54   26   51 1
    55   27   52 1
    56   28   53 1
    57   29   54 1
    58   29   55 1
    59   30   56 1
@<TRIPOS>PROPERTY_DATA
  Total_Score	| 6.5604
  Crash		| -2.2331
  Polar		| 3.1453
  FragIndex	| 1
  FragRMSD	| 0.435

