@<TRIPOS>MOLECULE
BindingDB_50381091
 56 60 0 0 0
SMALL
NO_CHARGES


@<TRIPOS>ATOM
1    C         5.9007    7.3175    2.6990  C     
2    C         4.9309    6.3299    2.3513  C     
3    C         5.2958    5.3799    1.3599  C     
4    C         7.1744    7.3670    2.0913  C     
5    C         7.4860    6.4125    1.1071  C     
6    C         6.5609    5.4453    0.7591  C     
7    N         7.1391    4.6680   -0.1572  N     
8    C         8.3638    5.1000   -0.4229  C     
9    C         8.6047    6.1679    0.3616  C     
10   C         3.5751    6.2902    3.0192  C     
11   C         3.6129    5.4518    4.3403  C     
12   C         2.9266    7.7010    3.2719  C     
13   O         2.6054    5.6322    2.1812  O     
14   C         9.1310    4.4815   -1.4025  C     
15   N         8.6731    3.4224   -2.1148  N     
16   N         9.5582    3.0248   -2.9792  N     
17   C        10.4135    4.7329   -1.9045  C     
18   C        10.6459    3.8017   -2.8894  C     
19   C        11.8849    3.8510   -3.5475  C     
20   C        12.6950    4.8928   -3.0720  C     
21   S        11.8272    5.7178   -1.8348  S     
22   C         4.6683    5.8248    5.4011  C     
23   C         3.0447    8.6885    2.0867  C     
24   C         9.7501    6.9278    0.4723  C     
25   C        10.8564    6.4921    1.2361  C     
26   C        11.9964    7.3147    1.3699  C     
27   C        12.0445    8.5918    0.7751  C     
28   C        10.9400    9.0157    0.0035  C     
29   C         9.7950    8.2038   -0.1288  C     
30   O        13.2050    9.3188    0.9094  O     
31   C        13.1255   10.7449    0.6493  C     
32   H         5.6968    8.0172    3.4182  H     
33   H         4.6612    4.6294    1.0796  H     
34   H         7.8533    8.0843    2.3684  H     
35   H         6.7341    3.8571   -0.5020  H     
36   H         2.6326    5.4968    4.8265  H     
37   H         3.7757    4.3985    4.0793  H     
38   H         1.8582    7.5700    3.4812  H     
39   H         3.3504    8.1796    4.1529  H     
40   H         2.7363    4.6660    2.2910  H     
41   H         9.4378    2.2929   -3.6048  H     
42   H        12.1659    3.2151   -4.2849  H     
43   H        13.6396    5.1221   -3.3989  H     
44   H         5.6786    5.6574    5.0161  H     
45   H         4.5409    5.1894    6.2815  H     
46   H         4.5697    6.8695    5.7077  H     
47   H         4.0924    8.9479    1.8988  H     
48   H         2.5002    9.6072    2.3127  H     
49   H         2.6232    8.2550    1.1805  H     
50   H        10.8385    5.5721    1.6927  H     
51   H        12.7922    6.9654    1.9047  H     
52   H        10.9717    9.9329   -0.4450  H     
53   H         8.9946    8.5553   -0.6666  H     
54   H        12.9275   10.9275   -0.4211  H     
55   H        14.0763   11.2136    0.9146  H     
56   H        12.3404   11.2219    1.2490  H     
@<TRIPOS>BOND
     1    1    2 2
     2    1    4 1
     3    2    3 1
     4    2   10 1
     5    3    6 2
     6    4    5 2
     7    5    6 1
     8    5    9 1
     9    6    7 1
    10    7    8 1
    11    8    9 2
    12    8   14 1
    13    9   24 1
    14   10   11 1
    15   10   12 1
    16   10   13 1
    17   11   22 1
    18   12   23 1
    19   14   15 2
    20   14   17 1
    21   15   16 1
    22   16   18 1
    23   17   18 2
    24   17   21 1
    25   18   19 1
    26   19   20 2
    27   20   21 1
    28   24   25 2
    29   24   29 1
    30   25   26 1
    31   26   27 2
    32   27   28 1
    33   27   30 1
    34   28   29 2
    35   30   31 1
    36    1   32 1
    37    3   33 1
    38    4   34 1
    39    7   35 1
    40   11   36 1
    41   11   37 1
    42   12   38 1
    43   12   39 1
    44   13   40 1
    45   16   41 1
    46   19   42 1
    47   20   43 1
    48   22   44 1
    49   22   45 1
    50   22   46 1
    51   23   47 1
    52   23   48 1
    53   23   49 1
    54   25   50 1
    55   26   51 1
    56   28   52 1
    57   29   53 1
    58   31   54 1
    59   31   55 1
    60   31   56 1
@<TRIPOS>PROPERTY_DATA
  Total_Score	| 9.9792
  Crash		| -0.9824
  Polar		| 3.5720
  FragIndex	| 1
  FragRMSD	| 0.603

