@<TRIPOS>MOLECULE
BindingDB_50381093
 63 67 0 0 0
SMALL
NO_CHARGES


@<TRIPOS>ATOM
1    C         5.9317    7.3176    2.7531  C     
2    C         4.8948    6.4083    2.3911  C     
3    C         5.1706    5.4481    1.3821  C     
4    C         7.2321    7.2421    2.1865  C     
5    C         7.4371    6.3145    1.1452  C     
6    C         6.4305    5.4385    0.7624  C     
7    N         6.9300    4.6671   -0.2089  N     
8    C         8.1794    5.0238   -0.4642  C     
9    C         8.5132    6.0220    0.3668  C     
10   C         3.5461    6.4786    3.0609  C     
11   C         3.6371    6.5013    4.6254  C     
12   C         2.7462    7.7236    2.5542  C     
13   O         2.7201    5.3460    2.7470  O     
14   C         8.9486    4.4277   -1.4434  C     
15   N         8.5527    3.3894   -2.2047  N     
16   N         9.4890    3.0692   -3.0470  N     
17   C        10.2254    4.7565   -1.8697  C     
18   C        10.5415    3.8802   -2.8870  C     
19   C        11.8044    4.0429   -3.4787  C     
20   C        12.5294    5.0950   -2.9112  C     
21   S        11.5669    5.8120   -1.6709  S     
22   C         4.5533    5.4417    5.2780  C     
23   C         2.4630    7.7577    1.0317  C     
24   O         8.2968    8.0168    2.5877  O     
25   C         8.5428    8.1423    4.0118  C     
26   C         8.2235    9.5821    4.4867  C     
27   N         9.3905   10.5261    4.4618  N     
28   C        10.2976   10.3650    3.2898  C     
29   C        11.4554   11.4002    3.3295  C     
30   O        10.9458   12.7388    3.4538  O     
31   C        10.1126   12.9279    4.6220  C     
32   C         8.9302   11.9408    4.6210  C     
33   H         5.7563    8.0361    3.4483  H     
34   H         4.4644    4.7859    1.0583  H     
35   H         6.4492    3.9346   -0.6305  H     
36   H         9.3876    6.4905    0.4011  H     
37   H         3.9802    7.4840    4.9655  H     
38   H         2.6351    6.3645    5.0472  H     
39   H         1.7774    7.7543    3.0653  H     
40   H         3.2815    8.6442    2.8259  H     
41   H         3.2108    4.5442    3.0233  H     
42   H         9.4292    2.3525   -3.7048  H     
43   H        12.1470    3.4583   -4.2437  H     
44   H        13.4631    5.3944   -3.1856  H     
45   H         4.2232    4.4356    5.0221  H     
46   H         4.5268    5.5409    6.3637  H     
47   H         5.5893    5.5638    4.9516  H     
48   H         3.4022    7.8022    0.4713  H     
49   H         1.8747    8.6407    0.7858  H     
50   H         1.9079    6.8657    0.7169  H     
51   H         7.9826    7.4094    4.6080  H     
52   H         9.6111    7.9446    4.1888  H     
53   H         7.3942    9.9694    3.8833  H     
54   H         7.8694    9.5140    5.5218  H     
55   H         9.9239   10.2934    5.3014  H     
56   H        10.7314    9.3632    3.2938  H     
57   H         9.7408   10.4855    2.3633  H     
58   H        12.1273   11.1766    4.1593  H     
59   H        12.0323   11.3426    2.4028  H     
60   H        10.7111   12.8140    5.5298  H     
61   H         9.7304   13.9554    4.6011  H     
62   H         8.2470   12.2155    3.8107  H     
63   H         8.3908   12.0539    5.5691  H     
@<TRIPOS>BOND
     1    1    2 2
     2    1    4 1
     3    2    3 1
     4    2   10 1
     5    3    6 2
     6    4    5 2
     7    4   24 1
     8    5    6 1
     9    5    9 1
    10    6    7 1
    11    7    8 1
    12    8    9 2
    13    8   14 1
    14   10   11 1
    15   10   12 1
    16   10   13 1
    17   11   22 1
    18   12   23 1
    19   14   15 2
    20   14   17 1
    21   15   16 1
    22   16   18 1
    23   17   18 2
    24   17   21 1
    25   18   19 1
    26   19   20 2
    27   20   21 1
    28   24   25 1
    29   25   26 1
    30   26   27 1
    31   27   28 1
    32   27   32 1
    33   28   29 1
    34   29   30 1
    35   30   31 1
    36   31   32 1
    37    1   33 1
    38    3   34 1
    39    7   35 1
    40    9   36 1
    41   11   37 1
    42   11   38 1
    43   12   39 1
    44   12   40 1
    45   13   41 1
    46   16   42 1
    47   19   43 1
    48   20   44 1
    49   22   45 1
    50   22   46 1
    51   22   47 1
    52   23   48 1
    53   23   49 1
    54   23   50 1
    55   25   51 1
    56   25   52 1
    57   26   53 1
    58   26   54 1
    59   27   55 1
    60   28   56 1
    61   28   57 1
    62   29   58 1
    63   29   59 1
    64   31   60 1
    65   31   61 1
    66   32   62 1
    67   32   63 1
@<TRIPOS>PROPERTY_DATA
  Total_Score	| 10.3748
  Crash		| -0.9064
  Polar		| 5.6624
  FragIndex	| 1
  FragRMSD	| 0.257

