@<TRIPOS>MOLECULE
BindingDB_50381094
 42 45 0 0 0
SMALL
NO_CHARGES


@<TRIPOS>ATOM
1    C         6.0544    7.5804    2.5790  C     
2    C         5.0791    6.5510    2.4226  C     
3    C         5.3717    5.4965    1.5192  C     
4    C         7.2718    7.5622    1.8658  C     
5    C         7.5233    6.4964    0.9895  C     
6    C         6.5858    5.4909    0.8190  C     
7    N         7.0957    4.6264   -0.0710  N     
8    C         8.2866    5.0536   -0.4747  C     
9    C         8.5732    6.1927    0.1724  C     
10   C         3.7955    6.5268    3.2226  C     
11   C         2.5340    6.5874    2.2922  C     
12   C         3.7442    5.2738    4.1641  C     
13   O         3.6889    7.6778    4.0877  O     
14   C         9.0394    4.4102   -1.4430  C     
15   N         8.6222    3.3383   -2.1543  N     
16   N         9.5316    2.9878   -3.0148  N     
17   C        10.3086    4.7183   -1.9211  C     
18   C        10.5905    3.8037   -2.9152  C     
19   C        11.8348    3.9537   -3.5478  C     
20   C        12.5775    5.0219   -3.0355  C     
21   S        11.6577    5.7780   -1.7905  S     
22   C         2.5854    7.6778    1.1858  C     
23   C         4.6505    5.3466    5.4151  C     
24   H         5.8965    8.3588    3.2175  H     
25   H         4.7182    4.7249    1.3709  H     
26   H         7.9575    8.3095    1.9831  H     
27   H         6.6721    3.7998   -0.3507  H     
28   H         9.3853    6.7499    0.0580  H     
29   H         2.3730    5.6117    1.8055  H     
30   H         1.6372    6.7852    2.8934  H     
31   H         2.7272    5.1275    4.5121  H     
32   H         4.0225    4.3889    3.5898  H     
33   H         2.8826    7.5391    4.6399  H     
34   H         9.4493    2.2613   -3.6496  H     
35   H        12.1612    3.3421   -4.3055  H     
36   H        13.5046    5.3106   -3.3465  H     
37   H         2.4896    8.6652    1.6356  H     
38   H         1.7698    7.5354    0.4778  H     
39   H         3.5320    7.6286    0.6375  H     
40   H         5.6965    5.4886    5.1452  H     
41   H         4.5657    4.4080    5.9733  H     
42   H         4.3405    6.1538    6.0726  H     
@<TRIPOS>BOND
     1    1    2 2
     2    1    4 1
     3    2    3 1
     4    2   10 1
     5    3    6 2
     6    4    5 2
     7    5    6 1
     8    5    9 1
     9    6    7 1
    10    7    8 1
    11    8    9 2
    12    8   14 1
    13   10   11 1
    14   10   12 1
    15   10   13 1
    16   11   22 1
    17   12   23 1
    18   14   15 2
    19   14   17 1
    20   15   16 1
    21   16   18 1
    22   17   18 2
    23   17   21 1
    24   18   19 1
    25   19   20 2
    26   20   21 1
    27    1   24 1
    28    3   25 1
    29    4   26 1
    30    7   27 1
    31    9   28 1
    32   11   29 1
    33   11   30 1
    34   12   31 1
    35   12   32 1
    36   13   33 1
    37   16   34 1
    38   19   35 1
    39   20   36 1
    40   22   37 1
    41   22   38 1
    42   22   39 1
    43   23   40 1
    44   23   41 1
    45   23   42 1
@<TRIPOS>PROPERTY_DATA
  Total_Score	| 7.7441
  Crash		| -0.4484
  Polar		| 3.1488
  FragIndex	| 1
  FragRMSD	| 0.713

