@<TRIPOS>MOLECULE
BindingDB_50331263
 31 34 0 0 0
SMALL
NO_CHARGES


@<TRIPOS>ATOM
1    C        12.4926    5.6869   -2.4224  C     
2    C        12.7334    4.6517   -3.3549  C     
3    C        11.7631    3.6537   -3.5724  C     
4    C        11.2842    5.7251   -1.6928  C     
5    C        10.3125    4.7282   -1.9122  C     
6    C        10.5633    3.7278   -2.8440  C     
7    N         9.4731    2.9566   -2.8697  N     
8    N         8.6241    3.4027   -2.0419  N     
9    C         9.0543    4.4490   -1.4260  C     
10   C         8.2701    5.0938   -0.4771  C     
11   N         7.0454    4.6498   -0.1092  N     
12   C         8.5165    6.2605    0.2655  C     
13   C         7.4058    6.4877    1.0676  C     
14   C         6.4999    5.4727    0.7967  C     
15   C         5.2555    5.4087    1.4352  C     
16   C         4.9134    6.4027    2.3871  C     
17   C         5.8537    7.4300    2.6702  C     
18   C         7.0997    7.4838    2.0094  C     
19   C         3.6543    6.3604    3.0382  C     
20   O         3.3489    7.1680    4.0806  O     
21   O         2.6911    5.4804    2.6700  O     
22   H        13.1981    6.4138   -2.2792  H     
23   H        13.6104    4.6291   -3.8798  H     
24   H        11.9225    2.8975   -4.2418  H     
25   H        11.1288    6.4822   -1.0332  H     
26   H         9.3337    2.2025   -3.4663  H     
27   H         6.6296    3.8270   -0.4110  H     
28   H         9.3423    6.8522    0.2409  H     
29   H         4.6184    4.6434    1.2038  H     
30   H         5.6377    8.1582    3.3563  H     
31   H         7.7666    8.2300    2.2148  H     
@<TRIPOS>BOND
     1    1    2 2
     2    1    4 1
     3    2    3 1
     4    3    6 2
     5    4    5 2
     6    5    6 1
     7    5    9 1
     8    6    7 1
     9    7    8 1
    10    8    9 2
    11    9   10 1
    12   10   11 1
    13   10   12 2
    14   11   14 1
    15   12   13 1
    16   13   14 2
    17   13   18 1
    18   14   15 1
    19   15   16 2
    20   16   17 1
    21   16   19 1
    22   17   18 2
    23   19   20 1
    24   19   21 2
    25    1   22 1
    26    2   23 1
    27    3   24 1
    28    4   25 1
    29    7   26 1
    30   11   27 1
    31   12   28 1
    32   15   29 1
    33   17   30 1
    34   18   31 1
@<TRIPOS>PROPERTY_DATA
  Total_Score	| 6.5617
  Crash		| -0.1746
  Polar		| 3.0095
  FragIndex	| 1
  FragRMSD	| 0.192

