@<TRIPOS>MOLECULE
BindingDB_50320990
 75 79 0 0 0
SMALL
NO_CHARGES


@<TRIPOS>ATOM
1    C         5.4791    5.6116    1.1793  C     
2    C         4.4591    6.5891    1.6325  C     
3    C         4.3329    6.9081    3.0046  C     
4    C         3.3672    7.8380    3.4365  C     
5    C         2.4967    8.4607    2.5216  C     
6    C         2.6089    8.1208    1.1495  C     
7    C         3.5891    7.2178    0.7125  C     
8    O         1.5650    9.3141    3.0701  O     
9    C         1.2249   10.5489    2.4145  C     
10   C        10.0789    5.3797   -0.7932  C     
11   N         9.2141    2.7426   -2.9517  N     
12   N         8.9379    3.5773   -2.0024  N     
13   C        10.0065    4.3684   -1.7801  C     
14   C        11.0046    3.9913   -2.6946  C     
15   C        10.4568    2.9298   -3.3986  C     
16   N        11.2575    5.8850   -0.3894  N     
17   C         9.0630    6.0571   -0.0910  C     
18   C         9.6940    7.1159    0.5906  C     
19   C         9.2760    8.2383    1.3233  C     
20   C        10.2411    9.0846    1.9215  C     
21   C        11.6489    8.8268    1.8311  C     
22   C        12.0307    7.7208    1.0413  C     
23   C        11.0607    6.9210    0.4161  C     
24   C        12.5737    9.5801    2.6012  C     
25   O        12.1110    9.9000    3.6961  O     
26   N        13.8470    9.9755    2.3250  N     
27   C        14.5200    9.8110    1.0342  C     
28   C        14.2073   10.9089   -0.0390  C     
29   C        14.6511   10.7009    3.3113  C     
30   C        14.8256   10.5176   -1.4096  C     
31   C        12.7105   11.2911   -0.2071  C     
32   C        12.2799    4.5426   -2.9884  C     
33   C        12.5080    5.9372   -2.9244  C     
34   C        13.7885    6.4706   -3.1535  C     
35   C        14.8556    5.6172   -3.4962  C     
36   C        14.6353    4.2366   -3.6262  C     
37   C        13.3545    3.7043   -3.3837  C     
38   C         7.6457    5.6305   -0.0634  C     
39   N         6.7895    6.2698    0.9600  N     
40   H         5.5934    4.8388    1.9441  H     
41   H         5.1464    5.1141    0.2616  H     
42   H         4.9442    6.4681    3.6932  H     
43   H         3.3023    8.0534    4.4346  H     
44   H         1.9840    8.5367    0.4558  H     
45   H         3.6564    7.0050   -0.2900  H     
46   H         2.1170   11.1396    2.1857  H     
47   H         0.5880   11.1291    3.0829  H     
48   H         0.6664   10.3515    1.4959  H     
49   H         8.6109    2.0833   -3.3279  H     
50   H        10.8884    2.4038   -4.1593  H     
51   H        12.1272    5.5817   -0.6935  H     
52   H         8.2877    8.4655    1.4187  H     
53   H         9.9009    9.8887    2.4565  H     
54   H        12.9913    7.4300    0.9497  H     
55   H        15.6078    9.8583    1.1780  H     
56   H        14.4080    8.8098    0.6433  H     
57   H        14.7135   11.8252    0.2931  H     
58   H        14.9119   11.6881    2.9235  H     
59   H        15.5706   10.1486    3.5096  H     
60   H        14.1737   10.8579    4.2777  H     
61   H        15.8944   10.3175   -1.3054  H     
62   H        14.7047   11.3268   -2.1300  H     
63   H        14.3402    9.6238   -1.8045  H     
64   H        12.1232   10.4241   -0.5090  H     
65   H        12.6025   12.0697   -0.9655  H     
66   H        12.3107   11.6885    0.7274  H     
67   H        11.7465    6.5803   -2.7009  H     
68   H        13.9444    7.4783   -3.0692  H     
69   H        15.7937    5.9955   -3.6564  H     
70   H        15.4111    3.6178   -3.8849  H     
71   H        13.2266    2.6939   -3.4732  H     
72   H         7.2177    5.8123   -1.0500  H     
73   H         7.6371    4.5515    0.1134  H     
74   H         6.6276    7.2408    0.6839  H     
75   H         7.2857    6.2719    1.8533  H     
@<TRIPOS>BOND
     1    1    2 1
     2    1   39 1
     3    2    3 2
     4    2    7 1
     5    3    4 1
     6    4    5 2
     7    5    6 1
     8    5    8 1
     9    6    7 2
    10    8    9 1
    11   10   13 1
    12   10   16 1
    13   10   17 2
    14   11   12 1
    15   11   15 1
    16   12   13 2
    17   13   14 1
    18   14   15 2
    19   14   32 1
    20   16   23 1
    21   17   18 1
    22   17   38 1
    23   18   19 1
    24   18   23 2
    25   19   20 2
    26   20   21 1
    27   21   22 2
    28   21   24 1
    29   22   23 1
    30   24   25 2
    31   24   26 am
    32   26   27 1
    33   26   29 1
    34   27   28 1
    35   28   30 1
    36   28   31 1
    37   32   33 2
    38   32   37 1
    39   33   34 1
    40   34   35 2
    41   35   36 1
    42   36   37 2
    43   38   39 1
    44    1   40 1
    45    1   41 1
    46    3   42 1
    47    4   43 1
    48    6   44 1
    49    7   45 1
    50    9   46 1
    51    9   47 1
    52    9   48 1
    53   11   49 1
    54   15   50 1
    55   16   51 1
    56   19   52 1
    57   20   53 1
    58   22   54 1
    59   27   55 1
    60   27   56 1
    61   28   57 1
    62   29   58 1
    63   29   59 1
    64   29   60 1
    65   30   61 1
    66   30   62 1
    67   30   63 1
    68   31   64 1
    69   31   65 1
    70   31   66 1
    71   33   67 1
    72   34   68 1
    73   35   69 1
    74   36   70 1
    75   37   71 1
    76   38   72 1
    77   38   73 1
    78   39   74 1
    79   39   75 1
@<TRIPOS>PROPERTY_DATA
  Total_Score	| 7.9828
  Crash		| -3.3566
  Polar		| 0.7433
  FragIndex	| 1
  FragRMSD	| 1.271

