@<TRIPOS>MOLECULE
BindingDB_50330598
 53 55 0 0 0
SMALL
NO_CHARGES


@<TRIPOS>ATOM
1    C       -26.5889   22.3583  -21.4164  C     
2    C       -26.5198   21.0943  -20.7783  C     
3    N       -25.9548   21.0811  -19.5397  N     
4    C       -25.4222   22.1626  -18.9078  C     
5    C       -25.4888   23.4035  -19.5864  C     
6    N       -26.0787   23.4465  -20.7993  N     
7    N       -25.0877   24.5587  -19.0413  N     
8    N       -24.8205   21.9947  -17.6919  N     
9    C       -25.3816   21.0821  -16.7103  C     
10   C       -25.1493   21.6090  -15.2687  C     
11   C       -23.6292   21.8613  -15.0023  C     
12   C       -23.0678   22.8160  -16.1151  C     
13   C       -23.4103   22.3168  -17.5441  C     
14   C       -23.4068   22.3070  -13.6263  C     
15   N       -22.6836   23.3617  -13.3051  N     
16   O       -23.8733   21.6638  -12.6844  O     
17   C       -26.9095   19.8723  -21.4078  C     
18   C       -27.8592   19.8264  -22.4604  C     
19   C       -28.1429   18.6288  -23.1587  C     
20   C       -27.5166   17.4243  -22.7698  C     
21   C       -26.6190   17.4370  -21.6768  C     
22   C       -26.3049   18.6488  -21.0319  C     
23   O       -25.9806   16.2981  -21.2767  O     
24   C       -26.8201   15.3692  -20.5646  C     
25   O       -27.8446   16.2545  -23.3940  O     
26   C       -26.7537   15.6297  -24.0921  C     
27   O       -29.0610   18.6136  -24.1772  O     
28   C       -28.5981   19.1993  -25.4060  C     
29   H       -26.9809   22.4734  -22.3507  H     
30   H       -25.2098   25.4001  -19.5099  H     
31   H       -24.7287   24.5640  -18.1386  H     
32   H       -26.4663   20.9664  -16.8501  H     
33   H       -24.9252   20.0873  -16.8289  H     
34   H       -25.6994   22.5522  -15.1410  H     
35   H       -25.5455   20.8810  -14.5533  H     
36   H       -23.1165   20.8903  -15.1097  H     
37   H       -23.4826   23.8243  -16.0015  H     
38   H       -21.9776   22.8771  -16.0241  H     
39   H       -22.8391   21.4052  -17.7165  H     
40   H       -23.0627   23.0504  -18.2749  H     
41   H       -22.5580   23.5961  -12.3705  H     
42   H       -22.2506   23.8924  -13.9985  H     
43   H       -28.3780   20.6656  -22.7211  H     
44   H       -25.6056   18.6277  -20.2825  H     
45   H       -27.2049   15.8027  -19.6375  H     
46   H       -26.2117   14.5055  -20.3079  H     
47   H       -27.6554   15.0260  -21.1778  H     
48   H       -26.3829   16.2542  -24.9066  H     
49   H       -27.1135   14.6919  -24.5204  H     
50   H       -25.9292   15.3900  -23.4186  H     
51   H       -28.3620   20.2586  -25.2798  H     
52   H       -29.3854   19.1179  -26.1547  H     
53   H       -27.7180   18.6845  -25.7865  H     
@<TRIPOS>BOND
     1    1    2 2
     2    1    6 1
     3    2    3 1
     4    2   17 1
     5    3    4 2
     6    4    5 1
     7    4    8 1
     8    5    6 2
     9    5    7 1
    10    8    9 1
    11    8   13 1
    12    9   10 1
    13   10   11 1
    14   11   12 1
    15   11   14 1
    16   12   13 1
    17   14   15 am
    18   14   16 2
    19   17   18 2
    20   17   22 1
    21   18   19 1
    22   19   20 2
    23   19   27 1
    24   20   21 1
    25   20   25 1
    26   21   22 2
    27   21   23 1
    28   23   24 1
    29   25   26 1
    30   27   28 1
    31    1   29 1
    32    7   30 1
    33    7   31 1
    34    9   32 1
    35    9   33 1
    36   10   34 1
    37   10   35 1
    38   11   36 1
    39   12   37 1
    40   12   38 1
    41   13   39 1
    42   13   40 1
    43   15   41 1
    44   15   42 1
    45   18   43 1
    46   22   44 1
    47   24   45 1
    48   24   46 1
    49   24   47 1
    50   26   48 1
    51   26   49 1
    52   26   50 1
    53   28   51 1
    54   28   52 1
    55   28   53 1
@<TRIPOS>PROPERTY_DATA
  Total_Score	| 7.9118
  Crash		| -2.1334
  Polar		| 4.8148
  FragIndex	| 1
  FragRMSD	| 0.081

