@<TRIPOS>MOLECULE
BindingDB_50330592
 54 56 0 0 0
SMALL
NO_CHARGES


@<TRIPOS>ATOM
1    C       -26.5213   22.3512  -21.4158  C     
2    C       -26.4136   21.0818  -20.7987  C     
3    N       -25.8113   21.0686  -19.5723  N     
4    C       -25.3155   22.1521  -18.9083  C     
5    C       -25.4766   23.4066  -19.5542  C     
6    N       -26.0663   23.4487  -20.7778  N     
7    N       -25.1997   24.5962  -18.9981  N     
8    N       -24.6536   21.9448  -17.7273  N     
9    C       -25.1868   21.0444  -16.7272  C     
10   C       -25.0344   21.6426  -15.2890  C     
11   C       -23.5994   22.2484  -15.0138  C     
12   C       -22.6296   22.0492  -16.2146  C     
13   C       -23.3082   22.4696  -17.5397  C     
14   C       -23.0213   21.7801  -13.7304  C     
15   O       -21.7000   21.5306  -13.5698  O     
16   O       -23.7811   21.8513  -12.6150  O     
17   C       -26.8345   19.8601  -21.4156  C     
18   C       -27.8135   19.8328  -22.4409  C     
19   C       -28.1280   18.6514  -23.1375  C     
20   C       -27.5241   17.4330  -22.7589  C     
21   C       -26.6098   17.4141  -21.6801  C     
22   C       -26.2522   18.6225  -21.0465  C     
23   O       -25.9827   16.2548  -21.3035  O     
24   C       -26.8543   15.2961  -20.6749  C     
25   O       -27.8908   16.2675  -23.3872  O     
26   C       -26.8361   15.6456  -24.1405  C     
27   O       -29.0574   18.6662  -24.1495  O     
28   C       -28.5689   19.2320  -25.3821  C     
29   C       -26.1574   22.6906  -15.0244  C     
30   H       -26.9326   22.4722  -22.3431  H     
31   H       -25.3468   25.4148  -19.4937  H     
32   H       -24.9044   24.6547  -18.0758  H     
33   H       -26.2374   20.7976  -16.9085  H     
34   H       -24.6374   20.1039  -16.7697  H     
35   H       -25.2191   20.8108  -14.5974  H     
36   H       -23.6890   23.3331  -14.8962  H     
37   H       -21.7163   22.6370  -16.0735  H     
38   H       -22.3483   20.9985  -16.2699  H     
39   H       -22.6722   22.1363  -18.3661  H     
40   H       -23.3115   23.5582  -17.5445  H     
41   H       -28.3123   20.6873  -22.6971  H     
42   H       -25.5387   18.5874  -20.3131  H     
43   H       -27.3113   15.7117  -19.7740  H     
44   H       -26.2622   14.4264  -20.3851  H     
45   H       -27.6382   14.9586  -21.3576  H     
46   H       -26.4701   16.3022  -24.9322  H     
47   H       -27.2339   14.7427  -24.6048  H     
48   H       -26.0008   15.3576  -23.4983  H     
49   H       -28.3209   20.2909  -25.2687  H     
50   H       -29.3594   19.1499  -26.1287  H     
51   H       -27.6913   18.6984  -25.7552  H     
52   H       -26.1437   23.4733  -15.7862  H     
53   H       -26.0255   23.1607  -14.0503  H     
54   H       -27.1335   22.2068  -15.0342  H     
@<TRIPOS>BOND
     1    1    2 2
     2    1    6 1
     3    2    3 1
     4    2   17 1
     5    3    4 2
     6    4    5 1
     7    4    8 1
     8    5    6 2
     9    5    7 1
    10    8    9 1
    11    8   13 1
    12    9   10 1
    13   10   11 1
    14   10   29 1
    15   11   12 1
    16   11   14 1
    17   12   13 1
    18   14   15 1
    19   14   16 2
    20   17   18 2
    21   17   22 1
    22   18   19 1
    23   19   20 2
    24   19   27 1
    25   20   21 1
    26   20   25 1
    27   21   22 2
    28   21   23 1
    29   23   24 1
    30   25   26 1
    31   27   28 1
    32    1   30 1
    33    7   31 1
    34    7   32 1
    35    9   33 1
    36    9   34 1
    37   10   35 1
    38   11   36 1
    39   12   37 1
    40   12   38 1
    41   13   39 1
    42   13   40 1
    43   18   41 1
    44   22   42 1
    45   24   43 1
    46   24   44 1
    47   24   45 1
    48   26   46 1
    49   26   47 1
    50   26   48 1
    51   28   49 1
    52   28   50 1
    53   28   51 1
    54   29   52 1
    55   29   53 1
    56   29   54 1
@<TRIPOS>PROPERTY_DATA
  Total_Score	| 9.1158
  Crash		| -2.6372
  Polar		| 5.8723
  FragIndex	| 1
  FragRMSD	| 0.064

