@<TRIPOS>MOLECULE
BindingDB_50330579
 46 48 0 0 0
SMALL
NO_CHARGES


@<TRIPOS>ATOM
1    O       -21.5796   21.6583  -13.6945  O     
2    C       -22.9217   21.7632  -13.8472  C     
3    O       -23.6580   21.7777  -12.7144  O     
4    C       -23.5262   21.8645  -15.1233  C     
5    C       -22.7449   22.0464  -16.2896  C     
6    C       -23.3508   22.1546  -17.5558  C     
7    C       -24.9334   21.7907  -15.2641  C     
8    C       -25.5415   21.8821  -16.5297  C     
9    C       -24.7520   22.0661  -17.6858  C     
10   C       -25.3643   22.2142  -18.9456  C     
11   N       -25.8246   21.1140  -19.6032  N     
12   C       -25.5086   23.4657  -19.5823  C     
13   N       -25.1081   24.6222  -19.0280  N     
14   N       -26.0744   23.5029  -20.8114  N     
15   C       -26.5283   22.3948  -21.4479  C     
16   C       -26.4105   21.1249  -20.8361  C     
17   C       -26.8138   19.8984  -21.4582  C     
18   C       -27.7572   19.8485  -22.5172  C     
19   C       -26.2371   18.6668  -21.0529  C     
20   C       -26.5582   17.4494  -21.6831  C     
21   O       -25.9312   16.3089  -21.2670  O     
22   C       -26.7948   15.4386  -20.5094  C     
23   C       -27.4558   17.4346  -22.7740  C     
24   O       -27.8194   16.2493  -23.3662  O     
25   C       -26.7726   15.5857  -24.1026  C     
26   C       -28.0604   18.6407  -23.1828  C     
27   O       -28.9654   18.6226  -24.2071  O     
28   C       -28.4267   19.1518  -25.4323  C     
29   H       -21.7243   22.1243  -16.2311  H     
30   H       -22.7612   22.3045  -18.3801  H     
31   H       -25.5361   21.6801  -14.4452  H     
32   H       -26.5581   21.8381  -16.5979  H     
33   H       -25.2202   25.4635  -19.4971  H     
34   H       -24.7179   24.6183  -18.1403  H     
35   H       -26.9149   22.5058  -22.3852  H     
36   H       -28.2464   20.6913  -22.8251  H     
37   H       -25.5667   18.6424  -20.2851  H     
38   H       -27.2261   15.9428  -19.6388  H     
39   H       -26.1973   14.6016  -20.1502  H     
40   H       -27.5949   15.0489  -21.1431  H     
41   H       -26.3699   16.2147  -24.8997  H     
42   H       -27.1987   14.6937  -24.5628  H     
43   H       -25.9649   15.2708  -23.4396  H     
44   H       -28.2094   20.2175  -25.3349  H     
45   H       -29.1739   19.0203  -26.2138  H     
46   H       -27.5218   18.6234  -25.7390  H     
@<TRIPOS>BOND
     1    1    2 1
     2    2    3 2
     3    2    4 1
     4    4    5 1
     5    4    7 2
     6    5    6 2
     7    6    9 1
     8    7    8 1
     9    8    9 2
    10    9   10 1
    11   10   11 2
    12   10   12 1
    13   11   16 1
    14   12   13 1
    15   12   14 2
    16   14   15 1
    17   15   16 2
    18   16   17 1
    19   17   18 1
    20   17   19 2
    21   18   26 2
    22   19   20 1
    23   20   21 1
    24   20   23 2
    25   21   22 1
    26   23   24 1
    27   23   26 1
    28   24   25 1
    29   26   27 1
    30   27   28 1
    31    5   29 1
    32    6   30 1
    33    7   31 1
    34    8   32 1
    35   13   33 1
    36   13   34 1
    37   15   35 1
    38   18   36 1
    39   19   37 1
    40   22   38 1
    41   22   39 1
    42   22   40 1
    43   25   41 1
    44   25   42 1
    45   25   43 1
    46   28   44 1
    47   28   45 1
    48   28   46 1
@<TRIPOS>PROPERTY_DATA
  Total_Score	| 10.1965
  Crash		| -0.7044
  Polar		| 6.0573
  FragIndex	| 1
  FragRMSD	| 0.126

