@<TRIPOS>MOLECULE
BindingDB_50330600
 49 51 0 0 0
SMALL
NO_CHARGES


@<TRIPOS>ATOM
1    C       -26.5471   22.3472  -21.3992  C     
2    C       -26.4577   21.0724  -20.7929  C     
3    N       -25.8355   21.0308  -19.5801  N     
4    C       -25.2990   22.1010  -18.9183  C     
5    C       -25.4300   23.3635  -19.5513  C     
6    N       -26.0413   23.4310  -20.7607  N     
7    N       -25.0368   24.5224  -18.9908  N     
8    N       -24.6429   21.8771  -17.7415  N     
9    C       -23.2519   22.2528  -17.5535  C     
10   C       -23.0280   22.9899  -16.2079  C     
11   C       -23.6677   22.2203  -15.0203  C     
12   C       -25.1402   21.8501  -15.3292  C     
13   C       -25.2497   21.0929  -16.6815  C     
14   C       -26.8722   19.8580  -21.4349  C     
15   C       -26.3018   18.6115  -21.0607  C     
16   C       -26.6437   17.4143  -21.7223  C     
17   C       -27.5314   17.4435  -22.8236  C     
18   C       -28.1099   18.6707  -23.2181  C     
19   C       -27.8079   19.8479  -22.5005  C     
20   O       -28.9946   18.7028  -24.2632  O     
21   C       -28.4387   19.2611  -25.4688  C     
22   O       -27.8644   16.2866  -23.4823  O     
23   C       -26.7848   15.6528  -24.1889  C     
24   O       -26.0261   16.2482  -21.3508  O     
25   C       -26.8739   15.3447  -20.6178  C     
26   H       -26.9567   22.4775  -22.3254  H     
27   H       -25.1851   25.3668  -19.4520  H     
28   H       -24.6422   24.5186  -18.1021  H     
29   H       -22.6514   21.3438  -17.5455  H     
30   H       -22.8597   22.8664  -18.3656  H     
31   H       -21.9554   23.1035  -16.0246  H     
32   H       -23.4719   23.9835  -16.2809  H     
33   H       -23.0952   21.3055  -14.8328  H     
34   H       -23.6226   22.8344  -14.1146  H     
35   H       -25.5354   21.2280  -14.5228  H     
36   H       -25.7403   22.7662  -15.3743  H     
37   H       -26.3087   20.8881  -16.8731  H     
38   H       -24.7403   20.1296  -16.5953  H     
39   H       -25.6064   18.5657  -20.3160  H     
40   H       -28.2794   20.7133  -22.7804  H     
41   H       -28.1900   20.3165  -25.3387  H     
42   H       -29.1879   19.1839  -26.2568  H     
43   H       -27.5482   18.7201  -25.7945  H     
44   H       -26.3680   16.3139  -24.9535  H     
45   H       -27.1740   14.7614  -24.6853  H     
46   H       -25.9918   15.3457  -23.5003  H     
47   H       -27.2701   15.8073  -19.7094  H     
48   H       -26.2751   14.4825  -20.3239  H     
49   H       -27.7016   14.9897  -21.2363  H     
@<TRIPOS>BOND
     1    1    2 2
     2    1    6 1
     3    2    3 1
     4    2   14 1
     5    3    4 2
     6    4    5 1
     7    4    8 1
     8    5    6 2
     9    5    7 1
    10    8    9 1
    11    8   13 1
    12    9   10 1
    13   10   11 1
    14   11   12 1
    15   12   13 1
    16   14   15 2
    17   14   19 1
    18   15   16 1
    19   16   17 2
    20   16   24 1
    21   17   18 1
    22   17   22 1
    23   18   19 2
    24   18   20 1
    25   20   21 1
    26   22   23 1
    27   24   25 1
    28    1   26 1
    29    7   27 1
    30    7   28 1
    31    9   29 1
    32    9   30 1
    33   10   31 1
    34   10   32 1
    35   11   33 1
    36   11   34 1
    37   12   35 1
    38   12   36 1
    39   13   37 1
    40   13   38 1
    41   15   39 1
    42   19   40 1
    43   21   41 1
    44   21   42 1
    45   21   43 1
    46   23   44 1
    47   23   45 1
    48   23   46 1
    49   25   47 1
    50   25   48 1
    51   25   49 1
@<TRIPOS>PROPERTY_DATA
  Total_Score	| 6.5137
  Crash		| -2.2200
  Polar		| 3.0923
  FragIndex	| 1
  FragRMSD	| 0.099

