@<TRIPOS>MOLECULE
BindingDB_50330599
 55 57 0 0 0
SMALL
NO_CHARGES


@<TRIPOS>ATOM
1    C       -26.6656   22.3815  -21.3791  C     
2    C       -26.6220   21.0999  -20.7893  C     
3    N       -26.2314   21.0673  -19.4883  N     
4    C       -25.8385   22.1030  -18.7031  C     
5    C       -25.7828   23.3560  -19.3805  C     
6    N       -26.2082   23.4388  -20.6634  N     
7    N       -25.2194   24.4877  -18.9087  N     
8    N       -25.5554   21.8357  -17.3700  N     
9    C       -25.3167   22.8679  -16.3700  C     
10   C       -26.0383   22.5827  -15.0224  C     
11   C       -25.7547   21.1598  -14.4568  C     
12   C       -26.0876   20.1336  -15.5780  C     
13   C       -25.3424   20.4714  -16.8994  C     
14   C       -24.3835   21.0252  -13.8728  C     
15   O       -23.4675   20.1516  -14.3895  O     
16   O       -24.0830   21.6844  -12.7302  O     
17   C       -26.9349   19.8929  -21.4790  C     
18   C       -27.8941   19.8521  -22.5229  C     
19   C       -28.1850   18.6559  -23.2195  C     
20   C       -27.5543   17.4535  -22.8334  C     
21   C       -26.6436   17.4550  -21.7519  C     
22   C       -26.3198   18.6690  -21.1088  C     
23   O       -26.0079   16.3000  -21.3675  O     
24   C       -26.8587   15.3791  -20.6586  C     
25   O       -27.9251   16.2763  -23.4415  O     
26   C       -26.8650   15.6382  -24.1803  C     
27   O       -29.1638   18.6316  -24.1847  O     
28   C       -28.7602   19.1736  -25.4559  C     
29   C       -22.1402   19.9160  -13.8987  C     
30   H       -26.9623   22.5233  -22.3438  H     
31   H       -25.1967   25.2806  -19.4712  H     
32   H       -24.7511   24.4809  -18.0560  H     
33   H       -24.2355   22.9565  -16.1933  H     
34   H       -25.6928   23.8411  -16.6776  H     
35   H       -25.7590   23.3485  -14.2962  H     
36   H       -27.1191   22.6916  -15.1858  H     
37   H       -26.4412   20.9711  -13.6312  H     
38   H       -25.8282   19.1182  -15.2566  H     
39   H       -27.1665   20.1450  -15.7716  H     
40   H       -25.6282   19.7007  -17.6184  H     
41   H       -24.2654   20.3612  -16.7313  H     
42   H       -28.4157   20.6907  -22.7791  H     
43   H       -25.6238   18.6410  -20.3586  H     
44   H       -27.2587   15.8338  -19.7454  H     
45   H       -26.2586   14.5094  -20.3822  H     
46   H       -27.6821   15.0323  -21.2870  H     
47   H       -26.4665   16.3035  -24.9539  H     
48   H       -27.2820   14.7543  -24.6694  H     
49   H       -26.0561   15.3067  -23.5199  H     
50   H       -28.5000   20.2340  -25.3800  H     
51   H       -29.6006   19.0846  -26.1423  H     
52   H       -27.9151   18.6262  -25.8849  H     
53   H       -21.5606   20.8381  -13.9322  H     
54   H       -21.6467   19.1878  -14.5421  H     
55   H       -22.1639   19.5386  -12.8725  H     
@<TRIPOS>BOND
     1    1    2 2
     2    1    6 1
     3    2    3 1
     4    2   17 1
     5    3    4 2
     6    4    5 1
     7    4    8 1
     8    5    6 2
     9    5    7 1
    10    8    9 1
    11    8   13 1
    12    9   10 1
    13   10   11 1
    14   11   12 1
    15   11   14 1
    16   12   13 1
    17   14   15 1
    18   14   16 2
    19   15   29 1
    20   17   18 2
    21   17   22 1
    22   18   19 1
    23   19   20 2
    24   19   27 1
    25   20   21 1
    26   20   25 1
    27   21   22 2
    28   21   23 1
    29   23   24 1
    30   25   26 1
    31   27   28 1
    32    1   30 1
    33    7   31 1
    34    7   32 1
    35    9   33 1
    36    9   34 1
    37   10   35 1
    38   10   36 1
    39   11   37 1
    40   12   38 1
    41   12   39 1
    42   13   40 1
    43   13   41 1
    44   18   42 1
    45   22   43 1
    46   24   44 1
    47   24   45 1
    48   24   46 1
    49   26   47 1
    50   26   48 1
    51   26   49 1
    52   28   50 1
    53   28   51 1
    54   28   52 1
    55   29   53 1
    56   29   54 1
    57   29   55 1
@<TRIPOS>PROPERTY_DATA
  Total_Score	| 8.7345
  Crash		| -2.4880
  Polar		| 4.4518
  FragIndex	| 1
  FragRMSD	| 0.222

