@<TRIPOS>MOLECULE
BindingDB_50385918
 68 71 0 0 0
SMALL
NO_CHARGES


@<TRIPOS>ATOM
1    C       -26.3507   22.5046  -21.3039  C     
2    C       -26.2464   21.2177  -20.7230  C     
3    N       -25.6536   21.1596  -19.4990  N     
4    C       -25.1645   22.2258  -18.8099  C     
5    C       -25.2926   23.4989  -19.4121  C     
6    N       -25.8729   23.5820  -20.6342  N     
7    C       -26.7171   20.0085  -21.3328  C     
8    C       -26.1565   18.7584  -20.9762  C     
9    C       -26.6284   17.5661  -21.5460  C     
10   C       -27.6590   17.6003  -22.4957  C     
11   C       -28.2406   18.8246  -22.9037  C     
12   C       -27.7615   20.0087  -22.2946  C     
13   N       -24.9027   24.6392  -18.8155  N     
14   C       -24.5831   21.9873  -17.5403  C     
15   C       -25.2937   21.2646  -16.5585  C     
16   C       -24.7098   20.9182  -15.3138  C     
17   C       -23.4075   21.4127  -14.9913  C     
18   C       -22.7127   22.1514  -15.9849  C     
19   C       -23.2796   22.4218  -17.2391  C     
20   C       -22.7888   21.2144  -13.7458  C     
21   O       -21.5929   21.4149  -13.5838  O     
22   N       -23.4176   20.8896  -12.6345  N     
23   O       -25.3390   20.0697  -14.4218  O     
24   C       -26.4733   19.1709  -14.6286  C     
25   C       -26.0394   17.7810  -15.0863  C     
26   C       -27.2445   19.4195  -13.3034  C     
27   C       -25.1194   17.7924  -16.1709  C     
28   C       -24.5113   16.6392  -16.6779  C     
29   C       -24.8407   15.3979  -16.1339  C     
30   C       -25.8199   15.3264  -15.1381  C     
31   C       -26.4765   16.4834  -14.6288  C     
32   C       -27.6482   16.2347  -13.7233  C     
33   F       -28.0239   14.9215  -13.5673  F     
34   F       -27.3932   16.6447  -12.4413  F     
35   F       -28.7821   16.8097  -14.2408  F     
36   C       -29.3362   18.7645  -23.9241  C     
37   N       -29.8448   19.9708  -24.6578  N     
38   C       -30.7928   20.8314  -23.8947  C     
39   C       -28.8035   20.7395  -25.4016  C     
40   H       -26.7586   22.6515  -22.2289  H     
41   H       -25.3894   18.6966  -20.3015  H     
42   H       -26.2203   16.6722  -21.2649  H     
43   H       -27.9763   16.7166  -22.9004  H     
44   H       -28.2032   20.8900  -22.5249  H     
45   H       -25.0376   25.4921  -19.2565  H     
46   H       -24.5028   24.6199  -17.9317  H     
47   H       -26.2423   20.9602  -16.7836  H     
48   H       -21.7709   22.5121  -15.8113  H     
49   H       -22.7323   22.9377  -17.9313  H     
50   H       -22.9137   20.8409  -11.8041  H     
51   H       -24.3755   20.7539  -12.6190  H     
52   H       -27.1381   19.5508  -15.4075  H     
53   H       -26.6844   19.0303  -12.4581  H     
54   H       -28.2465   19.0013  -13.3231  H     
55   H       -27.3816   20.4975  -13.1374  H     
56   H       -24.8592   18.6607  -16.6265  H     
57   H       -23.8409   16.7021  -17.4457  H     
58   H       -24.4081   14.5453  -16.4971  H     
59   H       -26.0618   14.3894  -14.8071  H     
60   H       -29.0094   18.0782  -24.7135  H     
61   H       -30.1887   18.2698  -23.4464  H     
62   H       -30.4261   19.5726  -25.3998  H     
63   H       -31.6657   20.2452  -23.5945  H     
64   H       -31.1572   21.6520  -24.5177  H     
65   H       -30.3411   21.2607  -23.0007  H     
66   H       -28.2338   21.4017  -24.7510  H     
67   H       -29.2781   21.3490  -26.1715  H     
68   H       -28.1103   20.0600  -25.9000  H     
@<TRIPOS>BOND
     1    1    2 2
     2    1    6 1
     3    2    3 1
     4    2    7 1
     5    3    4 2
     6    4    5 1
     7    4   14 1
     8    5    6 2
     9    5   13 1
    10    7    8 2
    11    7   12 1
    12    8    9 1
    13    9   10 2
    14   10   11 1
    15   11   12 2
    16   11   36 1
    17   14   15 2
    18   14   19 1
    19   15   16 1
    20   16   17 2
    21   16   23 1
    22   17   18 1
    23   17   20 1
    24   18   19 2
    25   20   21 2
    26   20   22 am
    27   23   24 1
    28   24   25 1
    29   24   26 1
    30   25   27 2
    31   25   31 1
    32   27   28 1
    33   28   29 2
    34   29   30 1
    35   30   31 2
    36   31   32 1
    37   32   33 1
    38   32   34 1
    39   32   35 1
    40   36   37 1
    41   37   38 1
    42   37   39 1
    43    1   40 1
    44    8   41 1
    45    9   42 1
    46   10   43 1
    47   12   44 1
    48   13   45 1
    49   13   46 1
    50   15   47 1
    51   18   48 1
    52   19   49 1
    53   22   50 1
    54   22   51 1
    55   24   52 1
    56   26   53 1
    57   26   54 1
    58   26   55 1
    59   27   56 1
    60   28   57 1
    61   29   58 1
    62   30   59 1
    63   36   60 1
    64   36   61 1
    65   37   62 1
    66   38   63 1
    67   38   64 1
    68   38   65 1
    69   39   66 1
    70   39   67 1
    71   39   68 1
@<TRIPOS>PROPERTY_DATA
  Total_Score	| 11.2993
  Crash		| -1.1742
  Polar		| 4.0974
  FragIndex	| 1
  FragRMSD	| 0.636

