@<TRIPOS>MOLECULE
BindingDB_50330595
 54 56 0 0 0
SMALL
NO_CHARGES


@<TRIPOS>ATOM
1    C       -26.5980   22.3607  -21.4022  C     
2    C       -26.4935   21.0856  -20.7958  C     
3    N       -25.8676   21.0543  -19.5866  N     
4    C       -25.3498   22.1211  -18.9175  C     
5    C       -25.5063   23.3833  -19.5444  C     
6    N       -26.1119   23.4475  -20.7584  N     
7    N       -25.1506   24.5458  -18.9707  N     
8    N       -24.6709   21.8831  -17.7557  N     
9    C       -25.1649   20.9018  -16.7987  C     
10   C       -24.9543   21.3882  -15.3313  C     
11   C       -23.4283   21.6940  -15.1155  C     
12   C       -22.9399   22.7451  -16.1525  C     
13   C       -23.2929   22.3197  -17.5986  C     
14   C       -23.0157   22.0688  -13.7406  C     
15   O       -21.6949   22.1385  -13.4496  O     
16   O       -23.8590   21.9297  -12.6861  O     
17   C       -26.8860   19.8623  -21.4257  C     
18   C       -27.8589   19.8278  -22.4580  C     
19   C       -28.1606   18.6314  -23.1451  C     
20   C       -27.5221   17.4274  -22.7821  C     
21   C       -26.6090   17.4234  -21.7028  C     
22   C       -26.2762   18.6323  -21.0604  C     
23   O       -25.9763   16.2647  -21.3412  O     
24   C       -26.8184   15.3721  -20.5868  C     
25   O       -27.8813   16.2573  -23.4006  O     
26   C       -26.8174   15.5961  -24.1185  C     
27   O       -29.1219   18.6253  -24.1256  O     
28   C       -28.6831   19.2092  -25.3763  C     
29   C       -25.9296   22.5667  -15.0303  C     
30   H       -27.0146   22.4909  -22.3266  H     
31   H       -25.3110   25.3843  -19.4320  H     
32   H       -24.7807   24.5569  -18.0739  H     
33   H       -26.2288   20.6918  -16.9404  H     
34   H       -24.6386   19.9557  -16.9368  H     
35   H       -25.2260   20.5627  -14.6632  H     
36   H       -22.8872   20.7660  -15.3235  H     
37   H       -23.3995   23.7115  -15.9500  H     
38   H       -21.8563   22.8703  -16.0834  H     
39   H       -22.6476   21.4808  -17.8615  H     
40   H       -23.0119   23.1304  -18.2720  H     
41   H       -28.3733   20.6761  -22.7063  H     
42   H       -25.5589   18.6025  -20.3320  H     
43   H       -27.0963   15.8126  -19.6230  H     
44   H       -26.2571   14.4595  -20.3958  H     
45   H       -27.7268   15.1003  -21.1363  H     
46   H       -26.4266   16.2296  -24.9229  H     
47   H       -27.2219   14.6854  -24.5603  H     
48   H       -25.9948   15.3160  -23.4565  H     
49   H       -28.4799   20.2830  -25.2702  H     
50   H       -29.4905   19.0817  -26.1029  H     
51   H       -27.7895   18.7062  -25.7684  H     
52   H       -25.8744   23.3370  -15.8052  H     
53   H       -25.7163   23.0318  -14.0685  H     
54   H       -26.9605   22.1941  -14.9989  H     
@<TRIPOS>BOND
     1    1    2 2
     2    1    6 1
     3    2    3 1
     4    2   17 1
     5    3    4 2
     6    4    5 1
     7    4    8 1
     8    5    6 2
     9    5    7 1
    10    8    9 1
    11    8   13 1
    12    9   10 1
    13   10   11 1
    14   10   29 1
    15   11   12 1
    16   11   14 1
    17   12   13 1
    18   14   15 1
    19   14   16 2
    20   17   18 2
    21   17   22 1
    22   18   19 1
    23   19   20 2
    24   19   27 1
    25   20   21 1
    26   20   25 1
    27   21   22 2
    28   21   23 1
    29   23   24 1
    30   25   26 1
    31   27   28 1
    32    1   30 1
    33    7   31 1
    34    7   32 1
    35    9   33 1
    36    9   34 1
    37   10   35 1
    38   11   36 1
    39   12   37 1
    40   12   38 1
    41   13   39 1
    42   13   40 1
    43   18   41 1
    44   22   42 1
    45   24   43 1
    46   24   44 1
    47   24   45 1
    48   26   46 1
    49   26   47 1
    50   26   48 1
    51   28   49 1
    52   28   50 1
    53   28   51 1
    54   29   52 1
    55   29   53 1
    56   29   54 1
@<TRIPOS>PROPERTY_DATA
  Total_Score	| 9.0703
  Crash		| -2.6519
  Polar		| 6.1135
  FragIndex	| 1
  FragRMSD	| 0.064

