@<TRIPOS>MOLECULE
BindingDB_50330576
 50 52 0 0 0
SMALL
NO_CHARGES


@<TRIPOS>ATOM
1    C       -26.4905   20.3010  -14.1801  C     
2    O       -25.8363   21.5810  -14.2463  O     
3    C       -24.9749   21.7187  -15.3082  C     
4    C       -25.5378   21.8417  -16.5993  C     
5    C       -24.7201   22.0298  -17.7308  C     
6    C       -25.3048   22.1884  -19.0045  C     
7    N       -25.7622   21.0974  -19.6737  N     
8    C       -26.3654   21.1192  -20.8971  C     
9    C       -26.7724   19.8838  -21.5036  C     
10   C       -27.7105   19.8295  -22.5658  C     
11   C       -28.0717   18.6088  -23.1793  C     
12   O       -28.9171   18.5924  -24.2591  O     
13   C       -30.3022   18.8032  -23.9217  C     
14   C       -27.4968   17.4006  -22.7340  C     
15   O       -27.8594   16.2089  -23.3091  O     
16   C       -26.8020   15.5779  -24.0693  C     
17   C       -26.5852   17.4170  -21.6571  C     
18   O       -25.9575   16.2667  -21.2517  O     
19   C       -26.8091   15.3756  -20.5037  C     
20   C       -26.2114   18.6499  -21.0821  C     
21   C       -26.5422   22.3999  -21.4728  C     
22   N       -26.0854   23.4975  -20.8220  N     
23   C       -25.4804   23.4509  -19.6145  C     
24   N       -25.0768   24.5992  -19.0457  N     
25   C       -23.3244   22.1177  -17.5578  C     
26   C       -22.7596   22.0179  -16.2757  C     
27   C       -23.5690   21.8225  -15.1289  C     
28   C       -22.9548   21.7407  -13.8467  C     
29   O       -23.6721   21.8055  -12.6998  O     
30   O       -21.6128   21.6336  -13.6937  O     
31   H       -27.1424   20.1481  -15.0457  H     
32   H       -27.1087   20.2832  -13.2847  H     
33   H       -25.7694   19.4839  -14.1155  H     
34   H       -26.5550   21.8107  -16.7035  H     
35   H       -28.1578   20.6787  -22.9140  H     
36   H       -30.6619   18.0504  -23.2061  H     
37   H       -30.8907   18.7142  -24.8384  H     
38   H       -30.4615   19.8088  -23.5077  H     
39   H       -26.4615   16.2203  -24.8935  H     
40   H       -27.1998   14.6570  -24.4988  H     
41   H       -25.9510   15.3183  -23.4277  H     
42   H       -27.2323   15.8575  -19.6173  H     
43   H       -26.2097   14.5289  -20.1725  H     
44   H       -27.6201   14.9949  -21.1368  H     
45   H       -25.4996   18.6290  -20.3476  H     
46   H       -26.9748   22.5301  -22.3867  H     
47   H       -25.2275   25.4491  -19.4890  H     
48   H       -24.6521   24.5843  -18.1734  H     
49   H       -22.7111   22.2651  -18.3641  H     
50   H       -21.7409   22.1091  -16.1903  H     
@<TRIPOS>BOND
     1    1    2 1
     2    2    3 1
     3    3    4 1
     4    3   27 2
     5    4    5 2
     6    5    6 1
     7    5   25 1
     8    6    7 2
     9    6   23 1
    10    7    8 1
    11    8    9 1
    12    8   21 2
    13    9   10 1
    14    9   20 2
    15   10   11 2
    16   11   12 1
    17   11   14 1
    18   12   13 1
    19   14   15 1
    20   14   17 2
    21   15   16 1
    22   17   18 1
    23   17   20 1
    24   18   19 1
    25   21   22 1
    26   22   23 2
    27   23   24 1
    28   25   26 2
    29   26   27 1
    30   27   28 1
    31   28   29 2
    32   28   30 1
    33    1   31 1
    34    1   32 1
    35    1   33 1
    36    4   34 1
    37   10   35 1
    38   13   36 1
    39   13   37 1
    40   13   38 1
    41   16   39 1
    42   16   40 1
    43   16   41 1
    44   19   42 1
    45   19   43 1
    46   19   44 1
    47   20   45 1
    48   21   46 1
    49   24   47 1
    50   24   48 1
    51   25   49 1
    52   26   50 1
@<TRIPOS>PROPERTY_DATA
  Total_Score	| 11.0270
  Crash		| -0.7773
  Polar		| 6.0478
  FragIndex	| 1
  FragRMSD	| 0.458

