@<TRIPOS>MOLECULE
BindingDB_50330593
 53 55 0 0 0
SMALL
NO_CHARGES


@<TRIPOS>ATOM
1    C       -25.8375   19.2590  -13.8353  C     
2    C       -26.6544   20.5351  -14.1346  C     
3    O       -25.8380   21.7248  -14.2247  O     
4    C       -24.9812   21.8018  -15.2975  C     
5    C       -25.5454   21.9084  -16.5876  C     
6    C       -24.7356   22.0454  -17.7285  C     
7    C       -25.3262   22.1970  -18.9970  C     
8    N       -25.8063   21.1029  -19.6385  N     
9    C       -26.4234   21.1200  -20.8556  C     
10   C       -26.8196   19.8900  -21.4665  C     
11   C       -27.7865   19.8343  -22.5026  C     
12   C       -28.0928   18.6308  -23.1726  C     
13   O       -29.0339   18.6111  -24.1676  O     
14   C       -28.5579   19.1336  -25.4260  C     
15   C       -27.4846   17.4248  -22.7589  C     
16   O       -27.8563   16.2411  -23.3457  O     
17   C       -26.7977   15.5559  -24.0446  C     
18   C       -26.5727   17.4410  -21.6788  C     
19   O       -25.9513   16.2884  -21.2708  O     
20   C       -26.8251   15.3961  -20.5501  C     
21   C       -26.2240   18.6628  -21.0709  C     
22   C       -26.5698   22.3906  -21.4641  C     
23   N       -26.0982   23.4955  -20.8349  N     
24   C       -25.4842   23.4504  -19.6267  C     
25   N       -25.0585   24.5993  -19.0726  N     
26   C       -23.3386   22.1023  -17.5635  C     
27   C       -22.7661   22.0058  -16.2821  C     
28   C       -23.5703   21.8614  -15.1261  C     
29   C       -22.9535   21.7969  -13.8467  C     
30   O       -23.6674   21.8909  -12.7044  O     
31   O       -21.6076   21.7310  -13.6980  O     
32   H       -25.1092   19.0842  -14.6350  H     
33   H       -26.5105   18.3996  -13.7765  H     
34   H       -25.3065   19.3593  -12.8847  H     
35   H       -27.2378   20.3853  -15.0500  H     
36   H       -27.3661   20.6857  -13.3162  H     
37   H       -26.5627   21.8994  -16.6832  H     
38   H       -28.2817   20.6789  -22.7894  H     
39   H       -28.3216   20.1980  -25.3490  H     
40   H       -29.3537   19.0142  -26.1596  H     
41   H       -27.6762   18.5901  -25.7824  H     
42   H       -26.3889   16.1664  -24.8527  H     
43   H       -27.2154   14.6471  -24.4834  H     
44   H       -25.9921   15.2639  -23.3662  H     
45   H       -27.1861   15.8587  -19.6281  H     
46   H       -26.2558   14.5015  -20.2860  H     
47   H       -27.6796   15.0876  -21.1637  H     
48   H       -25.5101   18.6446  -20.3401  H     
49   H       -26.9977   22.5083  -22.3826  H     
50   H       -25.1865   25.4419  -19.5343  H     
51   H       -24.6234   24.5932  -18.2055  H     
52   H       -22.7257   22.2170  -18.3742  H     
53   H       -21.7460   22.0589  -16.2094  H     
@<TRIPOS>BOND
     1    1    2 1
     2    2    3 1
     3    3    4 1
     4    4    5 1
     5    4   28 2
     6    5    6 2
     7    6    7 1
     8    6   26 1
     9    7    8 2
    10    7   24 1
    11    8    9 1
    12    9   10 1
    13    9   22 2
    14   10   11 1
    15   10   21 2
    16   11   12 2
    17   12   13 1
    18   12   15 1
    19   13   14 1
    20   15   16 1
    21   15   18 2
    22   16   17 1
    23   18   19 1
    24   18   21 1
    25   19   20 1
    26   22   23 1
    27   23   24 2
    28   24   25 1
    29   26   27 2
    30   27   28 1
    31   28   29 1
    32   29   30 2
    33   29   31 1
    34    1   32 1
    35    1   33 1
    36    1   34 1
    37    2   35 1
    38    2   36 1
    39    5   37 1
    40   11   38 1
    41   14   39 1
    42   14   40 1
    43   14   41 1
    44   17   42 1
    45   17   43 1
    46   17   44 1
    47   20   45 1
    48   20   46 1
    49   20   47 1
    50   21   48 1
    51   22   49 1
    52   25   50 1
    53   25   51 1
    54   26   52 1
    55   27   53 1
@<TRIPOS>PROPERTY_DATA
  Total_Score	| 11.3520
  Crash		| -0.9157
  Polar		| 6.0862
  FragIndex	| 1
  FragRMSD	| 0.118

