@<TRIPOS>MOLECULE
BindingDB_50330596
 52 54 0 0 0
SMALL
NO_CHARGES


@<TRIPOS>ATOM
1    C       -26.5326   22.3490  -21.4476  C     
2    C       -26.3526   21.0546  -20.8914  C     
3    N       -25.6956   21.0187  -19.6970  N     
4    C       -25.2017   22.0862  -19.0210  C     
5    C       -25.4124   23.3635  -19.5985  C     
6    N       -26.0577   23.4399  -20.7910  N     
7    N       -25.0426   24.5159  -19.0145  N     
8    C       -24.5722   21.8496  -17.7733  C     
9    C       -25.1811   21.0139  -16.8092  C     
10   C       -24.6394   20.8413  -15.5098  C     
11   C       -23.4346   21.5281  -15.1752  C     
12   C       -22.7774   22.2826  -16.1743  C     
13   C       -23.3322   22.4353  -17.4544  C     
14   C       -22.8911   21.5392  -13.8669  C     
15   O       -23.6301   21.9958  -12.8299  O     
16   O       -21.5568   21.4620  -13.6574  O     
17   C       -26.7875   19.8257  -21.4938  C     
18   C       -27.8107   19.7896  -22.4795  C     
19   C       -28.1783   18.5852  -23.1171  C     
20   C       -27.5477   17.3828  -22.7416  C     
21   C       -26.5981   17.3835  -21.7011  C     
22   C       -26.2039   18.5942  -21.1053  C     
23   O       -25.9757   16.2365  -21.3047  O     
24   C       -26.8186   15.3604  -20.5234  C     
25   O       -27.8998   16.2010  -23.3334  O     
26   C       -26.8444   15.6051  -24.1128  C     
27   O       -29.1713   18.4874  -24.0661  O     
28   C       -29.0356   19.1985  -25.3164  C     
29   C       -25.3672   19.9221  -14.5807  C     
30   C       -26.7845   20.4376  -14.2323  C     
31   H       -26.9935   22.4932  -22.3507  H     
32   H       -25.2074   25.3651  -19.4483  H     
33   H       -24.5985   24.5039  -18.1547  H     
34   H       -26.0549   20.5381  -17.0502  H     
35   H       -21.8990   22.7753  -15.9701  H     
36   H       -22.8276   22.9968  -18.1450  H     
37   H       -28.3155   20.6418  -22.7415  H     
38   H       -25.4638   18.5763  -20.4007  H     
39   H       -27.1542   15.8459  -19.5992  H     
40   H       -26.2391   14.4704  -20.2505  H     
41   H       -27.6916   15.0283  -21.0974  H     
42   H       -26.5360   16.2663  -24.9308  H     
43   H       -27.2162   14.6774  -24.5435  H     
44   H       -25.9737   15.3669  -23.4934  H     
45   H       -29.1111   20.2868  -25.1531  H     
46   H       -29.8595   18.8959  -25.9800  H     
47   H       -28.0867   18.9697  -25.8153  H     
48   H       -25.4539   18.9340  -15.0389  H     
49   H       -24.8195   19.7746  -13.6517  H     
50   H       -26.7346   21.4565  -13.8477  H     
51   H       -27.2353   19.7984  -13.4710  H     
52   H       -27.4274   20.4284  -15.1156  H     
@<TRIPOS>BOND
     1    1    2 2
     2    1    6 1
     3    2    3 1
     4    2   17 1
     5    3    4 2
     6    4    5 1
     7    4    8 1
     8    5    6 2
     9    5    7 1
    10    8    9 1
    11    8   13 2
    12    9   10 2
    13   10   11 1
    14   10   29 1
    15   11   12 2
    16   11   14 1
    17   12   13 1
    18   14   15 1
    19   14   16 2
    20   17   18 2
    21   17   22 1
    22   18   19 1
    23   19   20 2
    24   19   27 1
    25   20   21 1
    26   20   25 1
    27   21   22 2
    28   21   23 1
    29   23   24 1
    30   25   26 1
    31   27   28 1
    32   29   30 1
    33    1   31 1
    34    7   32 1
    35    7   33 1
    36    9   34 1
    37   12   35 1
    38   13   36 1
    39   18   37 1
    40   22   38 1
    41   24   39 1
    42   24   40 1
    43   24   41 1
    44   26   42 1
    45   26   43 1
    46   26   44 1
    47   28   45 1
    48   28   46 1
    49   28   47 1
    50   29   48 1
    51   29   49 1
    52   30   50 1
    53   30   51 1
    54   30   52 1
@<TRIPOS>PROPERTY_DATA
  Total_Score	| 11.5741
  Crash		| -0.7112
  Polar		| 6.2026
  FragIndex	| 1
  FragRMSD	| 0.652

