@<TRIPOS>MOLECULE
BindingDB_50385917
 68 71 0 0 0
SMALL
NO_CHARGES


@<TRIPOS>ATOM
1    C       -25.4115   23.4115  -19.6474  C     
2    C       -25.2848   22.1772  -18.9819  C     
3    N       -25.7913   21.0725  -19.5920  N     
4    C       -26.3987   21.0703  -20.8178  C     
5    C       -26.4800   22.3260  -21.4813  C     
6    N       -25.9965   23.4332  -20.8668  N     
7    C       -24.6488   22.0925  -17.7292  C     
8    C       -23.2481   22.2325  -17.6290  C     
9    C       -22.6294   22.2528  -16.3656  C     
10   C       -23.3909   22.1441  -15.1822  C     
11   C       -24.7951   22.0007  -15.2953  C     
12   C       -25.4155   21.9617  -16.5552  C     
13   C       -22.7405   22.2388  -13.8442  C     
14   N       -22.6731   20.9776  -13.0403  N     
15   C       -23.9894   20.3846  -12.6835  C     
16   C       -21.7344   19.9582  -13.5979  C     
17   N       -26.9365   22.5234  -22.7280  N     
18   C       -26.8287   19.8199  -21.3654  C     
19   C       -26.1980   18.6145  -20.9830  C     
20   C       -26.5841   17.3643  -21.5183  C     
21   C       -27.4832   17.3044  -22.6206  C     
22   C       -28.1717   18.5026  -22.9442  C     
23   C       -27.8867   19.7164  -22.2993  C     
24   C       -27.7113   16.1443  -23.3799  C     
25   O       -28.5761   16.1084  -24.2419  O     
26   N       -26.9656   15.0577  -23.3431  N     
27   O       -26.0107   16.2386  -20.9890  O     
28   C       -26.3892   15.7185  -19.6784  C     
29   C       -27.0498   16.6460  -18.6642  C     
30   C       -27.0340   14.3161  -19.8381  C     
31   C       -26.1531   17.3670  -17.8252  C     
32   C       -26.5908   18.3304  -16.9063  C     
33   C       -27.9540   18.6149  -16.8060  C     
34   C       -28.8686   17.9199  -17.6060  C     
35   C       -28.4615   16.9137  -18.5266  C     
36   C       -29.5502   16.1524  -19.2298  C     
37   F       -30.8276   16.6394  -19.0747  F     
38   F       -29.3739   16.1268  -20.5833  F     
39   F       -29.6080   14.8658  -18.7518  F     
40   H       -25.0599   24.2828  -19.2400  H     
41   H       -22.6720   22.3379  -18.4678  H     
42   H       -21.6136   22.3654  -16.3202  H     
43   H       -25.3795   21.9502  -14.4591  H     
44   H       -26.4340   21.8805  -16.6053  H     
45   H       -21.7157   22.6060  -13.9542  H     
46   H       -23.2516   23.0113  -13.2625  H     
47   H       -22.2755   21.2507  -12.1390  H     
48   H       -24.6852   21.1564  -12.3642  H     
49   H       -23.8583   19.7087  -11.8442  H     
50   H       -24.4291   19.8347  -13.5186  H     
51   H       -22.1320   19.5077  -14.5101  H     
52   H       -21.5575   19.1703  -12.8682  H     
53   H       -20.7677   20.4046  -13.8330  H     
54   H       -26.9235   23.4137  -23.1075  H     
55   H       -27.2208   21.7789  -23.2795  H     
56   H       -25.4396   18.6300  -20.2991  H     
57   H       -28.8955   18.5086  -23.6705  H     
58   H       -28.4502   20.5335  -22.5405  H     
59   H       -27.1704   14.3160  -23.9332  H     
60   H       -26.2341   14.9694  -22.7174  H     
61   H       -25.4105   15.4623  -19.2690  H     
62   H       -27.8108   14.3297  -20.5977  H     
63   H       -27.4529   13.9817  -18.8884  H     
64   H       -26.2892   13.5876  -20.1603  H     
65   H       -25.1430   17.2140  -17.8781  H     
66   H       -25.9158   18.8245  -16.3207  H     
67   H       -28.2835   19.3190  -16.1424  H     
68   H       -29.8525   18.1644  -17.4864  H     
@<TRIPOS>BOND
     1    1    2 2
     2    1    6 1
     3    2    3 1
     4    2    7 1
     5    3    4 2
     6    4    5 1
     7    4   18 1
     8    5    6 2
     9    5   17 1
    10    7    8 2
    11    7   12 1
    12    8    9 1
    13    9   10 2
    14   10   11 1
    15   10   13 1
    16   11   12 2
    17   13   14 1
    18   14   15 1
    19   14   16 1
    20   18   19 2
    21   18   23 1
    22   19   20 1
    23   20   21 2
    24   20   27 1
    25   21   22 1
    26   21   24 1
    27   22   23 2
    28   24   25 2
    29   24   26 am
    30   27   28 1
    31   28   29 1
    32   28   30 1
    33   29   31 2
    34   29   35 1
    35   31   32 1
    36   32   33 2
    37   33   34 1
    38   34   35 2
    39   35   36 1
    40   36   37 1
    41   36   38 1
    42   36   39 1
    43    1   40 1
    44    8   41 1
    45    9   42 1
    46   11   43 1
    47   12   44 1
    48   13   45 1
    49   13   46 1
    50   14   47 1
    51   15   48 1
    52   15   49 1
    53   15   50 1
    54   16   51 1
    55   16   52 1
    56   16   53 1
    57   17   54 1
    58   17   55 1
    59   19   56 1
    60   22   57 1
    61   23   58 1
    62   26   59 1
    63   26   60 1
    64   28   61 1
    65   30   62 1
    66   30   63 1
    67   30   64 1
    68   31   65 1
    69   32   66 1
    70   33   67 1
    71   34   68 1
@<TRIPOS>PROPERTY_DATA
  Total_Score	| 7.0735
  Crash		| -4.1232
  Polar		| 3.1724
  FragIndex	| 1
  FragRMSD	| 0.359

