@<TRIPOS>MOLECULE
BindingDB_50330607
 47 49 0 0 0
SMALL
NO_CHARGES


@<TRIPOS>ATOM
1    C       -25.2803   23.0555  -19.7966  C     
2    C       -25.0890   21.8757  -19.0503  C     
3    N       -25.6167   20.7409  -19.5698  N     
4    C       -26.3150   20.6052  -20.7336  C     
5    C       -26.4652   21.8179  -21.4729  C     
6    N       -25.9537   22.9811  -20.9742  N     
7    N       -26.9891   21.9003  -22.7082  N     
8    N       -26.8006   19.3421  -21.0025  N     
9    C       -28.0941   19.1144  -21.6164  C     
10   C       -27.9794   18.0351  -22.7220  C     
11   C       -27.6147   16.6487  -22.0931  C     
12   C       -26.7232   16.7715  -20.8018  C     
13   C       -26.0506   18.1660  -20.5745  C     
14   C       -27.0630   15.7198  -23.1032  C     
15   O       -27.8780   14.9248  -23.8287  O     
16   O       -25.7455   15.7290  -23.4107  O     
17   C       -24.4959   21.8346  -17.7716  C     
18   C       -23.2081   22.3725  -17.5355  C     
19   C       -22.6018   22.2613  -16.2759  C     
20   C       -23.2925   21.6399  -15.2166  C     
21   C       -24.6071   21.1494  -15.4190  C     
22   C       -25.1810   21.2016  -16.7012  C     
23   O       -25.2601   20.5830  -14.3497  O     
24   C       -26.6329   21.0079  -14.2178  C     
25   O       -22.6821   21.5221  -13.9951  O     
26   C       -21.9305   20.2970  -13.8305  C     
27   H       -24.9382   23.9595  -19.4714  H     
28   H       -27.0039   22.7638  -23.1551  H     
29   H       -27.2640   21.1064  -23.1859  H     
30   H       -28.7586   18.7188  -20.8470  H     
31   H       -28.5844   20.0004  -22.0128  H     
32   H       -28.9343   17.9529  -23.2637  H     
33   H       -27.2175   18.3570  -23.4394  H     
34   H       -28.5650   16.2155  -21.7680  H     
35   H       -27.3649   16.5897  -19.9324  H     
36   H       -25.9510   15.9914  -20.7780  H     
37   H       -25.1009   18.1551  -21.1324  H     
38   H       -25.8042   18.2252  -19.5064  H     
39   H       -22.6823   22.8234  -18.2934  H     
40   H       -21.6614   22.6330  -16.1261  H     
41   H       -26.1190   20.7973  -16.8116  H     
42   H       -26.7236   22.0964  -14.1584  H     
43   H       -27.0463   20.5931  -13.2908  H     
44   H       -27.2254   20.6437  -15.0685  H     
45   H       -22.5630   19.4225  -13.9879  H     
46   H       -21.5444   20.2569  -12.8103  H     
47   H       -21.0830   20.2673  -14.5150  H     
@<TRIPOS>BOND
     1    1    2 2
     2    1    6 1
     3    2    3 1
     4    2   17 1
     5    3    4 2
     6    4    5 1
     7    4    8 1
     8    5    6 2
     9    5    7 1
    10    8    9 1
    11    8   13 1
    12    9   10 1
    13   10   11 1
    14   11   12 1
    15   11   14 1
    16   12   13 1
    17   14   15 1
    18   14   16 2
    19   17   18 2
    20   17   22 1
    21   18   19 1
    22   19   20 2
    23   20   21 1
    24   20   25 1
    25   21   22 2
    26   21   23 1
    27   23   24 1
    28   25   26 1
    29    1   27 1
    30    7   28 1
    31    7   29 1
    32    9   30 1
    33    9   31 1
    34   10   32 1
    35   10   33 1
    36   11   34 1
    37   12   35 1
    38   12   36 1
    39   13   37 1
    40   13   38 1
    41   18   39 1
    42   19   40 1
    43   22   41 1
    44   24   42 1
    45   24   43 1
    46   24   44 1
    47   26   45 1
    48   26   46 1
    49   26   47 1
@<TRIPOS>PROPERTY_DATA
  Total_Score	| 6.9769
  Crash		| -1.9729
  Polar		| 2.1596
  FragIndex	| 1
  FragRMSD	| 0.588

