@<TRIPOS>MOLECULE
BindingDB_50330577
 49 51 0 0 0
SMALL
NO_CHARGES


@<TRIPOS>ATOM
1    C       -25.5539   20.2088  -14.4697  C     
2    C       -24.7917   21.0256  -15.4537  C     
3    C       -25.3527   21.2073  -16.7405  C     
4    C       -23.5216   21.6012  -15.1565  C     
5    C       -22.9099   21.5316  -13.8742  C     
6    O       -21.5611   21.4726  -13.7341  O     
7    O       -23.6111   21.8144  -12.7484  O     
8    C       -22.8269   22.2738  -16.1908  C     
9    C       -23.3967   22.4424  -17.4624  C     
10   C       -24.6760   21.9283  -17.7440  C     
11   C       -25.2898   22.1430  -19.0043  C     
12   N       -25.7764   21.0621  -19.6746  N     
13   C       -25.4528   23.4150  -19.6125  C     
14   N       -25.0749   24.5684  -19.0363  N     
15   N       -26.0473   23.4707  -20.8326  N     
16   C       -26.5178   22.3778  -21.4824  C     
17   C       -26.3951   21.0976  -20.8864  C     
18   C       -26.8130   19.8733  -21.4982  C     
19   C       -27.7725   19.8356  -22.5388  C     
20   C       -26.2426   18.6403  -21.0913  C     
21   C       -26.6014   17.4227  -21.7014  C     
22   O       -25.9854   16.2715  -21.2888  O     
23   C       -26.8121   15.4307  -20.4626  C     
24   C       -27.4945   17.4179  -22.7960  C     
25   O       -27.8683   16.2360  -23.3909  O     
26   C       -26.7927   15.5643  -24.0810  C     
27   C       -28.0901   18.6323  -23.2119  C     
28   O       -29.0147   18.6278  -24.2287  O     
29   C       -28.5273   19.2027  -25.4520  C     
30   H       -26.5146   19.8430  -14.8645  H     
31   H       -25.7798   20.7905  -13.5661  H     
32   H       -24.9583   19.3300  -14.1849  H     
33   H       -26.2689   20.7992  -16.9551  H     
34   H       -21.9023   22.6770  -16.0280  H     
35   H       -22.8649   22.9345  -18.1834  H     
36   H       -25.2346   25.4111  -19.4904  H     
37   H       -24.6785   24.5636  -18.1496  H     
38   H       -26.9344   22.5109  -22.4071  H     
39   H       -28.2492   20.6869  -22.8360  H     
40   H       -25.5432   18.6056  -20.3458  H     
41   H       -27.1473   15.9602  -19.5625  H     
42   H       -26.2100   14.5657  -20.1510  H     
43   H       -27.6774   15.0683  -21.0347  H     
44   H       -26.3877   16.1675  -24.8977  H     
45   H       -27.1946   14.6417  -24.5065  H     
46   H       -25.9854   15.2866  -23.3988  H     
47   H       -28.3409   20.2698  -25.3382  H     
48   H       -29.2966   19.0747  -26.2151  H     
49   H       -27.6155   18.7140  -25.8012  H     
@<TRIPOS>BOND
     1    1    2 1
     2    2    3 1
     3    2    4 2
     4    3   10 2
     5    4    5 1
     6    4    8 1
     7    5    6 2
     8    5    7 1
     9    8    9 2
    10    9   10 1
    11   10   11 1
    12   11   12 2
    13   11   13 1
    14   12   17 1
    15   13   14 1
    16   13   15 2
    17   15   16 1
    18   16   17 2
    19   17   18 1
    20   18   19 1
    21   18   20 2
    22   19   27 2
    23   20   21 1
    24   21   22 1
    25   21   24 2
    26   22   23 1
    27   24   25 1
    28   24   27 1
    29   25   26 1
    30   27   28 1
    31   28   29 1
    32    1   30 1
    33    1   31 1
    34    1   32 1
    35    3   33 1
    36    8   34 1
    37    9   35 1
    38   14   36 1
    39   14   37 1
    40   16   38 1
    41   19   39 1
    42   20   40 1
    43   23   41 1
    44   23   42 1
    45   23   43 1
    46   26   44 1
    47   26   45 1
    48   26   46 1
    49   29   47 1
    50   29   48 1
    51   29   49 1
@<TRIPOS>PROPERTY_DATA
  Total_Score	| 10.9022
  Crash		| -0.6720
  Polar		| 6.1707
  FragIndex	| 1
  FragRMSD	| 0.633

