@<TRIPOS>MOLECULE
BindingDB_50330594
 54 56 0 0 0
SMALL
NO_CHARGES


@<TRIPOS>ATOM
1    C       -26.2406   22.3865  -21.2015  C     
2    C       -26.4296   21.1410  -20.5663  C     
3    N       -26.1535   21.1097  -19.2357  N     
4    C       -25.7074   22.1362  -18.4568  C     
5    C       -25.5325   23.3689  -19.1449  C     
6    N       -25.8034   23.4388  -20.4748  N     
7    N       -25.1948   24.5378  -18.5690  N     
8    N       -25.4728   21.8609  -17.1277  N     
9    C       -24.4124   22.4986  -16.3521  C     
10   C       -23.4363   21.4331  -15.7670  C     
11   C       -24.1773   20.3374  -14.9264  C     
12   C       -25.3012   19.7367  -15.8305  C     
13   C       -26.2260   20.8388  -16.4147  C     
14   C       -24.6872   20.7622  -13.5904  C     
15   O       -24.0286   21.7100  -12.8808  O     
16   O       -25.3587   19.8646  -12.8343  O     
17   C       -26.8058   19.9449  -21.2337  C     
18   C       -27.7290   19.9356  -22.3075  C     
19   C       -28.0159   18.7506  -23.0186  C     
20   C       -27.4307   17.5316  -22.6299  C     
21   C       -26.5454   17.5098  -21.5302  C     
22   C       -26.2212   18.7118  -20.8562  C     
23   O       -25.9215   16.3362  -21.1898  O     
24   C       -26.7947   15.4313  -20.4611  C     
25   O       -27.8187   16.3744  -23.2676  O     
26   C       -26.7680   15.5905  -23.8589  C     
27   O       -28.8966   18.7913  -24.0704  O     
28   C       -28.3092   19.3251  -25.2718  C     
29   C       -22.1946   22.0596  -15.0682  C     
30   H       -26.4052   22.5120  -22.2006  H     
31   H       -25.1235   25.3463  -19.1087  H     
32   H       -25.0643   24.5966  -17.6101  H     
33   H       -23.8038   23.1748  -16.9600  H     
34   H       -24.8709   23.0890  -15.5486  H     
35   H       -23.0195   20.9210  -16.6388  H     
36   H       -23.4661   19.5290  -14.7270  H     
37   H       -24.8353   19.2004  -16.6695  H     
38   H       -25.9016   19.0023  -15.2863  H     
39   H       -26.7693   21.3088  -15.5998  H     
40   H       -26.9750   20.3406  -17.0363  H     
41   H       -28.1963   20.8005  -22.5892  H     
42   H       -25.5461   18.6692  -20.0928  H     
43   H       -27.0824   15.8304  -19.4806  H     
44   H       -26.2439   14.4993  -20.3040  H     
45   H       -27.7009   15.1998  -21.0402  H     
46   H       -26.1561   16.1777  -24.5501  H     
47   H       -27.2254   14.7757  -24.4349  H     
48   H       -26.1310   15.1503  -23.0782  H     
49   H       -27.9900   20.3610  -25.1388  H     
50   H       -29.0609   19.3038  -26.0605  H     
51   H       -27.4555   18.7263  -25.5987  H     
52   H       -21.5673   22.5772  -15.8068  H     
53   H       -21.5893   21.2695  -14.6075  H     
54   H       -22.5040   22.7736  -14.2940  H     
@<TRIPOS>BOND
     1    1    2 2
     2    1    6 1
     3    2    3 1
     4    2   17 1
     5    3    4 2
     6    4    5 1
     7    4    8 1
     8    5    6 2
     9    5    7 1
    10    8    9 1
    11    8   13 1
    12    9   10 1
    13   10   11 1
    14   10   29 1
    15   11   12 1
    16   11   14 1
    17   12   13 1
    18   14   15 1
    19   14   16 2
    20   17   18 2
    21   17   22 1
    22   18   19 1
    23   19   20 2
    24   19   27 1
    25   20   21 1
    26   20   25 1
    27   21   22 2
    28   21   23 1
    29   23   24 1
    30   25   26 1
    31   27   28 1
    32    1   30 1
    33    7   31 1
    34    7   32 1
    35    9   33 1
    36    9   34 1
    37   10   35 1
    38   11   36 1
    39   12   37 1
    40   12   38 1
    41   13   39 1
    42   13   40 1
    43   18   41 1
    44   22   42 1
    45   24   43 1
    46   24   44 1
    47   24   45 1
    48   26   46 1
    49   26   47 1
    50   26   48 1
    51   28   49 1
    52   28   50 1
    53   28   51 1
    54   29   52 1
    55   29   53 1
    56   29   54 1
@<TRIPOS>PROPERTY_DATA
  Total_Score	| 7.8224
  Crash		| -2.5605
  Polar		| 4.7374
  FragIndex	| 1
  FragRMSD	| 0.339

