@<TRIPOS>MOLECULE
BindingDB_50330597
 49 51 0 0 0
SMALL
NO_CHARGES


@<TRIPOS>ATOM
1    C       -26.6234   22.3918  -21.5122  C     
2    C       -26.4633   21.1329  -20.8872  C     
3    N       -25.8329   21.1435  -19.6783  N     
4    C       -25.4039   22.2655  -19.0264  C     
5    C       -25.6514   23.5129  -19.6448  C     
6    N       -26.2297   23.5210  -20.8723  N     
7    N       -25.3637   24.6865  -19.0571  N     
8    C       -24.7441   22.1184  -17.7859  C     
9    C       -23.3633   22.4229  -17.6091  C     
10   C       -22.7964   22.2777  -16.3165  C     
11   C       -23.5582   21.8456  -15.2059  C     
12   C       -24.9133   21.5063  -15.4243  C     
13   C       -25.4956   21.6363  -16.6947  C     
14   C       -23.0107   21.7959  -13.9040  C     
15   O       -21.6764   21.8574  -13.6869  O     
16   O       -23.7960   21.6608  -12.8043  O     
17   C       -26.8498   19.8842  -21.4794  C     
18   C       -26.2746   18.6574  -21.0583  C     
19   C       -26.5933   17.4369  -21.6812  C     
20   C       -27.5075   17.4022  -22.7529  C     
21   C       -28.1166   18.6018  -23.1811  C     
22   C       -27.8185   19.8158  -22.5186  C     
23   O       -29.0627   18.5870  -24.1721  O     
24   C       -28.5903   19.1155  -25.4248  C     
25   O       -27.8694   16.2243  -23.3517  O     
26   C       -26.8441   15.5293  -24.0750  C     
27   O       -25.9705   16.2872  -21.2739  O     
28   C       -26.8110   15.4036  -20.5133  C     
29   C       -22.5135   22.9012  -18.7327  C     
30   H       -27.0308   22.4844  -22.4433  H     
31   H       -25.5464   25.5303  -19.5111  H     
32   H       -25.0053   24.6977  -18.1555  H     
33   H       -21.8122   22.5241  -16.1749  H     
34   H       -25.5021   21.1676  -14.6568  H     
35   H       -26.4884   21.4000  -16.8109  H     
36   H       -25.5844   18.6394  -20.2973  H     
37   H       -28.3165   20.6626  -22.8103  H     
38   H       -28.3251   20.1710  -25.3352  H     
39   H       -29.3974   19.0272  -26.1500  H     
40   H       -27.7291   18.5602  -25.8021  H     
41   H       -26.4528   16.1438  -24.8856  H     
42   H       -27.2895   14.6310  -24.5094  H     
43   H       -26.0319   15.2245  -23.4140  H     
44   H       -27.1780   15.8891  -19.6038  H     
45   H       -26.2192   14.5331  -20.2245  H     
46   H       -27.6564   15.0527  -21.1110  H     
47   H       -22.6633   22.2695  -19.6149  H     
48   H       -21.4471   22.8672  -18.4860  H     
49   H       -22.7809   23.9342  -18.9851  H     
@<TRIPOS>BOND
     1    1    2 2
     2    1    6 1
     3    2    3 1
     4    2   17 1
     5    3    4 2
     6    4    5 1
     7    4    8 1
     8    5    6 2
     9    5    7 1
    10    8    9 1
    11    8   13 2
    12    9   10 2
    13    9   29 1
    14   10   11 1
    15   11   12 2
    16   11   14 1
    17   12   13 1
    18   14   15 1
    19   14   16 2
    20   17   18 2
    21   17   22 1
    22   18   19 1
    23   19   20 2
    24   19   27 1
    25   20   21 1
    26   20   25 1
    27   21   22 2
    28   21   23 1
    29   23   24 1
    30   25   26 1
    31   27   28 1
    32    1   30 1
    33    7   31 1
    34    7   32 1
    35   10   33 1
    36   12   34 1
    37   13   35 1
    38   18   36 1
    39   22   37 1
    40   24   38 1
    41   24   39 1
    42   24   40 1
    43   26   41 1
    44   26   42 1
    45   26   43 1
    46   28   44 1
    47   28   45 1
    48   28   46 1
    49   29   47 1
    50   29   48 1
    51   29   49 1
@<TRIPOS>PROPERTY_DATA
  Total_Score	| 9.9035
  Crash		| -1.7971
  Polar		| 5.3476
  FragIndex	| 1
  FragRMSD	| 0.125

