@<TRIPOS>MOLECULE
BindingDB_7238
 29 31 0 0 0
SMALL
NO_CHARGES


@<TRIPOS>ATOM
1    C       -94.2087   78.9003   84.9270  C     
2    C       -95.3623   78.2121   85.3759  C     
3    C       -95.9630   78.5626   86.6085  C     
4    C       -95.4154   79.5874   87.4049  C     
5    C       -93.6635   79.9230   85.7327  C     
6    C       -92.5600   80.7457   85.5974  C     
7    C       -94.2694   80.2601   86.9406  C     
8    C       -92.5749   81.5610   86.6878  C     
9    O       -95.9851   77.2682   84.6070  O     
10   C       -95.3518   75.9733   84.5882  C     
11   N       -93.5624   81.2486   87.4939  N     
12   O       -91.7405   82.3836   87.0281  O     
13   C       -91.5999   80.6093   84.6568  C     
14   C       -90.5174   81.4444   84.4335  C     
15   C       -89.3252   81.1000   83.7893  C     
16   C       -89.1946   83.1828   84.3125  C     
17   N       -88.5139   82.1610   83.7515  N     
18   N       -90.3873   82.7434   84.7475  N     
19   H       -93.7895   78.6611   84.0259  H     
20   H       -96.8116   78.0804   86.9167  H     
21   H       -95.8356   79.8337   88.3058  H     
22   H       -94.4024   76.0165   84.0370  H     
23   H       -96.0110   75.2860   84.0625  H     
24   H       -95.1698   75.5851   85.6001  H     
25   H       -93.7422   81.6606   88.3540  H     
26   H       -91.6365   79.8043   84.0707  H     
27   H       -89.0814   80.1749   83.4343  H     
28   H       -88.8351   84.1377   84.4074  H     
29   H       -91.0698   83.2917   85.1757  H     
@<TRIPOS>BOND
     1    1    2 1
     2    1    5 2
     3    2    3 2
     4    2    9 1
     5    3    4 1
     6    4    7 2
     7    5    6 1
     8    5    7 1
     9    6    8 1
    10    6   13 2
    11    7   11 1
    12    8   11 1
    13    8   12 2
    14    9   10 1
    15   13   14 1
    16   14   15 2
    17   14   18 1
    18   15   17 1
    19   16   17 2
    20   16   18 1
    21    1   19 1
    22    3   20 1
    23    4   21 1
    24   10   22 1
    25   10   23 1
    26   10   24 1
    27   11   25 1
    28   13   26 1
    29   15   27 1
    30   16   28 1
    31   18   29 1
@<TRIPOS>PROPERTY_DATA
  Total_Score	| 6.7296
  Crash		| -0.4287
  Polar		| 2.1562
  FragIndex	| 1
  FragRMSD	| 0.100

