@<TRIPOS>MOLECULE
BindingDB_10074
 30 32 0 0 0
SMALL
NO_CHARGES


@<TRIPOS>ATOM
1    C       -94.6432   79.1680   84.9417  C     
2    C       -95.7677   78.4954   85.4684  C     
3    C       -96.1570   78.7022   86.8104  C     
4    C       -95.4285   79.5839   87.6337  C     
5    C       -93.9189   80.0568   85.7681  C     
6    C       -92.7795   80.8134   85.5789  C     
7    C       -94.3166   80.2480   87.0901  C     
8    C       -92.5687   81.4647   86.7529  C     
9    N       -93.4737   81.1210   87.6435  N     
10   O       -91.8155   82.4057   86.9510  O     
11   C       -92.0556   80.8283   84.4408  C     
12   C       -90.7515   81.2666   84.2626  C     
13   C       -88.7954   81.8232   83.3064  C     
14   C       -90.1062   81.4590   83.0330  C     
15   C       -88.6545   81.8138   84.6835  C     
16   N       -89.8290   81.4609   85.2244  N     
17   O       -90.5955   81.3539   81.7623  O     
18   C       -90.9043   80.0193   81.3168  C     
19   F       -96.4468   77.6729   84.7161  F     
20   H       -94.3629   79.0077   83.9731  H     
21   H       -96.9693   78.2110   87.1926  H     
22   H       -95.6919   79.7252   88.6087  H     
23   H       -93.5708   81.5088   88.5293  H     
24   H       -92.4842   80.4366   83.6399  H     
25   H       -88.0637   82.0302   82.6243  H     
26   H       -87.7960   81.9989   85.1999  H     
27   H       -89.9718   81.3149   86.1711  H     
28   H       -90.3930   79.2281   81.8753  H     
29   H       -90.6121   79.9364   80.2702  H     
30   H       -91.9813   79.8544   81.3792  H     
@<TRIPOS>BOND
     1    1    2 1
     2    1    5 2
     3    2    3 2
     4    2   19 1
     5    3    4 1
     6    4    7 2
     7    5    6 1
     8    5    7 1
     9    6    8 1
    10    6   11 2
    11    7    9 1
    12    8    9 1
    13    8   10 2
    14   11   12 1
    15   12   14 2
    16   12   16 1
    17   13   14 1
    18   13   15 2
    19   14   17 1
    20   15   16 1
    21   17   18 1
    22    1   20 1
    23    3   21 1
    24    4   22 1
    25    9   23 1
    26   11   24 1
    27   13   25 1
    28   15   26 1
    29   16   27 1
    30   18   28 1
    31   18   29 1
    32   18   30 1
@<TRIPOS>PROPERTY_DATA
  Total_Score	| 5.7191
  Crash		| -0.7754
  Polar		| 2.2406
  FragIndex	| 1
  FragRMSD	| 0.682

