@<TRIPOS>MOLECULE
BindingDB_10075
 34 36 0 0 0
SMALL
NO_CHARGES


@<TRIPOS>ATOM
1    C       -94.3504   78.9469   84.9487  C     
2    C       -95.4720   78.2124   85.4020  C     
3    C       -96.0402   78.5040   86.6635  C     
4    C       -95.4868   79.5073   87.4825  C     
5    C       -93.7887   79.9469   85.7746  C     
6    C       -92.7016   80.7949   85.6413  C     
7    C       -94.3710   80.2171   87.0116  C     
8    C       -92.6842   81.5365   86.7795  C     
9    N       -93.6663   81.1916   87.5822  N     
10   O       -91.8246   82.3109   87.1628  O     
11   C       -91.8406   80.7611   84.6021  C     
12   C       -90.7411   81.5678   84.3235  C     
13   C       -88.8376   82.2875   83.3536  C     
14   C       -89.7832   81.2710   83.3460  C     
15   C       -89.2589   83.2116   84.2957  C     
16   N       -90.3987   82.7633   84.8453  N     
17   O       -89.7631   80.1667   82.5467  O     
18   C       -90.5110   80.3571   81.3285  C     
19   O       -96.0631   77.2622   84.6134  O     
20   C       -95.3691   76.0018   84.5907  C     
21   H       -93.9547   78.7470   84.0293  H     
22   H       -96.8597   77.9849   86.9880  H     
23   H       -95.8836   79.7115   88.4000  H     
24   H       -93.8187   81.5495   88.4723  H     
25   H       -91.9941   80.0349   83.9443  H     
26   H       -88.0065   82.3537   82.7633  H     
27   H       -88.7902   84.0892   84.5229  H     
28   H       -90.9104   83.2546   85.5038  H     
29   H       -91.5511   80.6306   81.5267  H     
30   H       -90.5178   79.4176   80.7774  H     
31   H       -90.0517   81.1210   80.6964  H     
32   H       -94.4102   76.0925   84.0739  H     
33   H       -95.9860   75.2893   84.0428  H     
34   H       -95.2052   75.6052   85.5970  H     
@<TRIPOS>BOND
     1    1    2 1
     2    1    5 2
     3    2    3 2
     4    2   19 1
     5    3    4 1
     6    4    7 2
     7    5    6 1
     8    5    7 1
     9    6    8 1
    10    6   11 2
    11    7    9 1
    12    8    9 1
    13    8   10 2
    14   11   12 1
    15   12   14 2
    16   12   16 1
    17   13   14 1
    18   13   15 2
    19   14   17 1
    20   15   16 1
    21   17   18 1
    22   19   20 1
    23    1   21 1
    24    3   22 1
    25    4   23 1
    26    9   24 1
    27   11   25 1
    28   13   26 1
    29   15   27 1
    30   16   28 1
    31   18   29 1
    32   18   30 1
    33   18   31 1
    34   20   32 1
    35   20   33 1
    36   20   34 1
@<TRIPOS>PROPERTY_DATA
  Total_Score	| 6.1711
  Crash		| -0.7076
  Polar		| 2.2556
  FragIndex	| 1
  FragRMSD	| 0.220

