@<TRIPOS>MOLECULE
BindingDB_7253
 38 41 0 0 0
SMALL
NO_CHARGES


@<TRIPOS>ATOM
1    C       -94.2566   78.9556   84.8959  C     
2    C       -95.3663   78.2055   85.3790  C     
3    C       -95.9229   78.5326   86.6427  C     
4    C       -95.3709   79.5594   87.4357  C     
5    C       -93.6885   79.9769   85.7009  C     
6    C       -92.6133   80.8423   85.5316  C     
7    C       -94.2609   80.2635   86.9458  C     
8    C       -92.5983   81.5914   86.6645  C     
9    N       -93.5678   81.2553   87.4860  N     
10   O       -91.7616   82.3857   87.0521  O     
11   C       -91.7950   80.8531   84.4533  C     
12   C       -90.7321   81.7055   84.1256  C     
13   C       -89.2234   83.3428   84.1896  C     
14   N       -90.2049   82.7133   84.8540  N     
15   C       -90.0374   81.7199   82.9015  C     
16   C       -89.1109   82.7569   82.9395  C     
17   C       -88.3142   83.0990   81.8658  C     
18   C       -89.1685   81.2153   80.5646  C     
19   C       -90.2168   80.9016   81.6827  C     
20   O       -87.5604   84.0612   81.9127  O     
21   N       -88.3560   82.3868   80.7510  N     
22   O       -96.0200   77.2368   84.6457  O     
23   C       -95.3982   75.9261   84.5380  C     
24   H       -93.8772   78.7440   83.9688  H     
25   H       -96.7380   78.0106   86.9904  H     
26   H       -95.7747   79.7834   88.3558  H     
27   H       -93.7086   81.6191   88.3772  H     
28   H       -91.9796   80.1588   83.7663  H     
29   H       -88.6853   84.1418   84.5322  H     
30   H       -90.5179   83.0017   85.7206  H     
31   H       -88.4734   80.3768   80.4803  H     
32   H       -89.6885   81.3101   79.6083  H     
33   H       -90.1498   79.8502   81.9659  H     
34   H       -91.2269   81.0829   81.3065  H     
35   H       -87.7541   82.6305   80.0287  H     
36   H       -94.5215   75.9697   83.8690  H     
37   H       -96.1264   75.2358   84.1059  H     
38   H       -95.0878   75.5302   85.5151  H     
@<TRIPOS>BOND
     1    1    2 1
     2    1    5 2
     3    2    3 2
     4    2   22 1
     5    3    4 1
     6    4    7 2
     7    5    6 1
     8    5    7 1
     9    6    8 1
    10    6   11 2
    11    7    9 1
    12    8    9 1
    13    8   10 2
    14   11   12 1
    15   12   14 1
    16   12   15 2
    17   13   14 1
    18   13   16 2
    19   15   16 1
    20   15   19 1
    21   16   17 1
    22   17   20 2
    23   17   21 1
    24   18   19 1
    25   18   21 1
    26   22   23 1
    27    1   24 1
    28    3   25 1
    29    4   26 1
    30    9   27 1
    31   11   28 1
    32   13   29 1
    33   14   30 1
    34   18   31 1
    35   18   32 1
    36   19   33 1
    37   19   34 1
    38   21   35 1
    39   23   36 1
    40   23   37 1
    41   23   38 1
@<TRIPOS>PROPERTY_DATA
  Total_Score	| 6.2213
  Crash		| -0.6795
  Polar		| 2.1980
  FragIndex	| 1
  FragRMSD	| 0.325

