@<TRIPOS>MOLECULE
BindingDB_10090
 50 53 0 0 0
SMALL
NO_CHARGES


@<TRIPOS>ATOM
1    C       -94.5681   78.9679   84.8447  C     
2    C       -95.8223   78.4352   85.3206  C     
3    C       -96.2320   78.7774   86.6396  C     
4    C       -95.5153   79.6856   87.4260  C     
5    C       -93.8393   79.9135   85.6364  C     
6    C       -92.6525   80.6651   85.5142  C     
7    C       -94.3638   80.2579   86.8865  C     
8    C       -92.5702   81.3987   86.6653  C     
9    N       -93.5822   81.1585   87.4599  N     
10   O       -91.6090   81.9919   87.1345  O     
11   C       -91.7361   80.6473   84.5172  C     
12   C       -90.7048   81.5573   84.2635  C     
13   C       -88.9097   82.5660   83.3279  C     
14   C       -89.7878   81.4908   83.2033  C     
15   C       -89.3540   83.3179   84.4048  C     
16   N       -90.4316   82.7090   84.9209  N     
17   O       -89.8077   80.5845   82.1847  O     
18   C       -89.2307   81.0881   80.9590  C     
19   N       -96.6794   77.6719   84.5654  N     
20   O       -97.7386   77.2509   84.9685  O     
21   O       -96.4993   77.4082   83.3044  O     
22   C       -92.5301   78.1116   81.2492  C     
23   C       -93.0993   79.5431   81.5357  C     
24   C       -94.2840   79.5667   82.5303  C     
25   C       -93.6852   77.2629   83.3472  C     
26   C       -93.4288   76.9890   81.8387  C     
27   N       -94.0993   78.6301   83.6162  N     
28   N       -91.1795   77.9468   81.8110  N     
29   H       -97.0994   78.4029   87.0363  H     
30   H       -95.8316   79.9420   88.3631  H     
31   H       -93.6981   81.4970   88.3678  H     
32   H       -91.7882   79.9003   83.8548  H     
33   H       -88.1320   82.8064   82.7104  H     
34   H       -88.9464   84.2052   84.7123  H     
35   H       -90.9492   83.0718   85.6524  H     
36   H       -89.6633   82.0520   80.6731  H     
37   H       -89.4318   80.3848   80.1540  H     
38   H       -88.1455   81.1882   81.0480  H     
39   H       -92.4470   77.9498   80.1711  H     
40   H       -92.3350   80.1999   81.9646  H     
41   H       -93.4342   79.9936   80.5996  H     
42   H       -94.4225   80.5954   82.8787  H     
43   H       -95.1935   79.2793   81.9953  H     
44   H       -94.4263   76.5402   83.7044  H     
45   H       -92.7576   77.0788   83.8963  H     
46   H       -94.3814   76.9786   81.3019  H     
47   H       -92.9729   76.0040   81.7056  H     
48   H       -90.4869   78.4128   81.2271  H     
49   H       -90.9440   76.9549   81.8714  H     
50   H       -91.1469   78.3416   82.7528  H     
@<TRIPOS>BOND
     1    1    2 1
     2    1    5 2
     3    1   27 1
     4    2    3 2
     5    2   19 am
     6    3    4 1
     7    4    7 2
     8    5    6 1
     9    5    7 1
    10    6    8 1
    11    6   11 2
    12    7    9 1
    13    8    9 1
    14    8   10 2
    15   11   12 1
    16   12   14 2
    17   12   16 1
    18   13   14 1
    19   13   15 2
    20   14   17 1
    21   15   16 1
    22   17   18 1
    23   19   20 2
    24   19   21 1
    25   22   23 1
    26   22   26 1
    27   22   28 1
    28   23   24 1
    29   24   27 1
    30   25   26 1
    31   25   27 1
    32    3   29 1
    33    4   30 1
    34    9   31 1
    35   11   32 1
    36   13   33 1
    37   15   34 1
    38   16   35 1
    39   18   36 1
    40   18   37 1
    41   18   38 1
    42   22   39 1
    43   23   40 1
    44   23   41 1
    45   24   42 1
    46   24   43 1
    47   25   44 1
    48   25   45 1
    49   26   46 1
    50   26   47 1
    51   28   48 1
    52   28   49 1
    53   28   50 1
@<TRIPOS>PROPERTY_DATA
  Total_Score	| 8.3524
  Crash		| -2.8145
  Polar		| 4.8722
  FragIndex	| 1
  FragRMSD	| 0.322

