@<TRIPOS>MOLECULE
BindingDB_7239
 37 40 0 0 0
SMALL
NO_CHARGES


@<TRIPOS>ATOM
1    C       -94.1998   78.9454   84.8835  C     
2    C       -95.3385   78.2318   85.3295  C     
3    C       -95.9403   78.5807   86.5597  C     
4    C       -95.4125   79.6161   87.3543  C     
5    C       -93.6542   79.9795   85.6876  C     
6    C       -92.5778   80.8398   85.5427  C     
7    C       -94.2736   80.2937   86.8970  C     
8    C       -92.5836   81.5959   86.6697  C     
9    O       -95.9510   77.2269   84.6167  O     
10   C       -95.3128   75.9434   84.6163  C     
11   N       -93.5808   81.2724   87.4597  N     
12   O       -91.7162   82.3589   87.0619  O     
13   C       -91.7506   80.8581   84.4693  C     
14   C       -90.7077   81.7311   84.1383  C     
15   C       -89.2598   83.4108   84.1777  C     
16   N       -90.2301   82.7716   84.8511  N     
17   C       -90.0139   81.7380   82.9165  C     
18   C       -89.1135   82.7946   82.9468  C     
19   C       -88.3125   83.1412   81.8525  C     
20   C       -89.2067   81.2126   80.5517  C     
21   C       -90.2055   80.8975   81.7118  C     
22   O       -87.5034   84.2230   81.8759  O     
23   O       -88.3766   82.3762   80.7311  O     
24   H       -93.7805   78.7008   83.9799  H     
25   H       -96.7711   78.0775   86.8862  H     
26   H       -95.8517   79.8676   88.2416  H     
27   H       -94.3650   76.0066   84.0824  H     
28   H       -95.9631   75.2280   84.0874  H     
29   H       -95.1423   75.5730   85.6344  H     
30   H       -93.7411   81.6288   88.3516  H     
31   H       -91.9149   80.1499   83.7930  H     
32   H       -88.7519   84.2369   84.4933  H     
33   H       -90.5700   83.0646   85.7065  H     
34   H       -88.5296   80.3700   80.4148  H     
35   H       -89.7670   81.3388   79.6238  H     
36   H       -90.1111   79.8506   82.0024  H     
37   H       -91.2281   81.0561   81.3618  H     
@<TRIPOS>BOND
     1    1    2 1
     2    1    5 2
     3    2    3 2
     4    2    9 1
     5    3    4 1
     6    4    7 2
     7    5    6 1
     8    5    7 1
     9    6    8 1
    10    6   13 2
    11    7   11 1
    12    8   11 1
    13    8   12 2
    14    9   10 1
    15   13   14 1
    16   14   16 1
    17   14   17 2
    18   15   16 1
    19   15   18 2
    20   17   18 1
    21   17   21 1
    22   18   19 1
    23   19   22 2
    24   19   23 1
    25   20   21 1
    26   20   23 1
    27    1   24 1
    28    3   25 1
    29    4   26 1
    30   10   27 1
    31   10   28 1
    32   10   29 1
    33   11   30 1
    34   13   31 1
    35   15   32 1
    36   16   33 1
    37   20   34 1
    38   20   35 1
    39   21   36 1
    40   21   37 1
@<TRIPOS>PROPERTY_DATA
  Total_Score	| 5.9970
  Crash		| -0.7818
  Polar		| 2.1667
  FragIndex	| 1
  FragRMSD	| 0.311

