@<TRIPOS>MOLECULE
BindingDB_10089
 50 53 0 0 0
SMALL
NO_CHARGES


@<TRIPOS>ATOM
1    C       -94.8561   79.1656   84.9545  C     
2    C       -95.8857   78.4154   85.6593  C     
3    C       -96.0483   78.6205   87.0666  C     
4    C       -95.3607   79.6072   87.7700  C     
5    C       -94.0690   80.0866   85.7388  C     
6    C       -92.9297   80.8900   85.5424  C     
7    C       -94.4011   80.3288   87.0742  C     
8    C       -92.7845   81.6596   86.6594  C     
9    N       -93.6458   81.2988   87.5677  N     
10   O       -91.8524   82.3744   86.9983  O     
11   C       -91.9472   80.6213   84.6543  C     
12   C       -90.7980   81.3523   84.3391  C     
13   C       -88.8572   81.9891   83.3800  C     
14   C       -89.8715   81.0362   83.3392  C     
15   C       -89.2145   82.9092   84.3492  C     
16   N       -90.3847   82.5194   84.8839  N     
17   O       -89.9630   79.9814   82.4687  O     
18   C       -90.2507   80.3850   81.1089  C     
19   N       -96.8497   77.6039   85.1261  N     
20   O       -97.7130   77.0491   85.7610  O     
21   O       -97.0972   77.5447   83.8710  O     
22   N       -94.6567   79.2408   83.5854  N     
23   C       -94.2006   78.2436   82.6032  C     
24   C       -95.2305   77.3646   81.7965  C     
25   C       -94.5154   76.4001   80.8146  C     
26   C       -92.7307   78.0786   80.4252  C     
27   C       -93.4235   79.0109   81.4616  C     
28   N       -93.6874   77.1208   79.8315  N     
29   H       -96.7429   78.1091   87.6177  H     
30   H       -95.5512   79.7905   88.7561  H     
31   H       -93.6807   81.6287   88.4830  H     
32   H       -91.9944   79.7211   84.2545  H     
33   H       -88.0351   82.0343   82.7777  H     
34   H       -88.6882   83.7439   84.5931  H     
35   H       -90.8698   83.0224   85.5635  H     
36   H       -91.1311   81.0351   81.0509  H     
37   H       -90.4748   79.4945   80.5300  H     
38   H       -89.3866   80.8883   80.6628  H     
39   H       -94.3342   80.1242   83.3389  H     
40   H       -93.4936   77.5782   83.1156  H     
41   H       -95.8061   76.6904   82.3980  H     
42   H       -95.9449   78.0016   81.2706  H     
43   H       -93.8711   75.7017   81.3698  H     
44   H       -95.2504   75.8124   80.2614  H     
45   H       -92.3123   78.6792   79.6142  H     
46   H       -91.9142   77.5285   80.9122  H     
47   H       -94.1356   79.6464   80.9141  H     
48   H       -92.6578   79.6735   81.8443  H     
49   H       -93.1677   76.4483   79.2587  H     
50   H       -94.3210   77.6261   79.2071  H     
@<TRIPOS>BOND
     1    1    2 1
     2    1    5 2
     3    1   22 1
     4    2    3 2
     5    2   19 am
     6    3    4 1
     7    4    7 2
     8    5    6 1
     9    5    7 1
    10    6    8 1
    11    6   11 2
    12    7    9 1
    13    8    9 1
    14    8   10 2
    15   11   12 1
    16   12   14 2
    17   12   16 1
    18   13   14 1
    19   13   15 2
    20   14   17 1
    21   15   16 1
    22   17   18 1
    23   19   20 2
    24   19   21 1
    25   22   23 1
    26   23   24 1
    27   23   27 1
    28   24   25 1
    29   25   28 1
    30   26   27 1
    31   26   28 1
    32    3   29 1
    33    4   30 1
    34    9   31 1
    35   11   32 1
    36   13   33 1
    37   15   34 1
    38   16   35 1
    39   18   36 1
    40   18   37 1
    41   18   38 1
    42   22   39 1
    43   23   40 1
    44   24   41 1
    45   24   42 1
    46   25   43 1
    47   25   44 1
    48   26   45 1
    49   26   46 1
    50   27   47 1
    51   27   48 1
    52   28   49 1
    53   28   50 1
@<TRIPOS>PROPERTY_DATA
  Total_Score	| 6.5577
  Crash		| -2.8297
  Polar		| 2.7853
  FragIndex	| 1
  FragRMSD	| 0.430

