@<TRIPOS>MOLECULE
BindingDB_10076
 32 34 0 0 0
SMALL
NO_CHARGES


@<TRIPOS>ATOM
1    C       -94.4835   78.9428   84.8643  C     
2    C       -95.7303   78.4000   85.2838  C     
3    C       -96.2390   78.8078   86.5486  C     
4    C       -95.5471   79.7326   87.3542  C     
5    C       -93.7959   79.8820   85.6663  C     
6    C       -92.6242   80.5994   85.5026  C     
7    C       -94.3372   80.2634   86.8896  C     
8    C       -92.5322   81.4047   86.5976  C     
9    N       -93.5302   81.1819   87.4246  N     
10   O       -91.7421   82.3137   86.8091  O     
11   C       -91.8133   80.4774   84.4284  C     
12   C       -90.5874   81.0718   84.1753  C     
13   C       -88.7379   81.8575   83.1754  C     
14   C       -89.9703   81.2661   82.9226  C     
15   C       -88.6094   81.9814   84.5470  C     
16   N       -89.7189   81.4925   85.1156  N     
17   O       -90.3577   81.0799   81.6179  O     
18   C       -91.0827   79.8879   81.2616  C     
19   N       -96.4208   77.5337   84.4817  N     
20   O       -97.5285   77.1382   84.7441  O     
21   O       -95.9476   77.1133   83.3379  O     
22   H       -94.0896   78.6811   83.9588  H     
23   H       -97.1260   78.4317   86.8971  H     
24   H       -95.9209   80.0203   88.2547  H     
25   H       -93.6940   81.6619   88.2549  H     
26   H       -92.1229   79.8597   83.7262  H     
27   H       -88.0439   82.1428   82.4813  H     
28   H       -87.7976   82.3492   85.0432  H     
29   H       -89.8494   81.4141   86.0724  H     
30   H       -90.7716   79.0147   81.8429  H     
31   H       -90.8954   79.6723   80.2079  H     
32   H       -92.1584   80.0594   81.3812  H     
@<TRIPOS>BOND
     1    1    2 1
     2    1    5 2
     3    2    3 2
     4    2   19 am
     5    3    4 1
     6    4    7 2
     7    5    6 1
     8    5    7 1
     9    6    8 1
    10    6   11 2
    11    7    9 1
    12    8    9 1
    13    8   10 2
    14   11   12 1
    15   12   14 2
    16   12   16 1
    17   13   14 1
    18   13   15 2
    19   14   17 1
    20   15   16 1
    21   17   18 1
    22   19   20 2
    23   19   21 1
    24    1   22 1
    25    3   23 1
    26    4   24 1
    27    9   25 1
    28   11   26 1
    29   13   27 1
    30   15   28 1
    31   16   29 1
    32   18   30 1
    33   18   31 1
    34   18   32 1
@<TRIPOS>PROPERTY_DATA
  Total_Score	| 6.0343
  Crash		| -0.7389
  Polar		| 2.6322
  FragIndex	| 1
  FragRMSD	| 0.619

