@<TRIPOS>MOLECULE
BindingDB_10088
 50 53 0 0 0
SMALL
NO_CHARGES


@<TRIPOS>ATOM
1    C       -94.8585   79.1662   85.0164  C     
2    C       -96.0307   78.6210   85.6630  C     
3    C       -96.2092   78.8897   87.0488  C     
4    C       -95.3289   79.6933   87.7723  C     
5    C       -93.9640   80.0258   85.7458  C     
6    C       -92.8223   80.8221   85.5180  C     
7    C       -94.2441   80.2458   87.0994  C     
8    C       -92.5680   81.4898   86.6788  C     
9    N       -93.3883   81.1114   87.6182  N     
10   O       -91.9716   82.5481   86.8176  O     
11   C       -92.0932   80.9528   84.3871  C     
12   C       -90.7342   81.2694   84.2678  C     
13   C       -88.6641   81.5857   83.4411  C     
14   C       -89.9868   81.3285   83.0776  C     
15   C       -88.6221   81.6679   84.8193  C     
16   N       -89.8556   81.4376   85.2783  N     
17   O       -90.4446   80.9511   81.8368  O     
18   C       -89.6040   81.1972   80.6937  C     
19   N       -96.9864   77.8200   85.0675  N     
20   O       -97.9557   77.4059   85.6514  O     
21   O       -96.9780   77.4049   83.8342  O     
22   N       -94.7246   78.8932   83.6942  N     
23   C       -93.6358   78.2592   83.0198  C     
24   C       -92.8789   77.8702   80.7257  C     
25   C       -93.6949   76.6292   81.1365  C     
26   C       -93.9475   76.7817   82.6530  C     
27   C       -93.4095   78.9670   81.6600  C     
28   N       -91.4316   77.6882   80.9146  N     
29   H       -96.9976   78.4964   87.5666  H     
30   H       -95.4846   79.8837   88.7626  H     
31   H       -93.4913   81.5429   88.4835  H     
32   H       -92.5583   80.7539   83.5435  H     
33   H       -87.8503   81.6217   82.8296  H     
34   H       -87.7873   81.7878   85.3928  H     
35   H       -90.0575   81.3393   86.2174  H     
36   H       -89.5624   82.2662   80.4837  H     
37   H       -90.0250   80.6791   79.8294  H     
38   H       -88.5916   80.8151   80.8238  H     
39   H       -95.5560   78.7542   83.2296  H     
40   H       -92.7192   78.2516   83.6114  H     
41   H       -93.0598   78.1287   79.6789  H     
42   H       -94.6520   76.6341   80.6052  H     
43   H       -93.1762   75.6979   80.9025  H     
44   H       -93.2878   76.1146   83.2113  H     
45   H       -94.9717   76.4953   82.8899  H     
46   H       -94.3543   79.3456   81.2515  H     
47   H       -92.7164   79.8079   81.7306  H     
48   H       -91.0185   78.5604   81.2491  H     
49   H       -91.0113   77.4583   80.0152  H     
50   H       -91.2506   76.9404   81.5912  H     
@<TRIPOS>BOND
     1    1    2 1
     2    1    5 2
     3    1   22 1
     4    2    3 2
     5    2   19 am
     6    3    4 1
     7    4    7 2
     8    5    6 1
     9    5    7 1
    10    6    8 1
    11    6   11 2
    12    7    9 1
    13    8    9 1
    14    8   10 2
    15   11   12 1
    16   12   14 2
    17   12   16 1
    18   13   14 1
    19   13   15 2
    20   14   17 1
    21   15   16 1
    22   17   18 1
    23   19   20 2
    24   19   21 1
    25   23   22 1
    26   23   26 1
    27   23   27 1
    28   24   25 1
    29   24   27 1
    30   24   28 1
    31   25   26 1
    32    3   29 1
    33    4   30 1
    34    9   31 1
    35   11   32 1
    36   13   33 1
    37   15   34 1
    38   16   35 1
    39   18   36 1
    40   18   37 1
    41   18   38 1
    42   22   39 1
    43   23   40 1
    44   24   41 1
    45   25   42 1
    46   25   43 1
    47   26   44 1
    48   26   45 1
    49   27   46 1
    50   27   47 1
    51   28   48 1
    52   28   49 1
    53   28   50 1
@<TRIPOS>PROPERTY_DATA
  Total_Score	| 8.3092
  Crash		| -2.6650
  Polar		| 3.9167
  FragIndex	| 1
  FragRMSD	| 0.766

