@<TRIPOS>MOLECULE
BindingDB_10073
 30 32 0 0 0
SMALL
NO_CHARGES


@<TRIPOS>ATOM
1    C       -94.6143   79.2545   84.9176  C     
2    C       -95.6697   78.4701   85.4249  C     
3    C       -96.0539   78.5881   86.7764  C     
4    C       -95.3922   79.4996   87.6251  C     
5    C       -93.9465   80.1625   85.7740  C     
6    C       -92.8518   80.9937   85.6105  C     
7    C       -94.3424   80.2735   87.1028  C     
8    C       -92.6547   81.5918   86.8070  C     
9    N       -93.5406   81.1677   87.6842  N     
10   O       -91.8607   82.4803   87.0705  O     
11   C       -92.1182   80.9995   84.4839  C     
12   C       -90.8696   81.4654   84.1563  C     
13   C       -88.8353   81.4234   83.2377  C     
14   C       -90.0372   80.7277   83.3036  C     
15   C       -88.9730   82.5593   84.0256  C     
16   N       -90.1997   82.5542   84.5690  N     
17   O       -90.2421   79.4299   82.8603  O     
18   C       -91.1427   79.1803   81.7536  C     
19   H       -94.3435   79.1460   83.9399  H     
20   H       -96.1530   77.8078   84.8136  H     
21   H       -96.8099   78.0042   87.1428  H     
22   H       -95.6525   79.5765   88.6072  H     
23   H       -93.6216   81.4758   88.6004  H     
24   H       -92.5137   80.5026   83.7492  H     
25   H       -87.9837   81.1232   82.7606  H     
26   H       -88.2452   83.2502   84.2058  H     
27   H       -90.5320   83.2251   85.1839  H     
28   H       -92.2167   79.2429   82.0080  H     
29   H       -90.9728   78.1585   81.4230  H     
30   H       -90.9305   79.8519   80.9240  H     
@<TRIPOS>BOND
     1    1    2 1
     2    1    5 2
     3    2    3 2
     4    3    4 1
     5    4    7 2
     6    5    6 1
     7    5    7 1
     8    6    8 1
     9    6   11 2
    10    7    9 1
    11    8    9 1
    12    8   10 2
    13   11   12 1
    14   12   14 2
    15   12   16 1
    16   13   14 1
    17   13   15 2
    18   14   17 1
    19   15   16 1
    20   17   18 1
    21    1   19 1
    22    2   20 1
    23    3   21 1
    24    4   22 1
    25    9   23 1
    26   11   24 1
    27   13   25 1
    28   15   26 1
    29   16   27 1
    30   18   28 1
    31   18   29 1
    32   18   30 1
@<TRIPOS>PROPERTY_DATA
  Total_Score	| 5.8730
  Crash		| -0.7263
  Polar		| 2.1590
  FragIndex	| 1
  FragRMSD	| 0.445

