@<TRIPOS>MOLECULE
BindingDB_10084
 48 51 0 0 0
SMALL
NO_CHARGES


@<TRIPOS>ATOM
1    C       -94.6511   78.9636   84.9905  C     
2    C       -95.8595   78.3579   85.4942  C     
3    C       -96.2407   78.6284   86.8401  C     
4    C       -95.5601   79.5720   87.6164  C     
5    C       -93.9510   79.9220   85.7919  C     
6    C       -92.7818   80.6842   85.6872  C     
7    C       -94.4683   80.2359   87.0515  C     
8    C       -92.7404   81.4674   86.8040  C     
9    N       -93.7252   81.1771   87.6123  N     
10   O       -91.8133   82.1418   87.2336  O     
11   C       -91.8005   80.5495   84.7698  C     
12   C       -90.7559   81.4224   84.4598  C     
13   C       -88.9267   82.2868   83.4436  C     
14   C       -89.7911   81.1977   83.4663  C     
15   C       -89.4174   83.1982   84.3625  C     
16   N       -90.5099   82.6664   84.9291  N     
17   O       -89.7798   80.1496   82.5947  O     
18   C       -90.3645   80.5133   81.3216  C     
19   N       -96.7198   77.6000   84.7324  N     
20   O       -97.7425   77.1211   85.1566  O     
21   O       -96.6228   77.4855   83.4471  O     
22   C       -93.6744   77.6223   81.0643  C     
23   C       -94.3261   79.0098   81.3388  C     
24   C       -93.9040   79.5511   82.7294  C     
25   C       -93.7176   77.1994   83.6024  C     
26   C       -94.0552   76.6257   82.1970  C     
27   N       -94.1609   78.5754   83.7750  N     
28   O       -92.2569   77.7394   80.9645  O     
29   H       -97.0587   78.1846   87.2597  H     
30   H       -95.8576   79.7813   88.5749  H     
31   H       -93.8438   81.5369   88.5082  H     
32   H       -91.8445   79.7294   84.2155  H     
33   H       -88.1296   82.4299   82.8182  H     
34   H       -89.0359   84.1274   84.5442  H     
35   H       -91.0588   83.1431   85.5771  H     
36   H       -91.3588   80.9485   81.4419  H     
37   H       -90.4659   79.6181   80.7124  H     
38   H       -89.7264   81.2169   80.7848  H     
39   H       -94.0442   77.2312   80.1094  H     
40   H       -94.0155   79.7248   80.5761  H     
41   H       -95.4194   78.9289   81.2903  H     
42   H       -92.8334   79.7798   82.6894  H     
43   H       -94.4387   80.4866   82.9112  H     
44   H       -94.1267   76.5290   84.3583  H     
45   H       -92.6358   77.1902   83.7228  H     
46   H       -95.1263   76.3973   82.1204  H     
47   H       -93.5328   75.6693   82.0453  H     
48   H       -91.8734   77.0042   81.5057  H     
@<TRIPOS>BOND
     1    1    2 1
     2    1    5 2
     3    1   27 1
     4    2    3 2
     5    2   19 am
     6    3    4 1
     7    4    7 2
     8    5    6 1
     9    5    7 1
    10    6    8 1
    11    6   11 2
    12    7    9 1
    13    8    9 1
    14    8   10 2
    15   11   12 1
    16   12   14 2
    17   12   16 1
    18   13   14 1
    19   13   15 2
    20   14   17 1
    21   15   16 1
    22   17   18 1
    23   19   20 2
    24   19   21 1
    25   22   23 1
    26   22   26 1
    27   22   28 1
    28   23   24 1
    29   24   27 1
    30   25   26 1
    31   25   27 1
    32    3   29 1
    33    4   30 1
    34    9   31 1
    35   11   32 1
    36   13   33 1
    37   15   34 1
    38   16   35 1
    39   18   36 1
    40   18   37 1
    41   18   38 1
    42   22   39 1
    43   23   40 1
    44   23   41 1
    45   24   42 1
    46   24   43 1
    47   25   44 1
    48   25   45 1
    49   26   46 1
    50   26   47 1
    51   28   48 1
@<TRIPOS>PROPERTY_DATA
  Total_Score	| 7.3186
  Crash		| -2.7929
  Polar		| 3.8424
  FragIndex	| 1
  FragRMSD	| 0.351

