@<TRIPOS>MOLECULE
BindingDB_10094
 30 32 0 0 0
SMALL
NO_CHARGES


@<TRIPOS>ATOM
1    C       -94.5748   79.0342   84.9044  C     
2    C       -95.6960   78.3845   85.4778  C     
3    C       -96.1245   78.6968   86.7847  C     
4    C       -95.4301   79.6523   87.5456  C     
5    F       -96.3448   77.4654   84.8163  F     
6    C       -93.8852   80.0190   85.6633  C     
7    C       -92.7526   80.8032   85.4789  C     
8    C       -94.3204   80.2848   86.9666  C     
9    C       -92.5678   81.4770   86.6472  C     
10   N       -93.5024   81.1780   87.5150  N     
11   O       -91.7758   82.3780   86.8763  O     
12   C       -92.0237   80.9453   84.3531  C     
13   C       -90.6936   81.3401   84.2868  C     
14   C       -88.6298   81.8494   83.5803  C     
15   C       -89.9343   81.6180   83.1417  C     
16   C       -88.6224   81.6994   84.9550  C     
17   N       -89.8663   81.4010   85.3476  N     
18   O       -90.4123   81.6227   81.8532  O     
19   C       -89.4316   81.7782   80.8096  C     
20   I       -93.9941   78.4334   83.0214  I     
21   H       -96.9312   78.2179   87.1925  H     
22   H       -95.7156   79.8654   88.5034  H     
23   H       -93.6036   81.5739   88.3983  H     
24   H       -92.4484   80.7207   83.4904  H     
25   H       -87.8223   82.0817   83.0009  H     
26   H       -87.8121   81.7710   85.5692  H     
27   H       -90.1171   81.2204   86.2661  H     
28   H       -88.8600   82.7002   80.9445  H     
29   H       -89.9428   81.8275   79.8484  H     
30   H       -88.7523   80.9247   80.7766  H     
@<TRIPOS>BOND
     1    1    2 1
     2    1    6 2
     3    1   20 1
     4    2    3 2
     5    2    5 1
     6    3    4 1
     7    4    8 2
     8    6    7 1
     9    6    8 1
    10    7    9 1
    11    7   12 2
    12    8   10 1
    13    9   10 1
    14    9   11 2
    15   12   13 1
    16   13   15 2
    17   13   17 1
    18   14   15 1
    19   14   16 2
    20   15   18 1
    21   16   17 1
    22   18   19 1
    23    3   21 1
    24    4   22 1
    25   10   23 1
    26   12   24 1
    27   14   25 1
    28   16   26 1
    29   17   27 1
    30   19   28 1
    31   19   29 1
    32   19   30 1
@<TRIPOS>PROPERTY_DATA
  Total_Score	| 5.5389
  Crash		| -1.0092
  Polar		| 2.1894
  FragIndex	| 1
  FragRMSD	| 0.699

