@<TRIPOS>MOLECULE
BindingDB_10086
 51 54 0 0 0
SMALL
NO_CHARGES


@<TRIPOS>ATOM
1    C       -94.3403   78.7556   84.8131  C     
2    C       -95.6481   78.2503   85.1256  C     
3    C       -96.3227   78.7375   86.2815  C     
4    C       -95.7237   79.6616   87.1531  C     
5    C       -93.8139   79.7963   85.6461  C     
6    C       -92.6849   80.6174   85.5908  C     
7    C       -94.4671   80.1684   86.8201  C     
8    C       -92.6377   81.3003   86.7647  C     
9    N       -93.7109   81.0524   87.4759  N     
10   O       -91.8490   82.1707   87.1017  O     
11   C       -92.0091   80.9511   84.4715  C     
12   C       -90.7072   81.4259   84.3786  C     
13   C       -88.7261   82.0791   83.5352  C     
14   C       -90.0338   81.7587   83.1967  C     
15   C       -88.6126   81.8940   84.9019  C     
16   N       -89.8066   81.5113   85.3768  N     
17   O       -90.5221   81.7788   81.9235  O     
18   C       -89.9396   80.7592   81.0916  C     
19   N       -96.2487   77.2317   84.4536  N     
20   O       -97.4367   77.2427   84.2534  O     
21   O       -95.8489   76.0330   84.7598  O     
22   N       -93.4873   78.3781   83.8174  N     
23   C       -93.5141   77.8942   82.4608  C     
24   C       -94.0822   78.9166   81.4259  C     
25   C       -95.4486   78.5334   80.8170  C     
26   C       -95.4079   77.1057   80.2197  C     
27   C       -95.1179   76.0737   81.3369  C     
28   C       -93.8504   76.3889   82.2009  C     
29   O       -94.4335   77.0107   79.1781  O     
30   H       -97.2391   78.3633   86.5439  H     
31   H       -96.1921   79.9597   88.0062  H     
32   H       -93.9292   81.4719   88.3269  H     
33   H       -92.4766   80.8003   83.6101  H     
34   H       -87.9835   82.3609   82.8937  H     
35   H       -87.7620   81.9930   85.4543  H     
36   H       -89.9766   81.2814   86.3035  H     
37   H       -88.8465   80.7629   81.1274  H     
38   H       -90.2393   80.9539   80.0637  H     
39   H       -90.3081   79.7706   81.3753  H     
40   H       -92.5710   78.5529   84.0752  H     
41   H       -92.4363   77.9284   82.2571  H     
42   H       -94.1557   79.9062   81.8746  H     
43   H       -93.3714   79.0157   80.5985  H     
44   H       -96.2212   78.5942   81.5850  H     
45   H       -95.7110   79.2477   80.0333  H     
46   H       -96.3874   76.8926   79.7781  H     
47   H       -96.0086   76.0250   81.9498  H     
48   H       -95.0039   75.0838   80.8825  H     
49   H       -93.0232   75.9531   81.6324  H     
50   H       -93.8580   75.8691   83.1719  H     
51   H       -94.6204   76.1543   78.7364  H     
@<TRIPOS>BOND
     1    1    2 1
     2    1    5 2
     3    1   22 1
     4    2    3 2
     5    2   19 am
     6    3    4 1
     7    4    7 2
     8    5    6 1
     9    5    7 1
    10    6    8 1
    11    6   11 2
    12    7    9 1
    13    8    9 1
    14    8   10 2
    15   11   12 1
    16   12   14 2
    17   12   16 1
    18   13   14 1
    19   13   15 2
    20   14   17 1
    21   15   16 1
    22   17   18 1
    23   19   20 2
    24   19   21 1
    25   23   22 1
    26   23   24 1
    27   23   28 1
    28   24   25 1
    29   25   26 1
    30   26   27 1
    31   26   29 1
    32   27   28 1
    33    3   30 1
    34    4   31 1
    35    9   32 1
    36   11   33 1
    37   13   34 1
    38   15   35 1
    39   16   36 1
    40   18   37 1
    41   18   38 1
    42   18   39 1
    43   22   40 1
    44   23   41 1
    45   24   42 1
    46   24   43 1
    47   25   44 1
    48   25   45 1
    49   26   46 1
    50   27   47 1
    51   27   48 1
    52   28   49 1
    53   28   50 1
    54   29   51 1
@<TRIPOS>PROPERTY_DATA
  Total_Score	| 5.9219
  Crash		| -3.5464
  Polar		| 3.0752
  FragIndex	| 1
  FragRMSD	| 0.676

