@<TRIPOS>MOLECULE
BindingDB_10091
 47 50 0 0 0
SMALL
NO_CHARGES


@<TRIPOS>ATOM
1    C       -94.5120   79.0808   84.6810  C     
2    C       -95.7317   78.4427   85.1023  C     
3    C       -96.2518   78.7820   86.3839  C     
4    C       -95.5938   79.6743   87.2423  C     
5    C       -93.8632   80.0171   85.5416  C     
6    C       -92.7130   80.8064   85.4799  C     
7    C       -94.4078   80.2637   86.8025  C     
8    C       -92.6274   81.4481   86.6788  C     
9    N       -93.6314   81.1258   87.4531  N     
10   O       -91.8669   82.3474   87.0033  O     
11   C       -91.8956   80.9942   84.4182  C     
12   C       -90.5857   81.4519   84.4569  C     
13   C       -88.5425   82.1882   83.8740  C     
14   C       -89.8270   81.9661   83.3970  C     
15   C       -88.5298   81.7771   85.1973  C     
16   N       -89.7596   81.3529   85.5161  N     
17   O       -90.1956   82.2483   82.1123  O     
18   C       -89.6536   81.3253   81.1503  C     
19   N       -96.4116   77.5081   84.3567  N     
20   O       -97.4944   77.0756   84.6630  O     
21   O       -95.9563   76.9730   83.2579  O     
22   C       -92.8023   77.6075   81.7842  C     
23   C       -92.9408   77.8238   83.3079  C     
24   C       -94.4533   79.3776   82.2599  C     
25   C       -93.7049   78.6632   81.1184  C     
26   N       -93.9587   78.8086   83.4700  N     
27   N       -91.4060   77.6905   81.3307  N     
28   H       -97.1141   78.3529   86.7288  H     
29   H       -95.9658   79.8809   88.1694  H     
30   H       -93.8131   81.5034   88.3317  H     
31   H       -92.2306   80.7353   83.5198  H     
32   H       -87.7533   82.5646   83.3428  H     
33   H       -87.7228   81.7709   85.8219  H     
34   H       -90.0044   80.9936   86.3840  H     
35   H       -88.6341   80.9917   81.3880  H     
36   H       -89.6340   81.8246   80.1807  H     
37   H       -90.3139   80.4602   81.0733  H     
38   H       -93.1719   76.6100   81.5286  H     
39   H       -93.2278   76.8839   83.7959  H     
40   H       -92.0052   78.1745   83.7534  H     
41   H       -94.2605   80.4543   82.2380  H     
42   H       -95.5274   79.2193   82.1539  H     
43   H       -93.1193   79.3810   80.5331  H     
44   H       -94.4231   78.1759   80.4467  H     
45   H       -90.9786   78.5519   81.6784  H     
46   H       -91.3672   77.6717   80.3065  H     
47   H       -90.9014   76.8874   81.7079  H     
@<TRIPOS>BOND
     1    1    2 1
     2    1    5 2
     3    1   26 1
     4    2    3 2
     5    2   19 am
     6    3    4 1
     7    4    7 2
     8    5    6 1
     9    5    7 1
    10    6    8 1
    11    6   11 2
    12    7    9 1
    13    8    9 1
    14    8   10 2
    15   11   12 1
    16   12   14 2
    17   12   16 1
    18   13   14 1
    19   13   15 2
    20   14   17 1
    21   15   16 1
    22   17   18 1
    23   19   20 2
    24   19   21 1
    25   22   23 1
    26   22   25 1
    27   22   27 1
    28   23   26 1
    29   24   25 1
    30   24   26 1
    31    3   28 1
    32    4   29 1
    33    9   30 1
    34   11   31 1
    35   13   32 1
    36   15   33 1
    37   16   34 1
    38   18   35 1
    39   18   36 1
    40   18   37 1
    41   22   38 1
    42   23   39 1
    43   23   40 1
    44   24   41 1
    45   24   42 1
    46   25   43 1
    47   25   44 1
    48   27   45 1
    49   27   46 1
    50   27   47 1
@<TRIPOS>PROPERTY_DATA
  Total_Score	| 7.6356
  Crash		| -2.7481
  Polar		| 3.5908
  FragIndex	| 1
  FragRMSD	| 0.739

