@<TRIPOS>MOLECULE
BindingDB_50171450
 51 54 0 0 0
SMALL
NO_CHARGES


@<TRIPOS>ATOM
1    S        18.6539   25.4163   19.3653  S     
2    C        24.2677   33.5204   19.4541  C     
3    C        21.9856   29.7337   19.0743  C     
4    C        23.4310   32.9639   20.6472  C     
5    C        23.0385   30.7186   19.4918  C     
6    C        22.3384   31.9415   20.1938  C     
7    C        20.0963   27.6707   18.5476  C     
8    C        21.0103   29.3727   20.0473  C     
9    C        21.9289   29.1000   17.8069  C     
10   O        19.3271   26.5651   18.3067  O     
11   C        25.0473   34.5244   20.1602  C     
12   C        20.9555   28.1120   17.5229  C     
13   C        25.0459   32.2995   18.8569  C     
14   C        20.0849   28.3499   19.7775  C     
15   C        24.0790   31.1562   18.4059  C     
16   C        23.0846   34.2308   21.4595  C     
17   C        21.4081   31.5057   21.3809  C     
18   O        19.0436   25.6122   20.9980  O     
19   O        16.9609   25.4728   19.2310  O     
20   C        21.0206   30.0007   21.3925  C     
21   N        19.1146   23.8744   18.8762  N     
22   C        24.3801   35.0715   21.3204  C     
23   O        26.0479   35.0467   19.6878  O     
24   C        23.4761   34.2823   18.3253  C     
25   O        20.9026   27.5078   16.2906  O     
26   C        20.3019   28.3594   15.2863  C     
27   H        24.0976   32.3906   21.3160  H     
28   H        23.6292   30.2046   20.2569  H     
29   H        21.6968   32.4357   19.4560  H     
30   H        22.6015   29.3261   17.0753  H     
31   H        25.6515   32.6216   18.0036  H     
32   H        25.7394   31.8999   19.6073  H     
33   H        19.4232   28.0745   20.5010  H     
34   H        24.6876   30.2938   18.1281  H     
35   H        23.5550   31.4840   17.5079  H     
36   H        22.2235   34.7486   21.0269  H     
37   H        22.8709   34.0037   22.5093  H     
38   H        21.8685   31.7348   22.3473  H     
39   H        20.4921   32.1025   21.3260  H     
40   H        20.0506   29.9002   21.8957  H     
41   H        21.7577   29.4581   21.9858  H     
42   H        18.9685   23.1305   19.4890  H     
43   H        19.7962   23.7795   18.1890  H     
44   H        25.0169   34.9503   22.1989  H     
45   H        24.1434   36.1279   21.1798  H     
46   H        22.7765   33.6347   17.8027  H     
47   H        24.1714   34.6781   17.5828  H     
48   H        22.9023   35.1206   18.7243  H     
49   H        19.2965   28.7000   15.5837  H     
50   H        20.2044   27.7794   14.3593  H     
51   H        20.9379   29.2335   15.0771  H     
@<TRIPOS>BOND
     1    1   10 1
     2    1   18 2
     3    1   19 2
     4    1   21 am
     5    2    4 1
     6    2   11 1
     7    2   13 1
     8    2   24 1
     9    3    5 1
    10    3    8 1
    11    3    9 2
    12    4    6 1
    13    4   16 1
    14    5    6 1
    15    5   15 1
    16    6   17 1
    17    7   10 1
    18    7   12 2
    19    7   14 1
    20    8   14 2
    21    8   20 1
    22    9   12 1
    23   11   22 1
    24   11   23 2
    25   12   25 1
    26   13   15 1
    27   16   22 1
    28   17   20 1
    29   25   26 1
    30    4   27 1
    31    5   28 1
    32    6   29 1
    33    9   30 1
    34   13   31 1
    35   13   32 1
    36   14   33 1
    37   15   34 1
    38   15   35 1
    39   16   36 1
    40   16   37 1
    41   17   38 1
    42   17   39 1
    43   20   40 1
    44   20   41 1
    45   21   42 1
    46   21   43 1
    47   22   44 1
    48   22   45 1
    49   24   46 1
    50   24   47 1
    51   24   48 1
    52   26   49 1
    53   26   50 1
    54   26   51 1
@<TRIPOS>PROPERTY_DATA
  Total_Score	| 4.1070
  Crash		| -1.6051
  Polar		| 0.9861
  FragIndex	| 1
  FragRMSD	| 0.768

