@<TRIPOS>MOLECULE
BindingDB_50200940
 53 56 0 0 0
SMALL
NO_CHARGES


@<TRIPOS>ATOM
1    C        23.5367   34.9590   22.3732  C     
2    C        24.1229   35.6694   21.3145  C     
3    C        24.2226   35.0940   20.0369  C     
4    C        23.0524   33.6523   22.1287  C     
5    C        23.1216   33.0453   20.8427  C     
6    C        23.7530   33.7804   19.7962  C     
7    C        23.9253   33.2299   18.4266  C     
8    C        23.6163   31.7188   18.2685  C     
9    C        22.6424   31.6303   20.6211  C     
10   C        22.3613   31.3310   19.0979  C     
11   C        20.9182   29.7428   21.2353  C     
12   C        21.4265   31.1828   21.5133  C     
13   C        20.6452   29.4904   19.7207  C     
14   C        21.9490   29.8356   18.9315  C     
15   C        21.7061   29.2091   17.5385  C     
16   C        20.8955   27.9199   17.8461  C     
17   C        20.5099   27.9865   19.3509  C     
18   O        19.2140   27.4576   19.6484  O     
19   C        19.3512   30.2762   19.2840  C     
20   O        24.5960   36.9204   21.5355  O     
21   S        18.8656   25.8046   19.6967  S     
22   N        17.2893   25.5371   20.1935  N     
23   O        19.0503   25.2025   18.1323  O     
24   O        19.9693   24.9596   20.6564  O     
25   O        23.4451   35.6038   23.5915  O     
26   C        23.4380   34.8170   24.7923  C     
27   H        24.6511   35.6331   19.2812  H     
28   H        22.6539   33.1445   22.9195  H     
29   H        23.2647   33.7916   17.7648  H     
30   H        24.9530   33.3962   18.0970  H     
31   H        23.4548   31.5007   17.2093  H     
32   H        24.4759   31.1284   18.6042  H     
33   H        23.4848   30.9994   20.9297  H     
34   H        21.5443   31.9641   18.7452  H     
35   H        21.6762   29.0451   21.5923  H     
36   H        20.0169   29.5620   21.8241  H     
37   H        21.7104   31.1869   22.5675  H     
38   H        20.6141   31.9031   21.3868  H     
39   H        22.7864   29.2610   19.3556  H     
40   H        21.1316   29.8899   16.9033  H     
41   H        22.6490   28.9763   17.0326  H     
42   H        20.0011   27.8792   17.2159  H     
43   H        21.4966   27.0272   17.6492  H     
44   H        21.2470   27.4089   19.9207  H     
45   H        18.5021   29.9645   19.8937  H     
46   H        19.0927   30.0902   18.2410  H     
47   H        19.4560   31.3512   19.4086  H     
48   H        25.3947   37.0106   20.9711  H     
49   H        17.0886   24.7535   20.7245  H     
50   H        16.5734   26.1170   19.8885  H     
51   H        22.4824   34.3057   24.8926  H     
52   H        23.5584   35.4818   25.6590  H     
53   H        24.2532   34.0972   24.8117  H     
@<TRIPOS>BOND
     1    1    2 2
     2    1    4 1
     3    1   25 1
     4    2    3 1
     5    2   20 1
     6    3    6 2
     7    4    5 2
     8    5    6 1
     9    5    9 1
    10    6    7 1
    11    7    8 1
    12    8   10 1
    13    9   10 1
    14    9   12 1
    15   10   14 1
    16   11   12 1
    17   11   13 1
    18   13   14 1
    19   13   17 1
    20   13   19 1
    21   14   15 1
    22   15   16 1
    23   16   17 1
    24   17   18 1
    25   18   21 1
    26   21   22 am
    27   21   23 2
    28   21   24 2
    29   25   26 1
    30    3   27 1
    31    4   28 1
    32    7   29 1
    33    7   30 1
    34    8   31 1
    35    8   32 1
    36    9   33 1
    37   10   34 1
    38   11   35 1
    39   11   36 1
    40   12   37 1
    41   12   38 1
    42   14   39 1
    43   15   40 1
    44   15   41 1
    45   16   42 1
    46   16   43 1
    47   17   44 1
    48   19   45 1
    49   19   46 1
    50   19   47 1
    51   20   48 1
    52   22   49 1
    53   22   50 1
    54   26   51 1
    55   26   52 1
    56   26   53 1
@<TRIPOS>PROPERTY_DATA
  Total_Score	| 4.7813
  Crash		| -2.0737
  Polar		| 2.6422
  FragIndex	| 1
  FragRMSD	| 0.822

