@<TRIPOS>MOLECULE
BindingDB_50159804
 54 57 0 0 0
SMALL
NO_CHARGES


@<TRIPOS>ATOM
1    C        23.8044   34.8156   22.4180  C     
2    C        24.3330   35.5640   21.3538  C     
3    C        24.3099   35.0092   20.0601  C     
4    C        23.2605   33.5403   22.1900  C     
5    C        23.2015   32.9718   20.8898  C     
6    C        23.7958   33.7080   19.8233  C     
7    C        23.8986   33.1740   18.4404  C     
8    C        23.5881   31.6682   18.2982  C     
9    C        22.6263   31.5968   20.6656  C     
10   C        22.3384   31.3119   19.1424  C     
11   C        20.8072   29.8029   21.2545  C     
12   C        21.3515   31.2405   21.5133  C     
13   C        20.5667   29.5042   19.7360  C     
14   C        21.8950   29.8264   18.9750  C     
15   C        21.6841   29.2011   17.5787  C     
16   C        20.8539   27.9223   17.8721  C     
17   C        20.4478   27.9921   19.3722  C     
18   O        19.1574   27.4306   19.6418  O     
19   C        19.2825   30.2763   19.2516  C     
20   O        24.9050   36.8012   21.4523  O     
21   S        18.8661   25.7683   19.6739  S     
22   N        17.3070   25.4144   20.1539  N     
23   O        19.0999   25.1606   18.1267  O     
24   O        19.9937   24.9737   20.6509  O     
25   S        26.0269   37.3612   22.6039  S     
26   N        25.2170   38.2003   23.8206  N     
27   O        26.9517   36.1259   23.2964  O     
28   O        27.0820   38.4595   21.8621  O     
29   H        23.7961   35.2005   23.3667  H     
30   H        24.7308   35.5287   19.2831  H     
31   H        22.8947   33.0427   23.0065  H     
32   H        23.2093   33.7430   17.8106  H     
33   H        24.9070   33.3421   18.0565  H     
34   H        23.4235   31.4419   17.2423  H     
35   H        24.4469   31.0851   18.6373  H     
36   H        23.4091   30.9094   20.9939  H     
37   H        21.5231   31.9547   18.7956  H     
38   H        21.5339   29.0917   21.6542  H     
39   H        19.8815   29.6603   21.8220  H     
40   H        21.5784   31.2913   22.5787  H     
41   H        20.5715   31.9825   21.3100  H     
42   H        22.7148   29.2370   19.4192  H     
43   H        21.1333   29.8872   16.9264  H     
44   H        22.6340   28.9501   17.0998  H     
45   H        19.9651   27.9017   17.2327  H     
46   H        21.4397   27.0223   17.6807  H     
47   H        21.1801   27.4267   19.9600  H     
48   H        18.4165   29.9508   19.8294  H     
49   H        19.0649   30.0901   18.1994  H     
50   H        19.3737   31.3534   19.3835  H     
51   H        17.1656   24.6620   20.7417  H     
52   H        16.6167   26.0858   20.0502  H     
53   H        25.6867   38.4418   24.6382  H     
54   H        24.2506   38.2652   23.7920  H     
@<TRIPOS>BOND
     1    1    2 2
     2    1    4 1
     3    2    3 1
     4    2   20 1
     5    3    6 2
     6    4    5 2
     7    5    6 1
     8    5    9 1
     9    6    7 1
    10    7    8 1
    11    8   10 1
    12    9   10 1
    13    9   12 1
    14   10   14 1
    15   11   12 1
    16   11   13 1
    17   13   14 1
    18   13   17 1
    19   13   19 1
    20   14   15 1
    21   15   16 1
    22   16   17 1
    23   17   18 1
    24   18   21 1
    25   20   25 1
    26   21   22 am
    27   21   23 2
    28   21   24 2
    29   25   26 am
    30   25   27 2
    31   25   28 2
    32    1   29 1
    33    3   30 1
    34    4   31 1
    35    7   32 1
    36    7   33 1
    37    8   34 1
    38    8   35 1
    39    9   36 1
    40   10   37 1
    41   11   38 1
    42   11   39 1
    43   12   40 1
    44   12   41 1
    45   14   42 1
    46   15   43 1
    47   15   44 1
    48   16   45 1
    49   16   46 1
    50   17   47 1
    51   19   48 1
    52   19   49 1
    53   19   50 1
    54   22   51 1
    55   22   52 1
    56   26   53 1
    57   26   54 1
@<TRIPOS>PROPERTY_DATA
  Total_Score	| 3.9493
  Crash		| -1.5998
  Polar		| 2.5949
  FragIndex	| 1
  FragRMSD	| 0.939

