@<TRIPOS>MOLECULE
BindingDB_50134329
 47 50 0 0 0
SMALL
NO_CHARGES


@<TRIPOS>ATOM
1    S        18.5910   25.3957   19.4981  S     
2    C        24.0658   33.5249   19.2129  C     
3    C        23.2723   33.0574   20.4749  C     
4    C        22.2233   31.9589   20.1495  C     
5    C        22.9802   30.7106   19.5540  C     
6    C        21.9549   29.6684   19.2089  C     
7    C        20.9843   29.3503   20.2030  C     
8    C        24.7807   34.6436   19.7957  C     
9    C        24.9231   32.2984   18.7453  C     
10   C        24.0151   31.0754   18.4266  C     
11   C        22.8429   34.3766   21.1407  C     
12   C        21.3216   31.5721   21.3761  C     
13   O        19.2763   26.5430   18.4535  O     
14   C        21.8869   29.0153   17.9524  C     
15   O        18.9721   25.5539   21.1336  O     
16   O        16.9104   25.4562   19.3499  O     
17   C        20.0492   28.3247   19.9555  C     
18   C        20.9852   30.0607   21.5052  C     
19   N        19.1037   23.8652   18.9826  N     
20   C        20.0606   27.6139   18.7468  C     
21   C        24.0784   35.2757   20.8912  C     
22   O        25.7520   35.1669   19.2637  O     
23   C        20.9481   28.0012   17.7193  C     
24   C        23.2227   34.0998   18.0119  C     
25   H        23.9712   32.5935   21.1893  H     
26   H        21.5503   32.3357   19.3771  H     
27   H        23.5859   30.2827   20.3670  H     
28   H        25.5001   32.5570   17.8537  H     
29   H        25.6390   32.0146   19.5236  H     
30   H        24.6562   30.2100   18.2409  H     
31   H        23.4836   31.2913   17.4999  H     
32   H        21.9489   34.7792   20.6582  H     
33   H        22.6498   34.2519   22.2085  H     
34   H        21.8013   31.8806   22.3112  H     
35   H        20.3948   32.1461   21.3023  H     
36   H        22.5493   29.2418   17.2039  H     
37   H        19.3599   28.0545   20.6538  H     
38   H        20.0354   29.9494   22.0277  H     
39   H        21.7480   29.5913   22.1191  H     
40   H        19.0239   23.1154   19.6163  H     
41   H        19.7580   23.7881   18.2550  H     
42   H        24.7224   35.3004   21.7741  H     
43   H        23.7704   36.2902   20.6302  H     
44   H        20.9795   27.5106   16.8141  H     
45   H        22.5528   33.3605   17.5780  H     
46   H        23.8868   34.4412   17.2146  H     
47   H        22.6061   34.9454   18.3164  H     
@<TRIPOS>BOND
     1    1   13 1
     2    1   15 2
     3    1   16 2
     4    1   19 am
     5    2    3 1
     6    2    8 1
     7    2    9 1
     8    2   24 1
     9    3    4 1
    10    3   11 1
    11    4    5 1
    12    4   12 1
    13    5    6 1
    14    5   10 1
    15    6    7 1
    16    6   14 2
    17    7   17 2
    18    7   18 1
    19    8   21 1
    20    8   22 2
    21    9   10 1
    22   11   21 1
    23   12   18 1
    24   13   20 1
    25   14   23 1
    26   17   20 1
    27   20   23 2
    28    3   25 1
    29    4   26 1
    30    5   27 1
    31    9   28 1
    32    9   29 1
    33   10   30 1
    34   10   31 1
    35   11   32 1
    36   11   33 1
    37   12   34 1
    38   12   35 1
    39   14   36 1
    40   17   37 1
    41   18   38 1
    42   18   39 1
    43   19   40 1
    44   19   41 1
    45   21   42 1
    46   21   43 1
    47   23   44 1
    48   24   45 1
    49   24   46 1
    50   24   47 1
@<TRIPOS>PROPERTY_DATA
  Total_Score	| 3.1595
  Crash		| -1.7306
  Polar		| 0.9323
  FragIndex	| 1
  FragRMSD	| 0.778

