@<TRIPOS>MOLECULE
BindingDB_13428
 60 63 0 0 0
SMALL
NO_CHARGES


@<TRIPOS>ATOM
1    C        20.6200   29.9138   20.9112  C     
2    C        21.2695   31.2572   21.3375  C     
3    C        21.1729   30.4530   18.4365  C     
4    C        21.3266   27.9697   18.4210  C     
5    C        22.1047   29.2640   18.0915  C     
6    C        20.1061   29.8755   19.4227  C     
7    C        18.7434   30.6303   19.3154  C     
8    C        21.8793   31.7549   18.9475  C     
9    C        22.4612   31.6333   20.4013  C     
10   C        23.4108   33.7132   18.4331  C     
11   C        22.9665   32.2965   17.9835  C     
12   C        23.6017   33.8706   19.9033  C     
13   C        23.2235   32.8592   20.8309  C     
14   C        23.6434   33.0089   22.1762  C     
15   C        24.2530   34.1918   22.6484  C     
16   C        24.4797   35.2527   21.7368  C     
17   C        24.1890   35.0674   20.3740  C     
18   C        23.3840   34.9327   24.8920  C     
19   O        25.0027   36.4178   22.2185  O     
20   N        25.0053   38.7206   23.7780  N     
21   S        24.2755   37.9334   22.4831  S     
22   O        24.3305   38.9219   21.1066  O     
23   O        22.6234   37.7202   22.7945  O     
24   C        24.5682   34.3337   24.0993  C     
25   C        19.9315   28.4119   18.9186  C     
26   O        19.3777   27.5822   19.9484  O     
27   O        18.6336   25.3144   18.4254  O     
28   O        20.8746   25.3275   19.9853  O     
29   S        19.2786   25.8879   19.8846  S     
30   N        18.4488   25.3201   21.2303  N     
31   H        21.3675   29.1300   21.0692  H     
32   H        19.7953   29.6989   21.6001  H     
33   H        20.5230   32.0547   21.3275  H     
34   H        21.5981   31.1343   22.3729  H     
35   H        20.6623   30.7158   17.4988  H     
36   H        21.2326   27.3358   17.5338  H     
37   H        21.8457   27.3999   19.1980  H     
38   H        22.3909   29.2911   17.0322  H     
39   H        23.0177   29.2982   18.6852  H     
40   H        18.0068   30.1695   19.9779  H     
41   H        18.3475   30.5913   18.2962  H     
42   H        18.8423   31.6816   19.5934  H     
43   H        21.0964   32.5219   18.9717  H     
44   H        23.1828   30.8148   20.4385  H     
45   H        24.3506   33.9428   17.9201  H     
46   H        22.6641   34.4437   18.1024  H     
47   H        23.8323   31.6302   17.9825  H     
48   H        22.5792   32.3510   16.9628  H     
49   H        23.4857   32.2478   22.8397  H     
50   H        24.4215   35.8003   19.7042  H     
51   H        23.1202   35.9195   24.5129  H     
52   H        23.6535   35.0265   25.9452  H     
53   H        22.5081   34.2805   24.8175  H     
54   H        24.6625   39.5790   24.0813  H     
55   H        25.7417   38.2985   24.2473  H     
56   H        24.8143   33.3613   24.5413  H     
57   H        25.4496   34.9625   24.2304  H     
58   H        19.2421   28.3835   18.0674  H     
59   H        17.7921   24.6048   21.1365  H     
60   H        18.6643   25.6658   22.1218  H     
@<TRIPOS>BOND
     1    1    2 1
     2    1    6 1
     3    2    9 1
     4    3    5 1
     5    3    6 1
     6    3    8 1
     7    4    5 1
     8    4   25 1
     9    6    7 1
    10    6   25 1
    11    8    9 1
    12    8   11 1
    13    9   13 1
    14   10   11 1
    15   10   12 1
    16   12   13 2
    17   12   17 1
    18   13   14 1
    19   14   15 2
    20   15   16 1
    21   15   24 1
    22   16   17 2
    23   16   19 1
    24   18   24 1
    25   19   21 1
    26   20   21 am
    27   21   22 2
    28   21   23 2
    29   25   26 1
    30   26   29 1
    31   27   29 2
    32   28   29 2
    33   29   30 am
    34    1   31 1
    35    1   32 1
    36    2   33 1
    37    2   34 1
    38    3   35 1
    39    4   36 1
    40    4   37 1
    41    5   38 1
    42    5   39 1
    43    7   40 1
    44    7   41 1
    45    7   42 1
    46    8   43 1
    47    9   44 1
    48   10   45 1
    49   10   46 1
    50   11   47 1
    51   11   48 1
    52   14   49 1
    53   17   50 1
    54   18   51 1
    55   18   52 1
    56   18   53 1
    57   20   54 1
    58   20   55 1
    59   24   56 1
    60   24   57 1
    61   25   58 1
    62   30   59 1
    63   30   60 1
@<TRIPOS>PROPERTY_DATA
  Total_Score	| 4.3351
  Crash		| -1.7814
  Polar		| 2.3579
  FragIndex	| 1
  FragRMSD	| 1.145

