@<TRIPOS>MOLECULE
BindingDB_50200936
 58 61 0 0 0
SMALL
NO_CHARGES


@<TRIPOS>ATOM
1    C        23.6486   34.9137   22.4096  C     
2    C        24.0520   35.7083   21.3158  C     
3    C        24.0443   35.1779   20.0179  C     
4    C        23.2009   33.5988   22.1625  C     
5    C        23.1462   33.0519   20.8456  C     
6    C        23.6531   33.8450   19.7765  C     
7    C        23.7748   33.3281   18.3859  C     
8    C        23.5720   31.7990   18.2343  C     
9    C        22.6496   31.6481   20.6097  C     
10   C        22.3573   31.3523   19.0867  C     
11   C        20.9141   29.7800   21.2202  C     
12   C        21.4100   31.2326   21.4814  C     
13   C        20.6724   29.4895   19.7040  C     
14   C        21.9792   29.8472   18.9235  C     
15   C        21.7691   29.1968   17.5379  C     
16   C        20.9834   27.8959   17.8556  C     
17   C        20.5708   27.9755   19.3530  C     
18   O        19.2823   27.4237   19.6348  O     
19   C        19.3657   30.2376   19.2330  C     
20   O        24.3871   37.0194   21.4595  O     
21   S        18.9584   25.7633   19.6858  S     
22   N        17.3855   25.4739   20.1750  N     
23   O        19.1475   25.1623   18.1218  O     
24   O        20.0712   24.9420   20.6533  O     
25   S        25.7769   37.6214   22.2134  S     
26   N        25.7461   39.3013   22.2201  N     
27   O        25.8728   37.0729   23.8108  O     
28   O        27.1674   37.0372   21.4560  O     
29   O        23.6256   35.5059   23.6541  O     
30   C        23.6048   34.6657   24.8138  C     
31   H        24.3508   35.7692   19.2414  H     
32   H        22.8956   33.0515   22.9703  H     
33   H        23.0341   33.8485   17.7711  H     
34   H        24.7659   33.5734   17.9928  H     
35   H        23.4069   31.5689   17.1782  H     
36   H        24.4727   31.2706   18.5591  H     
37   H        23.4764   31.0020   20.9253  H     
38   H        21.5121   31.9615   18.7547  H     
39   H        21.6684   29.0913   21.6067  H     
40   H        20.0002   29.6024   21.7921  H     
41   H        21.6577   31.2694   22.5432  H     
42   H        20.5987   31.9441   21.3115  H     
43   H        22.8224   29.2954   19.3659  H     
44   H        21.1899   29.8536   16.8851  H     
45   H        22.7225   28.9762   17.0506  H     
46   H        20.1004   27.8235   17.2147  H     
47   H        21.6047   27.0129   17.6864  H     
48   H        21.3093   27.4224   19.9468  H     
49   H        18.5085   29.8980   19.8175  H     
50   H        19.1413   30.0494   18.1819  H     
51   H        19.4311   31.3160   19.3646  H     
52   H        17.1914   24.6945   20.7165  H     
53   H        16.6659   26.0460   19.8657  H     
54   H        26.5759   39.7973   22.2941  H     
55   H        24.8974   39.7703   22.2575  H     
56   H        22.6681   34.1205   24.8625  H     
57   H        23.6820   35.2950   25.7175  H     
58   H        24.4402   33.9692   24.8274  H     
@<TRIPOS>BOND
     1    1    2 2
     2    1    4 1
     3    1   29 1
     4    2    3 1
     5    2   20 1
     6    3    6 2
     7    4    5 2
     8    5    6 1
     9    5    9 1
    10    6    7 1
    11    7    8 1
    12    8   10 1
    13    9   10 1
    14    9   12 1
    15   10   14 1
    16   11   12 1
    17   11   13 1
    18   13   14 1
    19   13   17 1
    20   13   19 1
    21   14   15 1
    22   15   16 1
    23   16   17 1
    24   17   18 1
    25   18   21 1
    26   20   25 1
    27   21   22 am
    28   21   23 2
    29   21   24 2
    30   25   26 am
    31   25   27 2
    32   25   28 2
    33   29   30 1
    34    3   31 1
    35    4   32 1
    36    7   33 1
    37    7   34 1
    38    8   35 1
    39    8   36 1
    40    9   37 1
    41   10   38 1
    42   11   39 1
    43   11   40 1
    44   12   41 1
    45   12   42 1
    46   14   43 1
    47   15   44 1
    48   15   45 1
    49   16   46 1
    50   16   47 1
    51   17   48 1
    52   19   49 1
    53   19   50 1
    54   19   51 1
    55   22   52 1
    56   22   53 1
    57   26   54 1
    58   26   55 1
    59   30   56 1
    60   30   57 1
    61   30   58 1
@<TRIPOS>PROPERTY_DATA
  Total_Score	| 4.4218
  Crash		| -1.7865
  Polar		| 2.5505
  FragIndex	| 1
  FragRMSD	| 0.956

