@<TRIPOS>MOLECULE
BindingDB_13425
 53 56 0 0 0
SMALL
NO_CHARGES


@<TRIPOS>ATOM
1    C        20.5674   30.0329   20.8644  C     
2    C        21.1669   31.4073   21.2578  C     
3    C        21.1804   30.5007   18.3930  C     
4    C        19.9440   28.4546   18.9121  C     
5    C        21.3530   28.0157   18.4606  C     
6    C        22.1271   29.3050   18.1087  C     
7    C        20.0909   29.9408   19.3681  C     
8    C        18.7189   30.6771   19.2052  C     
9    C        21.8755   31.8238   18.8775  C     
10   C        22.3949   31.7716   20.3586  C     
11   C        23.4800   33.7332   18.3404  C     
12   C        23.0069   32.3144   17.9345  C     
13   C        23.6216   33.9502   19.8026  C     
14   C        23.1314   33.0209   20.7735  C     
15   C        23.4370   33.2607   22.1356  C     
16   C        24.0740   34.4417   22.5584  C     
17   C        24.4861   35.3824   21.5990  C     
18   C        24.2711   35.1306   20.2331  C     
19   O        25.1270   36.5149   21.9840  O     
20   O        24.3331   34.6525   23.8883  O     
21   C        23.1525   34.8518   24.6860  C     
22   O        19.4000   27.6300   19.9442  O     
23   O        18.6567   25.3803   18.4227  O     
24   O        20.8071   25.3094   20.0334  O     
25   S        19.2531   25.9453   19.8923  S     
26   N        18.3743   25.4073   21.2169  N     
27   H        21.3358   29.2781   21.0555  H     
28   H        19.7395   29.8080   21.5418  H     
29   H        20.4071   32.1918   21.1799  H     
30   H        21.4484   31.3338   22.3092  H     
31   H        20.6907   30.7337   17.4385  H     
32   H        19.2823   28.3859   18.0433  H     
33   H        21.8649   27.4883   19.2742  H     
34   H        21.2974   27.3367   17.6001  H     
35   H        22.4331   29.2907   17.0581  H     
36   H        23.0259   29.3689   18.7259  H     
37   H        17.9808   30.2633   19.8945  H     
38   H        18.3291   30.5663   18.1901  H     
39   H        18.8141   31.7448   19.4095  H     
40   H        21.1006   32.5981   18.8358  H     
41   H        23.1270   30.9613   20.4554  H     
42   H        24.4442   33.9135   17.8525  H     
43   H        22.7696   34.4686   17.9566  H     
44   H        23.8586   31.6247   17.9783  H     
45   H        22.6490   32.3423   16.9009  H     
46   H        23.2027   32.5711   22.8525  H     
47   H        24.6029   35.8168   19.5512  H     
48   H        26.0829   36.3153   21.8716  H     
49   H        22.5910   35.7296   24.3516  H     
50   H        23.4663   35.0195   25.7169  H     
51   H        22.5028   33.9721   24.6667  H     
52   H        17.8450   24.5994   21.1432  H     
53   H        18.5917   25.7603   22.0915  H     
@<TRIPOS>BOND
     1    1    2 1
     2    1    7 1
     3    2   10 1
     4    3    6 1
     5    3    7 1
     6    3    9 1
     7    4    5 1
     8    4    7 1
     9    4   22 1
    10    5    6 1
    11    7    8 1
    12    9   10 1
    13    9   12 1
    14   10   14 1
    15   11   12 1
    16   11   13 1
    17   13   14 2
    18   13   18 1
    19   14   15 1
    20   15   16 2
    21   16   17 1
    22   16   20 1
    23   17   18 2
    24   17   19 1
    25   20   21 1
    26   22   25 1
    27   23   25 2
    28   24   25 2
    29   25   26 am
    30    1   27 1
    31    1   28 1
    32    2   29 1
    33    2   30 1
    34    3   31 1
    35    4   32 1
    36    5   33 1
    37    5   34 1
    38    6   35 1
    39    6   36 1
    40    8   37 1
    41    8   38 1
    42    8   39 1
    43    9   40 1
    44   10   41 1
    45   11   42 1
    46   11   43 1
    47   12   44 1
    48   12   45 1
    49   15   46 1
    50   18   47 1
    51   19   48 1
    52   21   49 1
    53   21   50 1
    54   21   51 1
    55   26   52 1
    56   26   53 1
@<TRIPOS>PROPERTY_DATA
  Total_Score	| 4.4841
  Crash		| -1.7405
  Polar		| 2.5207
  FragIndex	| 1
  FragRMSD	| 1.129

