@<TRIPOS>MOLECULE
BindingDB_13426
 58 61 0 0 0
SMALL
NO_CHARGES


@<TRIPOS>ATOM
1    C        20.6043   29.9086   20.9710  C     
2    C        21.1993   31.2764   21.3899  C     
3    C        21.2477   30.3969   18.5086  C     
4    C        19.9987   28.3795   18.9686  C     
5    C        21.4322   27.9224   18.6196  C     
6    C        22.2235   29.2100   18.2987  C     
7    C        20.1381   29.8516   19.4675  C     
8    C        18.7776   30.6074   19.3003  C     
9    C        21.8762   31.7456   18.9997  C     
10   C        22.4003   31.6987   20.4809  C     
11   C        23.3072   33.7699   18.4847  C     
12   C        22.9727   32.3167   18.0646  C     
13   C        23.4245   33.9811   19.9584  C     
14   C        23.0650   32.9782   20.9035  C     
15   C        23.4182   33.1827   22.2590  C     
16   C        23.9612   34.3983   22.7020  C     
17   C        24.1937   35.4391   21.7814  C     
18   C        23.9366   35.2168   20.4135  C     
19   O        24.2759   34.5685   24.0249  O     
20   C        23.1581   34.9377   24.8541  C     
21   O        19.3367   27.5446   19.9252  O     
22   O        19.1829   25.4404   18.0953  O     
23   O        20.0030   24.9595   20.6251  O     
24   S        18.9763   25.9123   19.6916  S     
25   N        17.4169   25.5703   20.1837  N     
26   O        24.6992   36.6095   22.2495  O     
27   N        22.3751   38.0536   22.3986  N     
28   S        24.0009   38.1323   21.9826  S     
29   O        24.8035   39.3613   22.8229  O     
30   O        24.0515   38.5006   20.3278  O     
31   H        21.3662   29.1476   21.1631  H     
32   H        19.7636   29.6773   21.6326  H     
33   H        20.4244   32.0454   21.3564  H     
34   H        21.5098   31.1745   22.4296  H     
35   H        20.7879   30.5967   17.5328  H     
36   H        19.4020   28.3569   18.0479  H     
37   H        21.8823   27.4035   19.4715  H     
38   H        21.4296   27.2387   17.7664  H     
39   H        22.6023   29.1939   17.2712  H     
40   H        23.0778   29.2845   18.9731  H     
41   H        18.0291   30.1873   19.9739  H     
42   H        18.4004   30.5207   18.2785  H     
43   H        18.8805   31.6682   19.5278  H     
44   H        21.0565   32.4767   18.9644  H     
45   H        23.1726   30.9309   20.5687  H     
46   H        24.2476   34.0506   18.0008  H     
47   H        22.5276   34.4397   18.1090  H     
48   H        23.8705   31.6978   18.1251  H     
49   H        22.6272   32.3134   17.0283  H     
50   H        23.2791   32.4406   22.9485  H     
51   H        24.1635   35.9476   19.7415  H     
52   H        22.6877   35.8611   24.5105  H     
53   H        23.5310   35.1033   25.8651  H     
54   H        22.4107   34.1378   24.8932  H     
55   H        17.0830   24.6634   20.0868  H     
56   H        16.8001   26.2988   20.3649  H     
57   H        21.9480   38.8400   22.7766  H     
58   H        21.9649   37.1857   22.5368  H     
@<TRIPOS>BOND
     1    1    2 1
     2    1    7 1
     3    2   10 1
     4    3    6 1
     5    3    7 1
     6    3    9 1
     7    4    5 1
     8    4    7 1
     9    4   21 1
    10    5    6 1
    11    7    8 1
    12    9   10 1
    13    9   12 1
    14   10   14 1
    15   11   12 1
    16   11   13 1
    17   13   14 2
    18   13   18 1
    19   14   15 1
    20   15   16 2
    21   16   17 1
    22   16   19 1
    23   17   18 2
    24   17   26 1
    25   19   20 1
    26   21   24 1
    27   22   24 2
    28   23   24 2
    29   24   25 am
    30   26   28 1
    31   27   28 am
    32   28   29 2
    33   28   30 2
    34    1   31 1
    35    1   32 1
    36    2   33 1
    37    2   34 1
    38    3   35 1
    39    4   36 1
    40    5   37 1
    41    5   38 1
    42    6   39 1
    43    6   40 1
    44    8   41 1
    45    8   42 1
    46    8   43 1
    47    9   44 1
    48   10   45 1
    49   11   46 1
    50   11   47 1
    51   12   48 1
    52   12   49 1
    53   15   50 1
    54   18   51 1
    55   20   52 1
    56   20   53 1
    57   20   54 1
    58   25   55 1
    59   25   56 1
    60   27   57 1
    61   27   58 1
@<TRIPOS>PROPERTY_DATA
  Total_Score	| 4.1092
  Crash		| -2.2277
  Polar		| 2.7728
  FragIndex	| 1
  FragRMSD	| 1.090

