@<TRIPOS>MOLECULE
BindingDB_13424
 53 56 0 0 0
SMALL
NO_CHARGES


@<TRIPOS>ATOM
1    C        20.2395   29.9267   21.1665  C     
2    C        21.0498   31.2163   21.4515  C     
3    C        21.0454   29.9622   18.7103  C     
4    C        19.4601   28.2497   19.3461  C     
5    C        20.7982   27.5205   19.1039  C     
6    C        21.8037   28.6106   18.6719  C     
7    C        19.8254   29.7352   19.6616  C     
8    C        18.6354   30.6802   19.2921  C     
9    C        21.8891   31.2386   19.0693  C     
10   C        22.3364   31.3219   20.5700  C     
11   C        23.6969   32.8751   18.3678  C     
12   C        23.1184   31.4505   18.1452  C     
13   C        23.7642   33.3088   19.7923  C     
14   C        23.1734   32.5498   20.8441  C     
15   C        23.4585   32.9515   22.1781  C     
16   C        24.0954   34.1717   22.4673  C     
17   C        24.6215   34.9569   21.4144  C     
18   C        24.4568   34.4976   20.0920  C     
19   O        25.3177   36.1319   21.5352  O     
20   O        26.6122   36.1592   24.0388  O     
21   S        25.7878   37.0613   22.8739  S     
22   O        26.8189   38.3234   22.3742  O     
23   N        24.4527   37.7550   23.6213  N     
24   O        24.2814   34.5313   23.7696  O     
25   C        23.0759   34.7173   24.5392  C     
26   O        18.6737   27.6144   20.3566  O     
27   H        20.8478   29.0815   21.4977  H     
28   H        19.3454   29.9348   21.7959  H     
29   H        20.4253   32.0974   21.2808  H     
30   H        21.3132   31.1953   22.5086  H     
31   H        20.6550   30.1182   17.6929  H     
32   H        18.8907   28.1982   18.4148  H     
33   H        21.1457   27.0408   20.0251  H     
34   H        20.6958   26.7528   18.3323  H     
35   H        22.1814   28.4152   17.6617  H     
36   H        22.6484   28.6221   19.3643  H     
37   H        17.7924   30.5159   19.9623  H     
38   H        18.2916   30.5002   18.2701  H     
39   H        18.9218   31.7289   19.3629  H     
40   H        21.2245   32.0889   18.8742  H     
41   H        22.9757   30.4665   20.8008  H     
42   H        24.6970   32.8986   17.9226  H     
43   H        23.0748   33.5932   17.8277  H     
44   H        23.8874   30.7041   18.3729  H     
45   H        22.8358   31.3374   17.0903  H     
46   H        23.1698   32.3720   22.9627  H     
47   H        24.8640   35.0485   19.3241  H     
48   H        24.5481   38.1797   24.4909  H     
49   H        23.5928   37.7781   23.1689  H     
50   H        22.4079   35.4310   24.0621  H     
51   H        23.3587   35.1073   25.5227  H     
52   H        22.5575   33.7734   24.6892  H     
53   H        18.2593   26.8439   19.9141  H     
@<TRIPOS>BOND
     1    1    2 1
     2    1    7 1
     3    2   10 1
     4    3    6 1
     5    3    7 1
     6    3    9 1
     7    4    5 1
     8    4    7 1
     9    4   26 1
    10    5    6 1
    11    7    8 1
    12    9   10 1
    13    9   12 1
    14   10   14 1
    15   11   12 1
    16   11   13 1
    17   13   14 2
    18   13   18 1
    19   14   15 1
    20   15   16 2
    21   16   17 1
    22   16   24 1
    23   17   18 2
    24   17   19 1
    25   19   21 1
    26   20   21 2
    27   21   22 2
    28   21   23 am
    29   24   25 1
    30    1   27 1
    31    1   28 1
    32    2   29 1
    33    2   30 1
    34    3   31 1
    35    4   32 1
    36    5   33 1
    37    5   34 1
    38    6   35 1
    39    6   36 1
    40    8   37 1
    41    8   38 1
    42    8   39 1
    43    9   40 1
    44   10   41 1
    45   11   42 1
    46   11   43 1
    47   12   44 1
    48   12   45 1
    49   15   46 1
    50   18   47 1
    51   23   48 1
    52   23   49 1
    53   25   50 1
    54   25   51 1
    55   25   52 1
    56   26   53 1
@<TRIPOS>PROPERTY_DATA
  Total_Score	| 1.2606
  Crash		| -1.4690
  Polar		| 0.0000
  FragIndex	| 1
  FragRMSD	| 0.721

