@<TRIPOS>MOLECULE
BindingDB_50216277
 48 50 0 0 0
SMALL
NO_CHARGES


@<TRIPOS>ATOM
1    C        19.9738   30.3931   20.7786  C     
2    C        21.4166   30.1234   20.2451  C     
3    C        21.4650   31.5858   19.7010  C     
4    C        20.0641   31.8664   20.3173  C     
5    C        21.3921   28.8762   19.4142  C     
6    C        22.5420   32.5230   20.1716  C     
7    C        19.7341   30.1085   22.2804  C     
8    C        18.9672   32.3267   19.3242  C     
9    C        21.4255   28.8464   17.9973  C     
10   C        21.0524   27.6841   17.2941  C     
11   C        20.6326   26.5364   17.9919  C     
12   C        20.6420   26.5309   19.4009  C     
13   C        21.0698   27.6756   20.0931  C     
14   C        22.7630   32.7894   21.5467  C     
15   C        23.6761   33.7782   21.9686  C     
16   C        24.3734   34.5353   21.0061  C     
17   C        24.1964   34.2619   19.6384  C     
18   C        23.2942   33.2641   19.2282  C     
19   O        23.8176   34.0579   23.3019  O     
20   C        24.8182   33.2459   23.9440  C     
21   O        25.2204   35.5193   21.3950  O     
22   O        20.1847   25.4516   20.1063  O     
23   C        18.7567   25.4666   20.3024  C     
24   O        20.1383   25.4701   17.3140  O     
25   H        19.1992   29.8686   20.2028  H     
26   H        22.1421   30.0064   21.0553  H     
27   H        21.3992   31.5977   18.6130  H     
28   H        20.0977   32.5534   21.1660  H     
29   H        19.7382   29.0356   22.4576  H     
30   H        18.7515   30.4794   22.5720  H     
31   H        20.4992   30.5704   22.9065  H     
32   H        18.9038   31.6504   18.4688  H     
33   H        19.1939   33.3315   18.9630  H     
34   H        17.9998   32.3476   19.8269  H     
35   H        21.6586   29.6785   17.4581  H     
36   H        21.0327   27.6933   16.2705  H     
37   H        21.0404   27.6589   21.1133  H     
38   H        22.2288   32.2899   22.2593  H     
39   H        24.7099   34.8007   18.9371  H     
40   H        23.1637   33.1111   18.2258  H     
41   H        24.5493   32.1839   23.9131  H     
42   H        24.8875   33.5512   24.9899  H     
43   H        25.8028   33.3855   23.4839  H     
44   H        24.7244   36.3626   21.2462  H     
45   H        18.4312   26.3608   20.8420  H     
46   H        18.4870   24.5941   20.8984  H     
47   H        18.2261   25.4049   19.3460  H     
48   H        20.7041   24.7057   17.5526  H     
@<TRIPOS>BOND
     1    1    2 1
     2    1    4 1
     3    1    7 1
     4    2    3 1
     5    2    5 1
     6    3    4 1
     7    3    6 1
     8    4    8 1
     9    5    9 2
    10    5   13 1
    11    6   14 2
    12    6   18 1
    13    9   10 1
    14   10   11 2
    15   11   12 1
    16   11   24 1
    17   12   13 2
    18   12   22 1
    19   14   15 1
    20   15   16 2
    21   15   19 1
    22   16   17 1
    23   16   21 1
    24   17   18 2
    25   19   20 1
    26   22   23 1
    27    1   25 1
    28    2   26 1
    29    3   27 1
    30    4   28 1
    31    7   29 1
    32    7   30 1
    33    7   31 1
    34    8   32 1
    35    8   33 1
    36    8   34 1
    37    9   35 1
    38   10   36 1
    39   13   37 1
    40   14   38 1
    41   17   39 1
    42   18   40 1
    43   20   41 1
    44   20   42 1
    45   20   43 1
    46   21   44 1
    47   23   45 1
    48   23   46 1
    49   23   47 1
    50   24   48 1
@<TRIPOS>PROPERTY_DATA
  Total_Score	| 5.0972
  Crash		| -2.8763
  Polar		| 4.3156
  FragIndex	| 1
  FragRMSD	| 1.440

