@<TRIPOS>MOLECULE
BindingDB_50129952
 58 63 0 0 0
SMALL
NO_CHARGES


@<TRIPOS>ATOM
1    C        44.0258   25.1546   24.7007  C     
2    C        43.1723   26.1634   25.1801  C     
3    C        41.8037   26.1652   24.8430  C     
4    C        43.5091   24.1235   23.8991  C     
5    C        42.1401   24.1006   23.5799  C     
6    C        41.2690   25.1247   24.0355  C     
7    C        39.9276   25.0029   23.6541  C     
8    C        39.4898   23.9362   22.9269  C     
9    C        40.3350   22.9534   22.5360  C     
10   O        41.6628   23.0470   22.8325  O     
11   O        39.0918   25.8253   24.0061  O     
12   C        39.9499   21.8398   21.7636  C     
13   C        38.8382   21.8405   20.8789  C     
14   C        38.6253   20.8241   19.9033  C     
15   C        39.4647   19.6906   19.9495  C     
16   C        40.5039   19.6237   20.8859  C     
17   C        40.7570   20.6811   21.7669  C     
18   O        39.3701   18.6698   19.0665  O     
19   C        37.7352   21.0527   18.8016  C     
20   C        36.6328   22.7127   17.3750  C     
21   C        37.5762   22.3943   18.3514  C     
22   O        38.3215   23.4522   18.7786  O     
23   C        35.9489   21.7056   16.6884  C     
24   O        35.0754   22.0899   15.7273  O     
25   C        36.2241   20.3469   16.9771  C     
26   C        37.0557   20.0191   18.0837  C     
27   O        37.1449   18.6751   18.4535  O     
28   C        36.7239   17.6670   17.6218  C     
29   C        36.0683   18.0052   16.4887  C     
30   C        35.7252   19.2852   16.2245  C     
31   O        35.0224   19.4724   15.2433  O     
32   O        41.0521   27.1814   25.3421  O     
33   O        45.3373   25.1614   25.0337  O     
34   C        37.0013   16.3190   17.9736  C     
35   C        37.0101   15.2441   17.0386  C     
36   C        37.4092   13.9423   17.3850  C     
37   C        37.7792   13.6549   18.7049  C     
38   C        37.6836   14.6600   19.6787  C     
39   C        37.2924   15.9675   19.3170  C     
40   O        38.2198   12.4171   19.0285  O     
41   H        43.5529   26.9072   25.7702  H     
42   H        44.1256   23.3790   23.5639  H     
43   H        38.5168   23.8647   22.7363  H     
44   H        38.2216   22.6536   20.8642  H     
45   H        41.1170   18.8133   20.8910  H     
46   H        41.5573   20.5939   22.3982  H     
47   H        39.2758   17.8754   19.6332  H     
48   H        36.4872   23.6912   17.1245  H     
49   H        39.1708   23.3999   18.2979  H     
50   H        34.8209   23.0107   15.9520  H     
51   H        35.8352   17.3228   15.8076  H     
52   H        40.5038   27.5038   24.5986  H     
53   H        45.7947   25.5474   24.2566  H     
54   H        36.7293   15.3815   16.0716  H     
55   H        37.4454   13.2113   16.6705  H     
56   H        37.9233   14.4439   20.6483  H     
57   H        37.2575   16.6755   20.0520  H     
58   H        38.7683   12.1438   18.2587  H     
@<TRIPOS>BOND
     1    1    2 2
     2    1    4 1
     3    1   33 1
     4    2    3 1
     5    3    6 2
     6    3   32 1
     7    4    5 2
     8    5    6 1
     9    5   10 1
    10    6    7 1
    11    7    8 1
    12    7   11 2
    13    8    9 2
    14    9   10 1
    15    9   12 1
    16   12   13 2
    17   12   17 1
    18   13   14 1
    19   14   15 2
    20   14   19 1
    21   15   16 1
    22   15   18 1
    23   16   17 2
    24   19   21 1
    25   19   26 2
    26   20   21 2
    27   20   23 1
    28   21   22 1
    29   23   24 1
    30   23   25 2
    31   25   26 1
    32   25   30 1
    33   26   27 1
    34   27   28 1
    35   28   29 2
    36   28   34 1
    37   29   30 1
    38   30   31 2
    39   34   35 2
    40   34   39 1
    41   35   36 1
    42   36   37 2
    43   37   38 1
    44   37   40 1
    45   38   39 2
    46    2   41 1
    47    4   42 1
    48    8   43 1
    49   13   44 1
    50   16   45 1
    51   17   46 1
    52   18   47 1
    53   20   48 1
    54   22   49 1
    55   24   50 1
    56   29   51 1
    57   32   52 1
    58   33   53 1
    59   35   54 1
    60   36   55 1
    61   38   56 1
    62   39   57 1
    63   40   58 1
@<TRIPOS>PROPERTY_DATA
  Total_Score	| 4.5862
  Crash		| -11.0835
  Polar		| 4.7141
  FragIndex	| 1
  FragRMSD	| 1.349

