@<TRIPOS>MOLECULE
BindingDB_50140257
 33 35 0 0 0
SMALL
NO_CHARGES


@<TRIPOS>ATOM
1    C        39.0390   21.3045   20.3572  C     
2    C        39.4546   20.0655   19.9901  C     
3    C        38.7885   19.3333   19.0397  C     
4    O        39.2363   18.2363   18.7373  O     
5    C        37.7489   19.9021   18.2987  C     
6    C        37.0975   19.3036   17.1888  C     
7    C        36.1951   20.0534   16.4080  C     
8    C        35.9514   21.4066   16.7006  C     
9    C        36.5539   22.0007   17.8259  C     
10   C        37.3880   21.2227   18.6547  C     
11   O        37.8921   21.7898   19.8034  O     
12   C        39.6812   22.1538   21.2952  C     
13   C        40.8755   21.8104   21.9909  C     
14   C        41.4806   22.6890   22.9112  C     
15   C        40.9194   23.9524   23.1528  C     
16   C        39.7422   24.3243   22.4861  C     
17   C        39.1406   23.4423   21.5708  C     
18   O        37.2873   18.0047   16.8463  O     
19   O        35.1431   22.1010   15.8689  O     
20   O        36.3592   23.3301   18.0778  O     
21   C        37.5968   24.0703   18.1438  C     
22   H        40.2836   19.6786   20.3728  H     
23   H        35.7376   19.6234   15.6007  H     
24   H        41.3496   20.9224   21.8282  H     
25   H        42.3346   22.4131   23.4006  H     
26   H        41.3670   24.5943   23.8087  H     
27   H        39.3119   25.2345   22.6705  H     
28   H        38.2930   23.7716   21.1064  H     
29   H        38.2121   17.8017   17.1152  H     
30   H        35.0519   23.0033   16.2404  H     
31   H        38.1962   23.8014   19.0202  H     
32   H        37.3421   25.1227   18.2046  H     
33   H        38.2209   23.9056   17.2626  H     
@<TRIPOS>BOND
     1    1    2 2
     2    1   11 1
     3    1   12 1
     4    2    3 1
     5    3    4 2
     6    3    5 1
     7    5    6 1
     8    5   10 2
     9    6    7 2
    10    6   18 1
    11    7    8 1
    12    8    9 2
    13    8   19 1
    14    9   10 1
    15    9   20 1
    16   10   11 1
    17   12   13 1
    18   12   17 2
    19   13   14 2
    20   14   15 1
    21   15   16 2
    22   16   17 1
    23   20   21 1
    24    2   22 1
    25    7   23 1
    26   13   24 1
    27   14   25 1
    28   15   26 1
    29   16   27 1
    30   17   28 1
    31   18   29 1
    32   19   30 1
    33   21   31 1
    34   21   32 1
    35   21   33 1
@<TRIPOS>PROPERTY_DATA
  Total_Score	| 3.8730
  Crash		| -4.5532
  Polar		| 2.6602
  FragIndex	| 1
  FragRMSD	| 0.405

