@<TRIPOS>MOLECULE
BindingDB_50241084
 34 36 0 0 0
SMALL
NO_CHARGES


@<TRIPOS>ATOM
1    C        36.1106   20.2642   16.4024  C     
2    C        35.8738   21.6223   16.6808  C     
3    C        36.5524   22.2451   17.7448  C     
4    C        37.0318   19.5197   17.1545  C     
5    C        37.7410   20.1461   18.2160  C     
6    C        37.4712   21.5096   18.5108  C     
7    O        38.1260   22.1465   19.5502  O     
8    C        39.0971   21.5043   20.2677  C     
9    C        39.3742   20.2068   19.9832  C     
10   C        38.7236   19.5277   18.9922  C     
11   O        39.0835   18.3818   18.7480  O     
12   C        39.7712   22.2652   21.2575  C     
13   C        39.3871   23.6199   21.4892  C     
14   C        40.0562   24.4340   22.4187  C     
15   C        40.8552   21.7680   22.0437  C     
16   C        41.5212   22.5735   22.9940  C     
17   C        41.1369   23.9232   23.1594  C     
18   O        37.1834   18.2146   16.7938  O     
19   O        34.9991   22.2897   15.8949  O     
20   O        42.5750   22.0823   23.7212  O     
21   O        41.7856   24.7440   24.0294  O     
22   C        42.2743   20.9154   24.5088  C     
23   H        35.6202   19.8111   15.6298  H     
24   H        36.3862   23.2287   17.9535  H     
25   H        40.0801   19.7232   20.4866  H     
26   H        38.6119   24.0478   20.9763  H     
27   H        39.7704   25.4018   22.5496  H     
28   H        41.1867   20.8140   21.9333  H     
29   H        38.1062   17.9682   17.0184  H     
30   H        34.9103   23.1927   16.2679  H     
31   H        42.7127   24.4177   24.0712  H     
32   H        41.3713   21.0424   25.1126  H     
33   H        43.1167   20.7388   25.1950  H     
34   H        42.1640   20.0401   23.8686  H     
@<TRIPOS>BOND
     1    1    2 2
     2    1    4 1
     3    2    3 1
     4    2   19 1
     5    3    6 2
     6    4    5 2
     7    4   18 1
     8    5    6 1
     9    5   10 1
    10    6    7 1
    11    7    8 1
    12    8    9 2
    13    8   12 1
    14    9   10 1
    15   10   11 2
    16   12   13 2
    17   12   15 1
    18   13   14 1
    19   14   17 2
    20   15   16 2
    21   16   17 1
    22   16   20 1
    23   17   21 1
    24   20   22 1
    25    1   23 1
    26    3   24 1
    27    9   25 1
    28   13   26 1
    29   14   27 1
    30   15   28 1
    31   18   29 1
    32   19   30 1
    33   21   31 1
    34   22   32 1
    35   22   33 1
    36   22   34 1
@<TRIPOS>PROPERTY_DATA
  Total_Score	| 7.8407
  Crash		| -1.4116
  Polar		| 2.4107
  FragIndex	| 1
  FragRMSD	| 0.358

