@<TRIPOS>MOLECULE
BindingDB_50033767
 32 34 0 0 0
SMALL
NO_CHARGES


@<TRIPOS>ATOM
1    C        35.9294   21.5981   16.7069  C     
2    C        36.1552   20.2406   16.4074  C     
3    C        37.0883   19.4939   17.1412  C     
4    C        36.6299   22.2035   17.7635  C     
5    C        37.5616   21.4607   18.5037  C     
6    C        37.8136   20.1058   18.1869  C     
7    C        38.8330   19.4643   18.8903  C     
8    C        39.5835   20.1377   19.8142  C     
9    C        39.2391   21.3999   20.1745  C     
10   O        38.2238   22.0645   19.5441  O     
11   O        39.1148   18.3044   18.6164  O     
12   C        39.8838   22.1392   21.1896  C     
13   C        39.8701   23.5646   21.1515  C     
14   C        40.5209   24.3398   22.1276  C     
15   C        41.1823   23.7060   23.2017  C     
16   C        41.1828   22.2985   23.2909  C     
17   C        40.5485   21.5340   22.2943  C     
18   O        40.7189   19.5965   20.2838  O     
19   O        35.0500   22.2904   15.9476  O     
20   O        41.8207   21.6866   24.3242  O     
21   O        41.8286   24.4596   24.1297  O     
22   O        40.5157   25.6885   22.0328  O     
23   H        35.6595   19.7924   15.6339  H     
24   H        37.2408   18.5142   16.8900  H     
25   H        36.4706   23.1860   17.9909  H     
26   H        39.4099   24.0521   20.3799  H     
27   H        40.5457   20.5165   22.3954  H     
28   H        40.6583   18.6202   20.1314  H     
29   H        35.0014   23.1929   16.3435  H     
30   H        41.1342   21.1839   24.8150  H     
31   H        41.1288   24.7502   24.7388  H     
32   H        39.7647   25.9904   22.5914  H     
@<TRIPOS>BOND
     1    1    2 2
     2    1    4 1
     3    1   19 1
     4    2    3 1
     5    3    6 2
     6    4    5 2
     7    5    6 1
     8    5   10 1
     9    6    7 1
    10    7    8 1
    11    7   11 2
    12    8    9 2
    13    8   18 1
    14    9   10 1
    15    9   12 1
    16   12   13 2
    17   12   17 1
    18   13   14 1
    19   14   15 2
    20   14   22 1
    21   15   16 1
    22   15   21 1
    23   16   17 2
    24   16   20 1
    25    2   23 1
    26    3   24 1
    27    4   25 1
    28   13   26 1
    29   17   27 1
    30   18   28 1
    31   19   29 1
    32   20   30 1
    33   21   31 1
    34   22   32 1
@<TRIPOS>PROPERTY_DATA
  Total_Score	| 5.9574
  Crash		| -2.2413
  Polar		| 2.4786
  FragIndex	| 1
  FragRMSD	| 0.666

