@<TRIPOS>MOLECULE
BindingDB_23415
 33 35 0 0 0
SMALL
NO_CHARGES


@<TRIPOS>ATOM
1    C        36.6080   22.2390   17.6528  C     
2    C        35.8967   21.5892   16.6283  C     
3    C        37.5401   21.5236   18.4173  C     
4    C        37.7862   20.1500   18.1810  C     
5    C        38.7612   19.5579   18.9835  C     
6    C        39.3653   20.2559   19.9990  C     
7    C        39.1008   21.5680   20.2259  C     
8    O        39.1408   18.4146   18.7416  O     
9    O        38.2410   22.2027   19.3859  O     
10   C        39.6611   22.3594   21.2616  C     
11   C        41.2749   22.7873   23.0963  C     
12   C        40.7454   21.9532   22.0916  C     
13   C        39.1554   23.6706   21.5033  C     
14   C        40.7492   24.0764   23.3152  C     
15   C        37.0548   19.4948   17.1479  C     
16   O        37.2246   18.1760   16.8706  O     
17   C        39.6927   24.5159   22.4878  C     
18   C        36.1286   20.2238   16.3804  C     
19   O        35.0113   22.2512   15.8503  O     
20   O        41.3560   24.8623   24.2623  O     
21   C        40.5157   25.7451   25.0310  C     
22   H        36.4569   23.2310   17.8387  H     
23   H        39.9918   19.7670   20.5859  H     
24   H        42.0615   22.4494   23.6593  H     
25   H        41.2000   21.0501   21.9642  H     
26   H        38.3781   24.0507   20.9552  H     
27   H        36.3197   17.7957   16.8437  H     
28   H        39.3068   25.4535   22.6061  H     
29   H        35.6240   19.7531   15.6265  H     
30   H        34.9179   23.1551   16.2210  H     
31   H        40.2025   26.6080   24.4388  H     
32   H        41.0896   26.1104   25.8843  H     
33   H        39.6298   25.2347   25.4097  H     
@<TRIPOS>BOND
     1    1    2 2
     2    1    3 1
     3    2   18 1
     4    2   19 1
     5    3    4 2
     6    3    9 1
     7    4    5 1
     8    4   15 1
     9    5    6 1
    10    5    8 2
    11    6    7 2
    12    7    9 1
    13    7   10 1
    14   10   12 2
    15   10   13 1
    16   11   12 1
    17   11   14 2
    18   13   17 2
    19   14   17 1
    20   14   20 1
    21   15   16 1
    22   15   18 2
    23   20   21 1
    24    1   22 1
    25    6   23 1
    26   11   24 1
    27   12   25 1
    28   13   26 1
    29   16   27 1
    30   17   28 1
    31   18   29 1
    32   19   30 1
    33   21   31 1
    34   21   32 1
    35   21   33 1
@<TRIPOS>PROPERTY_DATA
  Total_Score	| 7.2447
  Crash		| -1.1676
  Polar		| 2.3983
  FragIndex	| 1
  FragRMSD	| 0.373

