@<TRIPOS>MOLECULE
BindingDB_50009001
 30 32 0 0 0
SMALL
NO_CHARGES


@<TRIPOS>ATOM
1    C        38.6076   21.0045   19.4652  C     
2    C        39.6382   20.1944   19.7891  C     
3    C        40.5279   20.5352   20.7501  C     
4    O        41.4563   19.7612   20.9550  O     
5    C        40.4107   21.7247   21.4699  C     
6    C        41.3150   22.1367   22.4830  C     
7    C        41.1617   23.3944   23.0939  C     
8    C        40.1002   24.2382   22.7153  C     
9    C        39.1925   23.8304   21.7214  C     
10   C        39.3451   22.5810   21.0945  C     
11   O        38.4694   22.2152   20.0891  O     
12   C        37.6730   20.6777   18.4689  C     
13   C        37.0016   21.7101   17.7621  C     
14   C        36.0614   21.4145   16.7614  C     
15   C        35.7757   20.0802   16.4429  C     
16   C        36.4062   19.0389   17.1315  C     
17   C        37.3392   19.3350   18.1409  C     
18   O        39.9377   25.4542   23.2907  O     
19   O        42.3506   21.3518   22.8833  O     
20   O        42.0604   23.7780   24.0405  O     
21   H        39.7763   19.3385   19.2982  H     
22   H        38.4270   24.4512   21.4451  H     
23   H        37.1899   22.6941   17.9715  H     
24   H        35.5765   22.1772   16.2757  H     
25   H        35.0803   19.8563   15.7304  H     
26   H        36.1584   18.0653   16.9186  H     
27   H        37.7346   18.5447   18.6618  H     
28   H        40.6800   25.9933   22.9486  H     
29   H        43.0791   21.5548   22.2574  H     
30   H        41.6811   24.5714   24.4701  H     
@<TRIPOS>BOND
     1    1    2 2
     2    1   11 1
     3    1   12 1
     4    2    3 1
     5    3    4 2
     6    3    5 1
     7    5    6 1
     8    5   10 2
     9    6    7 2
    10    6   19 1
    11    7    8 1
    12    7   20 1
    13    8    9 2
    14    8   18 1
    15    9   10 1
    16   10   11 1
    17   12   13 1
    18   12   17 2
    19   13   14 2
    20   14   15 1
    21   15   16 2
    22   16   17 1
    23    2   21 1
    24    9   22 1
    25   13   23 1
    26   14   24 1
    27   15   25 1
    28   16   26 1
    29   17   27 1
    30   18   28 1
    31   19   29 1
    32   20   30 1
@<TRIPOS>PROPERTY_DATA
  Total_Score	| 1.4056
  Crash		| -3.5518
  Polar		| 0.0000
  FragIndex	| 1
  FragRMSD	| 1.364

