@<TRIPOS>MOLECULE
BindingDB_50292534
 56 59 0 0 0
SMALL
NO_CHARGES


@<TRIPOS>ATOM
1    C        41.5690   26.5678   27.5149  C     
2    C        43.0767   26.5837   27.1211  C     
3    C        43.3190   25.6197   25.9266  C     
4    C        42.3522   25.8908   24.7473  C     
5    C        40.8810   25.9384   25.2693  C     
6    O        40.7566   26.8752   26.3609  O     
7    O        39.9267   26.3908   24.2842  O     
8    C        41.2056   27.5157   28.6844  C     
9    O        41.1822   28.8808   28.2900  O     
10   O        44.6825   25.7043   25.5205  O     
11   O        42.5121   24.8901   23.7421  O     
12   O        43.8950   26.1804   28.2209  O     
13   C        38.4306   22.4638   20.6118  C     
14   C        38.9261   21.2012   20.6510  C     
15   O        39.6166   20.7696   21.7273  O     
16   C        38.5788   20.3142   19.6516  C     
17   O        39.0353   19.1803   19.6984  O     
18   C        37.7271   20.6795   18.6055  C     
19   C        37.2773   19.8219   17.5627  C     
20   O        37.6656   18.5273   17.4472  O     
21   C        36.3846   20.3136   16.5860  C     
22   C        35.9543   21.6514   16.6172  C     
23   O        35.1146   22.1110   15.6642  O     
24   C        36.4033   22.5077   17.6345  C     
25   C        37.2727   22.0252   18.6227  C     
26   O        37.6651   22.9105   19.5975  O     
27   C        38.7623   23.4487   21.5230  C     
28   C        39.8646   24.2905   21.2580  C     
29   C        40.2562   25.2684   22.1881  C     
30   O        41.3346   26.0397   21.9416  O     
31   C        39.5247   25.4466   23.3806  C     
32   C        38.3541   24.6899   23.5959  C     
33   C        37.9776   23.6936   22.6762  C     
34   C        41.0491   20.8502   21.6317  C     
35   H        41.3196   25.5544   27.8459  H     
36   H        43.3637   27.5997   26.8198  H     
37   H        43.1735   24.6020   26.2770  H     
38   H        42.6014   26.8519   24.3006  H     
39   H        40.5807   24.9411   25.6327  H     
40   H        40.2143   27.2506   29.0652  H     
41   H        41.9167   27.3925   29.4961  H     
42   H        40.4060   28.9596   27.6926  H     
43   H        44.7174   26.4050   24.8299  H     
44   H        42.0465   24.1010   24.0712  H     
45   H        43.2662   25.7220   28.8218  H     
46   H        38.6410   18.5284   17.5636  H     
47   H        36.0521   19.6903   15.8445  H     
48   H        34.9575   23.0555   15.8801  H     
49   H        36.0910   23.4782   17.6713  H     
50   H        40.3745   24.2133   20.3805  H     
51   H        42.0601   25.4041   21.7337  H     
52   H        37.7885   24.8540   24.4311  H     
53   H        37.1152   23.1616   22.8404  H     
54   H        41.4246   20.3115   20.7617  H     
55   H        41.4755   20.3927   22.5239  H     
56   H        41.3843   21.8878   21.5952  H     
@<TRIPOS>BOND
     1    1    2 1
     2    1    6 1
     3    1    8 1
     4    2    3 1
     5    2   12 1
     6    3    4 1
     7    3   10 1
     8    4    5 1
     9    4   11 1
    10    5    6 1
    11    5    7 1
    12    7   31 1
    13    8    9 1
    14   13   14 2
    15   13   26 1
    16   13   27 1
    17   14   15 1
    18   14   16 1
    19   15   34 1
    20   16   17 2
    21   16   18 1
    22   18   19 1
    23   18   25 2
    24   19   20 1
    25   19   21 2
    26   21   22 1
    27   22   23 1
    28   22   24 2
    29   24   25 1
    30   25   26 1
    31   27   28 1
    32   27   33 2
    33   28   29 2
    34   29   30 1
    35   29   31 1
    36   31   32 2
    37   32   33 1
    38    1   35 1
    39    2   36 1
    40    3   37 1
    41    4   38 1
    42    5   39 1
    43    8   40 1
    44    8   41 1
    45    9   42 1
    46   10   43 1
    47   11   44 1
    48   12   45 1
    49   20   46 1
    50   21   47 1
    51   23   48 1
    52   24   49 1
    53   28   50 1
    54   30   51 1
    55   32   52 1
    56   33   53 1
    57   34   54 1
    58   34   55 1
    59   34   56 1
@<TRIPOS>PROPERTY_DATA
  Total_Score	| 4.2958
  Crash		| -5.3231
  Polar		| 4.4060
  FragIndex	| 1
  FragRMSD	| 0.938

