@<TRIPOS>MOLECULE
BindingDB_50292535
 38 40 0 0 0
SMALL
NO_CHARGES


@<TRIPOS>ATOM
1    C        39.2410   21.7489   20.8359  C     
2    C        39.7238   20.4860   20.6623  C     
3    C        39.1847   19.6781   19.6830  C     
4    O        39.6040   18.5300   19.5901  O     
5    C        38.2361   20.1511   18.7684  C     
6    C        37.7653   19.4544   17.6226  C     
7    O        38.1625   18.1793   17.3398  O     
8    C        36.8564   20.0671   16.7295  C     
9    C        36.4228   21.3884   16.9553  C     
10   O        35.5600   21.9720   16.0857  O     
11   C        36.8732   22.0796   18.0935  C     
12   C        37.7659   21.4668   18.9918  C     
13   O        38.1678   22.1713   20.1037  O     
14   C        39.7365   22.7007   21.7483  C     
15   C        41.0753   22.6887   22.2289  C     
16   C        41.5457   23.6380   23.1485  C     
17   C        40.7136   24.6869   23.5674  C     
18   O        41.1906   25.6241   24.4245  O     
19   C        39.3960   24.7620   23.0710  C     
20   C        38.9145   23.7748   22.1899  C     
21   O        40.8045   20.0004   21.3191  O     
22   C        40.6797   19.7327   22.7284  C     
23   O        36.4719   19.4121   15.5852  O     
24   C        35.4274   18.4454   15.7834  C     
25   H        39.1449   18.1717   17.4426  H     
26   H        35.4642   22.9136   16.3634  H     
27   H        36.5591   23.0396   18.2629  H     
28   H        41.7487   22.0003   21.9065  H     
29   H        42.5047   23.5752   23.4959  H     
30   H        41.1812   26.4631   23.9028  H     
31   H        38.7806   25.5239   23.3726  H     
32   H        37.9492   23.8572   21.8810  H     
33   H        40.8551   20.6476   23.3009  H     
34   H        41.4526   19.0182   23.0273  H     
35   H        39.7042   19.3044   22.9911  H     
36   H        35.7474   17.6315   16.4376  H     
37   H        35.1617   18.0178   14.8164  H     
38   H        34.5382   18.9191   16.2014  H     
@<TRIPOS>BOND
     1    1    2 2
     2    1   13 1
     3    1   14 1
     4    2    3 1
     5    2   21 1
     6    3    4 2
     7    3    5 1
     8    5    6 1
     9    5   12 2
    10    6    7 1
    11    6    8 2
    12    8    9 1
    13    8   23 1
    14    9   10 1
    15    9   11 2
    16   11   12 1
    17   12   13 1
    18   14   15 1
    19   14   20 2
    20   15   16 2
    21   16   17 1
    22   17   18 1
    23   17   19 2
    24   19   20 1
    25   21   22 1
    26   23   24 1
    27    7   25 1
    28   10   26 1
    29   11   27 1
    30   15   28 1
    31   16   29 1
    32   18   30 1
    33   19   31 1
    34   20   32 1
    35   22   33 1
    36   22   34 1
    37   22   35 1
    38   24   36 1
    39   24   37 1
    40   24   38 1
@<TRIPOS>PROPERTY_DATA
  Total_Score	| 2.4801
  Crash		| -4.9463
  Polar		| 3.0241
  FragIndex	| 1
  FragRMSD	| 0.793

