@<TRIPOS>MOLECULE
BindingDB_50240896
 35 37 0 0 0
SMALL
NO_CHARGES


@<TRIPOS>ATOM
1    C        35.9889   21.5728   16.7733  C     
2    C        36.0811   20.1571   16.7462  C     
3    C        37.0207   19.4747   17.5658  C     
4    C        36.7820   22.2988   17.6934  C     
5    C        37.6984   21.6143   18.5231  C     
6    C        37.8991   20.2087   18.4337  C     
7    C        38.9922   19.7061   19.2021  C     
8    C        39.7535   20.5329   20.0374  C     
9    C        39.2753   21.7856   20.2494  C     
10   O        38.3669   22.3649   19.4366  O     
11   O        37.0217   18.1118   17.4781  O     
12   O        35.1403   22.2105   15.9277  O     
13   O        39.2972   18.5228   19.0859  O     
14   O        40.8646   20.0376   20.7005  O     
15   C        39.5913   22.5488   21.3464  C     
16   C        38.6829   23.5427   21.9163  C     
17   C        39.0915   24.4239   22.9754  C     
18   C        40.3728   24.3416   23.5524  C     
19   C        41.2463   23.3654   23.0510  C     
20   C        40.8800   22.5246   21.9190  C     
21   O        42.5165   23.3311   23.6470  O     
22   O        40.8351   25.1813   24.5461  O     
23   C        40.8383   19.9459   22.1420  C     
24   H        35.4909   19.6265   16.0895  H     
25   H        36.7051   23.3200   17.7583  H     
26   H        37.9068   17.8687   17.1293  H     
27   H        35.0301   23.1332   16.2812  H     
28   H        37.7242   23.6420   21.5494  H     
29   H        38.4360   25.1445   23.3534  H     
30   H        41.7037   22.3906   21.8636  H     
31   H        42.7248   22.3802   23.8222  H     
32   H        40.1448   25.1305   25.2406  H     
33   H        41.1008   20.7309   22.8877  H     
34   H        41.3355   19.0079   22.4493  H     
35   H        39.7871   19.7792   22.3998  H     
@<TRIPOS>BOND
     1    1    2 2
     2    1    4 1
     3    1   12 1
     4    2    3 1
     5    3    6 2
     6    3   11 1
     7    4    5 2
     8    5    6 1
     9    5   10 1
    10    6    7 1
    11    7    8 1
    12    7   13 2
    13    8    9 2
    14    8   14 1
    15    9   10 1
    16    9   15 1
    17   14   23 1
    18   15   16 2
    19   15   20 1
    20   16   17 1
    21   17   18 2
    22   18   19 1
    23   18   22 1
    24   19   20 2
    25   19   21 1
    26    2   24 1
    27    4   25 1
    28   11   26 1
    29   12   27 1
    30   16   28 1
    31   17   29 1
    32   20   30 1
    33   21   31 1
    34   22   32 1
    35   23   33 1
    36   23   34 1
    37   23   35 1
@<TRIPOS>PROPERTY_DATA
  Total_Score	| 2.0865
  Crash		| -5.0350
  Polar		| 2.8106
  FragIndex	| 1
  FragRMSD	| 0.648

