@<TRIPOS>MOLECULE
BindingDB_23411
 31 33 0 0 0
SMALL
NO_CHARGES


@<TRIPOS>ATOM
1    C        36.6391   22.1065   17.7931  C     
2    C        35.9868   21.4378   16.7389  C     
3    C        37.5367   21.4145   18.6184  C     
4    C        37.8239   20.0480   18.3847  C     
5    C        38.8640   19.5029   19.1424  C     
6    C        39.5518   20.2505   20.0526  C     
7    C        39.1970   21.5345   20.3329  C     
8    O        39.2885   18.3800   18.8924  O     
9    O        38.1569   22.0917   19.6398  O     
10   C        39.8335   22.3740   21.2895  C     
11   C        40.0983   24.6544   22.2445  C     
12   C        39.4863   23.7577   21.3501  C     
13   C        40.8373   21.9568   22.2099  C     
14   C        41.0900   24.1996   23.1227  C     
15   O        41.6780   25.0737   23.9763  O     
16   C        37.1050   19.3596   17.3783  C     
17   O        37.3013   18.0322   17.1510  O     
18   C        41.4569   22.8451   23.1009  C     
19   O        35.1651   22.1083   15.8943  O     
20   C        36.2046   20.0590   16.5499  C     
21   O        35.5672   19.3896   15.5573  O     
22   H        36.4689   23.1015   17.9486  H     
23   H        40.3382   19.8258   20.4810  H     
24   H        39.8258   25.6380   22.2476  H     
25   H        38.7804   24.1571   20.7221  H     
26   H        41.1598   20.9933   22.2508  H     
27   H        42.5322   24.6755   24.2511  H     
28   H        36.4356   17.5994   17.3252  H     
29   H        42.1905   22.4959   23.7196  H     
30   H        35.0800   23.0270   16.2413  H     
31   H        36.2884   19.1546   14.9240  H     
@<TRIPOS>BOND
     1    1    2 2
     2    1    3 1
     3    2   19 1
     4    2   20 1
     5    3    4 2
     6    3    9 1
     7    4    5 1
     8    4   16 1
     9    5    6 1
    10    5    8 2
    11    6    7 2
    12    7    9 1
    13    7   10 1
    14   10   12 2
    15   10   13 1
    16   11   12 1
    17   11   14 2
    18   13   18 2
    19   14   15 1
    20   14   18 1
    21   16   17 1
    22   16   20 2
    23   20   21 1
    24    1   22 1
    25    6   23 1
    26   11   24 1
    27   12   25 1
    28   13   26 1
    29   15   27 1
    30   17   28 1
    31   18   29 1
    32   19   30 1
    33   21   31 1
@<TRIPOS>PROPERTY_DATA
  Total_Score	| 5.8778
  Crash		| -1.5627
  Polar		| 2.7902
  FragIndex	| 1
  FragRMSD	| 0.386

