@<TRIPOS>MOLECULE
BindingDB_7459
 31 33 0 0 0
SMALL
NO_CHARGES


@<TRIPOS>ATOM
1    C        37.0343   19.4843   17.2686  C     
2    C        36.1273   20.2201   16.4745  C     
3    C        35.9233   21.5978   16.6915  C     
4    C        36.6062   22.2400   17.7382  C     
5    O        35.0779   22.2607   15.8722  O     
6    C        37.7760   20.1483   18.2783  C     
7    C        37.5108   21.5182   18.5385  C     
8    C        38.8005   19.5716   19.0252  C     
9    C        39.1502   21.5694   20.2701  C     
10   C        39.4888   20.2912   19.9627  C     
11   O        39.1893   18.4381   18.7733  O     
12   O        38.1474   22.1734   19.5657  O     
13   C        39.7905   22.3565   21.2583  C     
14   C        39.2913   23.6506   21.5730  C     
15   C        40.9417   21.9352   21.9869  C     
16   C        41.5820   22.7700   22.9224  C     
17   C        41.0650   24.0472   23.1950  C     
18   C        39.9106   24.4865   22.5207  C     
19   O        41.6886   24.8460   24.1054  O     
20   O        37.1614   18.1604   17.0308  O     
21   O        42.6965   22.3405   23.5757  O     
22   H        35.6202   19.7434   15.7199  H     
23   H        36.4515   23.2352   17.9162  H     
24   H        34.9697   23.1581   16.2407  H     
25   H        40.2798   19.8721   20.3918  H     
26   H        38.4601   24.0227   21.1027  H     
27   H        41.3278   21.0026   21.8555  H     
28   H        39.5257   25.4109   22.7087  H     
29   H        41.1539   25.6616   24.1674  H     
30   H        36.2589   17.7786   17.1290  H     
31   H        43.2323   21.8484   22.9105  H     
@<TRIPOS>BOND
     1    1    2 1
     2    1    6 2
     3    1   20 1
     4    2    3 2
     5    3    4 1
     6    3    5 1
     7    4    7 2
     8    6    7 1
     9    6    8 1
    10    7   12 1
    11    8   10 1
    12    8   11 2
    13    9   10 2
    14    9   12 1
    15    9   13 1
    16   13   14 1
    17   13   15 2
    18   14   18 2
    19   15   16 1
    20   16   17 2
    21   16   21 1
    22   17   18 1
    23   17   19 1
    24    2   22 1
    25    4   23 1
    26    5   24 1
    27   10   25 1
    28   14   26 1
    29   15   27 1
    30   18   28 1
    31   19   29 1
    32   20   30 1
    33   21   31 1
@<TRIPOS>PROPERTY_DATA
  Total_Score	| 6.2295
  Crash		| -1.2151
  Polar		| 2.5734
  FragIndex	| 1
  FragRMSD	| 0.344

