@<TRIPOS>MOLECULE
BindingDB_7460
 32 34 0 0 0
SMALL
NO_CHARGES


@<TRIPOS>ATOM
1    C        37.0423   19.4923   17.1874  C     
2    C        36.1338   20.2554   16.4300  C     
3    C        35.9234   21.6203   16.6994  C     
4    C        36.6018   22.2279   17.7679  C     
5    O        35.0370   22.2922   15.9255  O     
6    C        37.7699   20.1170   18.2265  C     
7    C        37.5005   21.4664   18.5387  C     
8    C        38.7826   19.5154   18.9691  C     
9    C        39.1186   21.4599   20.2919  C     
10   C        39.4811   20.1944   19.9113  C     
11   O        39.1169   18.3602   18.6992  O     
12   O        40.6074   19.6718   20.4383  O     
13   O        38.0723   22.0409   19.6416  O     
14   C        39.7491   22.2959   21.2521  C     
15   C        39.3168   23.6482   21.3849  C     
16   C        40.8132   21.9239   22.1199  C     
17   C        41.5039   22.8311   22.9388  C     
18   C        41.0633   24.1576   23.0186  C     
19   C        39.9555   24.5551   22.2601  C     
20   O        41.7103   25.0361   23.8269  O     
21   O        42.5996   22.3887   23.6087  O     
22   O        37.1809   18.1700   16.9080  O     
23   H        35.6235   19.8084   15.6716  H     
24   H        36.4240   23.2098   17.9989  H     
25   H        34.9655   23.1938   16.3024  H     
26   H        40.6682   18.6743   20.1368  H     
27   H        38.5550   24.0294   20.8201  H     
28   H        41.1483   20.9376   22.1533  H     
29   H        39.6308   25.5173   22.3085  H     
30   H        41.2097   25.8732   23.7898  H     
31   H        43.2465   23.1182   23.5516  H     
32   H        36.2697   17.8115   16.8263  H     
@<TRIPOS>BOND
     1    1    2 1
     2    1    6 2
     3    1   22 1
     4    2    3 2
     5    3    4 1
     6    3    5 1
     7    4    7 2
     8    6    7 1
     9    6    8 1
    10    7   13 1
    11    8   10 1
    12    8   11 2
    13    9   10 2
    14    9   13 1
    15    9   14 1
    16   10   12 1
    17   14   15 1
    18   14   16 2
    19   15   19 2
    20   16   17 1
    21   17   18 2
    22   17   21 1
    23   18   19 1
    24   18   20 1
    25    2   23 1
    26    4   24 1
    27    5   25 1
    28   12   26 1
    29   15   27 1
    30   16   28 1
    31   19   29 1
    32   20   30 1
    33   21   31 1
    34   22   32 1
@<TRIPOS>PROPERTY_DATA
  Total_Score	| 5.8604
  Crash		| -1.9083
  Polar		| 2.4759
  FragIndex	| 1
  FragRMSD	| 0.345

