@<TRIPOS>MOLECULE
BindingDB_12013
 34 35 0 0 0
SMALL
NO_CHARGES


@<TRIPOS>ATOM
1    C        -1.4967    8.0578   12.5385  C     
2    C        -0.1155    8.1998   12.7654  C     
3    C         0.3547    8.4824   14.0554  C     
4    C        -0.5591    8.6738   15.1099  C     
5    C        -1.9405    8.5190   14.8847  C     
6    C        -2.4230    8.1842   13.6003  C     
7    C        -3.8701    7.9348   13.3759  C     
8    N        -4.3958    6.7924   14.0671  N     
9    C        -3.7992    5.6092   14.2568  C     
10   O        -2.6338    5.4819   13.8655  O     
11   C        -4.3965    4.5458   14.9481  C     
12   C        -5.8084    4.4457   15.1068  C     
13   C        -3.6132    3.4986   15.5056  C     
14   C        -4.2055    2.4072   16.1783  C     
15   C        -5.6011    2.3235   16.3126  C     
16   C        -6.4013    3.3513   15.7836  C     
17   S        -6.2881    0.9521   17.1371  S     
18   O        -6.0944   -0.2856   16.1633  O     
19   O        -5.4977    0.6219   18.4743  O     
20   N        -7.9432    0.9651   17.4239  N     
21   H        -1.8227    7.8559   11.5862  H     
22   H         0.5406    8.1058   11.9873  H     
23   H         1.3611    8.5511   14.2290  H     
24   H        -0.2215    8.9369   16.0348  H     
25   H        -2.5917    8.6636   15.6590  H     
26   H        -4.4342    8.8099   13.6883  H     
27   H        -4.0771    7.7861   12.3157  H     
28   H        -5.3036    6.8722   14.4358  H     
29   H        -6.4190    5.1550   14.7003  H     
30   H        -2.5905    3.5139   15.4335  H     
31   H        -3.6062    1.6850   16.5742  H     
32   H        -7.4144    3.3140   15.8851  H     
33   H        -8.4081    0.1108   17.4951  H     
34   H        -8.4609    1.7727   17.2721  H     
@<TRIPOS>BOND
     1    1    2 2
     2    1    6 1
     3    2    3 1
     4    3    4 2
     5    4    5 1
     6    5    6 2
     7    6    7 1
     8    7    8 1
     9    8    9 am
    10    9   10 2
    11    9   11 1
    12   11   12 1
    13   11   13 2
    14   12   16 2
    15   13   14 1
    16   14   15 2
    17   15   16 1
    18   15   17 1
    19   17   18 2
    20   17   19 2
    21   17   20 am
    22    1   21 1
    23    2   22 1
    24    3   23 1
    25    4   24 1
    26    5   25 1
    27    7   26 1
    28    7   27 1
    29    8   28 1
    30   12   29 1
    31   13   30 1
    32   14   31 1
    33   16   32 1
    34   20   33 1
    35   20   34 1
@<TRIPOS>PROPERTY_DATA
  Total_Score	| 4.9186
  Crash		| -1.0160
  Polar		| 2.8729
  FragIndex	| 1
  FragRMSD	| 1.290

