@<TRIPOS>MOLECULE
BindingDB_12018
 34 35 0 0 0
SMALL
NO_CHARGES


@<TRIPOS>ATOM
1    C        -1.4200    8.0519   12.4611  C     
2    C        -0.0496    8.2294   12.7363  C     
3    C         0.3713    8.4703   14.0530  C     
4    C        -0.5808    8.5815   15.0817  C     
5    C        -1.9479    8.3738   14.8162  C     
6    C        -2.3834    8.0965   13.4996  C     
7    C        -3.8131    7.7843   13.2092  C     
8    N        -4.3430    6.6286   13.8775  N     
9    C        -3.7301    5.4620   14.1278  C     
10   O        -2.5653    5.3204   13.7565  O     
11   C        -4.3399    4.4241   14.8345  C     
12   C        -5.7499    4.2999   14.9344  C     
13   C        -3.5596    3.4238   15.4690  C     
14   C        -4.1561    2.3532   16.1639  C     
15   C        -5.5532    2.2489   16.2478  C     
16   C        -6.3474    3.2295   15.6318  C     
17   S        -6.2698    0.9179   17.1160  S     
18   O        -6.0298   -0.3794   16.2339  O     
19   O        -5.5380    0.6868   18.5058  O     
20   N        -7.9282    1.0080   17.3453  N     
21   F        -2.8008    8.4801   15.7988  F     
22   F         0.8188    8.1907   11.7606  F     
23   H        -1.7158    7.9155   11.4872  H     
24   H         1.3633    8.5948   14.2612  H     
25   H        -0.2742    8.8085   16.0317  H     
26   H        -4.4208    8.6436   13.5127  H     
27   H        -3.9733    7.6348   12.1380  H     
28   H        -5.2566    6.7047   14.2034  H     
29   H        -6.3600    4.9739   14.4764  H     
30   H        -2.5318    3.4667   15.4492  H     
31   H        -3.5673    1.6601   16.6230  H     
32   H        -7.3607    3.1765   15.6895  H     
33   H        -8.4233    0.1881   17.5000  H     
34   H        -8.4017    1.8475   17.2190  H     
@<TRIPOS>BOND
     1    1    2 2
     2    1    6 1
     3    2    3 1
     4    2   22 1
     5    3    4 2
     6    4    5 1
     7    5    6 2
     8    5   21 1
     9    6    7 1
    10    7    8 1
    11    8    9 am
    12    9   10 2
    13    9   11 1
    14   11   12 1
    15   11   13 2
    16   12   16 2
    17   13   14 1
    18   14   15 2
    19   15   16 1
    20   15   17 1
    21   17   18 2
    22   17   19 2
    23   17   20 am
    24    1   23 1
    25    3   24 1
    26    4   25 1
    27    7   26 1
    28    7   27 1
    29    8   28 1
    30   12   29 1
    31   13   30 1
    32   14   31 1
    33   16   32 1
    34   20   33 1
    35   20   34 1
@<TRIPOS>PROPERTY_DATA
  Total_Score	| 4.6931
  Crash		| -0.9887
  Polar		| 2.6707
  FragIndex	| 1
  FragRMSD	| 1.265

