@<TRIPOS>MOLECULE
BindingDB_23829
 55 57 0 0 0
SMALL
NO_CHARGES


@<TRIPOS>ATOM
1    C         6.9206  -15.9127    2.2892  C     
2    C         8.7831  -16.7835    3.6547  C     
3    C         8.2558  -16.1716    4.8055  C     
4    C         7.0193  -15.4913    4.7116  C     
5    C         6.3668  -15.3723    3.4763  C     
6    C         8.1294  -16.6528    2.4237  C     
7    C         7.3663  -14.4665    0.4915  C     
8    C         8.6427  -14.7534   -0.0475  C     
9    C         9.5716  -13.7392   -0.3283  C     
10   C         9.2362  -12.3935   -0.1060  C     
11   C         7.9907  -12.0712    0.4694  C     
12   C         7.0959  -13.0928    0.7974  C     
13   C         3.5514  -16.2491    0.5001  C     
14   C         6.4156  -15.5851    0.8932  C     
15   C         6.3536  -16.8006   -0.0201  C     
16   C         6.0014  -19.0285   -1.8092  C     
17   C         5.7729  -19.1648   -0.4230  C     
18   C         5.9354  -18.0727    0.4426  C     
19   C         6.6047  -16.6850   -1.4095  C     
20   C         6.4483  -17.7756   -2.2849  C     
21   C         2.1317  -15.7114    0.1764  C     
22   C         1.8662  -15.5113   -1.2608  C     
23   O         0.6206  -15.6542   -1.7897  O     
24   S         4.7208  -14.8829    0.7405  S     
25   N         1.1633  -16.6727    0.7369  N     
26   O         2.7998  -14.9671   -2.0854  O     
27   C         9.0429  -16.1820    6.0534  C     
28   C         5.7478  -20.1373   -2.7538  C     
29   O         4.6685  -19.8073   -3.6219  O     
30   O         9.6810  -17.4513    6.2018  O     
31   H         9.6710  -17.2957    3.6908  H     
32   H         6.6199  -15.0323    5.5254  H     
33   H         5.5139  -14.8109    3.4424  H     
34   H         8.5776  -17.0675    1.5901  H     
35   H         8.9283  -15.7166   -0.2113  H     
36   H        10.5050  -13.9827   -0.6867  H     
37   H         9.9126  -11.6469   -0.3171  H     
38   H         7.7684  -11.0982    0.6857  H     
39   H         6.2434  -12.8235    1.2835  H     
40   H         3.5331  -16.8348    1.4209  H     
41   H         3.8749  -16.9039   -0.3150  H     
42   H         5.4211  -20.0548   -0.0393  H     
43   H         5.7182  -18.2229    1.4281  H     
44   H         6.8849  -15.7797   -1.8106  H     
45   H         6.6268  -17.6352   -3.2864  H     
46   H         1.9757  -14.7564    0.7002  H     
47   H         1.2988  -17.5668    0.2601  H     
48   H         0.2088  -16.3381    0.5820  H     
49   H         1.3227  -16.7907    1.7351  H     
50   H         9.8160  -15.4085    5.9978  H     
51   H         8.4282  -15.9789    6.9380  H     
52   H         6.6418  -20.3367   -3.3399  H     
53   H         5.4814  -21.0548   -2.2257  H     
54   H         4.9209  -18.9602   -4.0426  H     
55   H        10.1633  -17.3968    7.0603  H     
@<TRIPOS>BOND
     1    1    5 2
     2    1    6 1
     3    1   14 1
     4    2    3 1
     5    2    6 2
     6    3    4 2
     7    3   27 1
     8    4    5 1
     9    7    8 1
    10    7   12 2
    11    7   14 1
    12    8    9 2
    13    9   10 1
    14   10   11 2
    15   11   12 1
    16   13   21 1
    17   13   24 1
    18   14   15 1
    19   14   24 1
    20   15   18 2
    21   15   19 1
    22   16   17 2
    23   16   20 1
    24   16   28 1
    25   17   18 1
    26   19   20 2
    27   21   22 1
    28   21   25 1
    29   22   23 2
    30   22   26 1
    31   27   30 1
    32   28   29 1
    33    2   31 1
    34    4   32 1
    35    5   33 1
    36    6   34 1
    37    8   35 1
    38    9   36 1
    39   10   37 1
    40   11   38 1
    41   12   39 1
    42   13   40 1
    43   13   41 1
    44   17   42 1
    45   18   43 1
    46   19   44 1
    47   20   45 1
    48   21   46 1
    49   25   47 1
    50   25   48 1
    51   25   49 1
    52   27   50 1
    53   27   51 1
    54   28   52 1
    55   28   53 1
    56   29   54 1
    57   30   55 1
@<TRIPOS>PROPERTY_DATA
  Total_Score	| 10.6175
  Crash		| -3.9412
  Polar		| 4.5697
  FragIndex	| 1
  FragRMSD	| 0.737

