@<TRIPOS>MOLECULE
BindingDB_23822
 50 52 0 0 0
SMALL
NO_CHARGES


@<TRIPOS>ATOM
1    C         7.2820  -16.2319    2.7194  C     
2    C         9.3217  -17.1389    3.8088  C     
3    C         8.8095  -16.8019    5.0714  C     
4    C         7.5508  -16.2028    5.1765  C     
5    C         6.8055  -15.9077    4.0182  C     
6    C         8.5664  -16.8625    2.6503  C     
7    C         7.4236  -14.6973    0.9133  C     
8    C         7.1146  -13.3099    1.1643  C     
9    C         7.9220  -12.2699    0.7308  C     
10   C         9.1104  -12.5268    0.0185  C     
11   C         9.4920  -13.8687   -0.1840  C     
12   C         8.6677  -14.9185    0.2496  C     
13   C         3.6180  -16.4664    0.9036  C     
14   C         6.5861  -15.8786    1.4087  C     
15   C         6.4659  -17.0313    0.4163  C     
16   C         5.9647  -19.1197   -1.4983  C     
17   C         6.2658  -17.8157   -1.9218  C     
18   C         6.5111  -16.7923   -0.9867  C     
19   C         6.1455  -18.3684    0.8194  C     
20   C         5.8852  -19.3833   -0.1135  C     
21   C         2.2999  -15.7312    0.4932  C     
22   C         2.2484  -15.3725   -0.9402  C     
23   O         3.2421  -14.6672   -1.5402  O     
24   S         4.8408  -15.2897    1.5825  S     
25   N         1.1924  -16.6264    0.8431  N     
26   O         1.0919  -15.4687   -1.6324  O     
27   C         5.6623  -20.1742   -2.5047  C     
28   H        10.2308  -17.5984    3.7366  H     
29   H         9.3516  -17.0334    5.9232  H     
30   H         7.1758  -15.9664    6.0930  H     
31   H         5.8859  -15.4915    4.1714  H     
32   H         8.9476  -17.1771    1.7561  H     
33   H         6.2910  -13.0388    1.7084  H     
34   H         7.6693  -11.2952    0.9236  H     
35   H         9.6979  -11.7556   -0.3307  H     
36   H        10.3748  -14.0661   -0.6587  H     
37   H         8.9866  -15.8649    0.0591  H     
38   H         3.4259  -17.2395    1.6621  H     
39   H         4.0076  -16.9775    0.0237  H     
40   H         6.3185  -17.5898   -2.9211  H     
41   H         6.6954  -15.8509   -1.3396  H     
42   H         6.0553  -18.6038    1.8049  H     
43   H         5.6442  -20.3156    0.2290  H     
44   H         2.1975  -14.8268    1.0906  H     
45   H         1.3358  -17.4938    0.3236  H     
46   H         0.3131  -16.1908    0.5787  H     
47   H         1.2127  -16.8135    1.8441  H     
48   H         4.8016  -19.8702   -3.1009  H     
49   H         5.4376  -21.1299   -2.0404  H     
50   H         6.5083  -20.3263   -3.1714  H     
@<TRIPOS>BOND
     1    1    5 2
     2    1    6 1
     3    1   14 1
     4    2    3 1
     5    2    6 2
     6    3    4 2
     7    4    5 1
     8    7    8 1
     9    7   12 2
    10    7   14 1
    11    8    9 2
    12    9   10 1
    13   10   11 2
    14   11   12 1
    15   13   21 1
    16   13   24 1
    17   14   15 1
    18   14   24 1
    19   15   18 2
    20   15   19 1
    21   16   17 2
    22   16   20 1
    23   16   27 1
    24   17   18 1
    25   19   20 2
    26   21   22 1
    27   21   25 1
    28   22   23 2
    29   22   26 1
    30    2   28 1
    31    3   29 1
    32    4   30 1
    33    5   31 1
    34    6   32 1
    35    8   33 1
    36    9   34 1
    37   10   35 1
    38   11   36 1
    39   12   37 1
    40   13   38 1
    41   13   39 1
    42   17   40 1
    43   18   41 1
    44   19   42 1
    45   20   43 1
    46   21   44 1
    47   25   45 1
    48   25   46 1
    49   25   47 1
    50   27   48 1
    51   27   49 1
    52   27   50 1
@<TRIPOS>PROPERTY_DATA
  Total_Score	| 10.9290
  Crash		| -2.1981
  Polar		| 2.8719
  FragIndex	| 1
  FragRMSD	| 0.862

