@<TRIPOS>MOLECULE
BindingDB_50198302
 47 49 0 0 0
SMALL
NO_CHARGES


@<TRIPOS>ATOM
1    C         6.1814  -18.0985   -1.6012  C     
2    C         5.9494  -19.3880   -1.0867  C     
3    C         5.9265  -19.5830    0.3078  C     
4    C         6.1353  -18.4967    1.1762  C     
5    C         6.3820  -17.1740    0.6963  C     
6    C         6.3642  -17.0176   -0.7191  C     
7    C         6.5497  -16.0028    1.6619  C     
8    C         7.3023  -14.7932    1.1167  C     
9    S         4.7939  -15.6852    2.1088  S     
10   C         7.3582  -16.3330    2.9112  C     
11   C         8.5274  -14.9807    0.4094  C     
12   C         9.2318  -13.9020   -0.1544  C     
13   C         8.7752  -12.5884    0.0291  C     
14   C         7.5896  -12.3610    0.7479  C     
15   C         6.8837  -13.4458    1.3067  C     
16   C         8.6499  -16.9356    2.8067  C     
17   C         9.4701  -17.1491    3.9309  C     
18   C         9.0283  -16.7639    5.2113  C     
19   C         7.7811  -16.1389    5.3523  C     
20   C         6.9807  -15.8996    4.2206  C     
21   C         4.0371  -14.8906    0.6508  C     
22   C         3.1438  -15.8663   -0.1545  C     
23   N         2.0738  -16.4459    0.6736  N     
24   C         2.5782  -15.2013   -1.3483  C     
25   O         1.6280  -14.2414   -1.2297  O     
26   O         3.0738  -15.4645   -2.5827  O     
27   H         6.2004  -17.9467   -2.6136  H     
28   H         5.7761  -20.1677   -1.7272  H     
29   H         5.7290  -20.5186    0.6713  H     
30   H         6.0929  -18.6745    2.1827  H     
31   H         6.4854  -16.1019   -1.1440  H     
32   H         8.8903  -15.9154    0.2397  H     
33   H        10.0870  -14.0755   -0.6916  H     
34   H         9.2891  -11.8051   -0.3719  H     
35   H         7.2417  -11.4041    0.8733  H     
36   H         6.0434  -13.2184    1.8331  H     
37   H         9.0160  -17.2276    1.9027  H     
38   H        10.3937  -17.5792    3.8287  H     
39   H         9.6239  -16.9196    6.0337  H     
40   H         7.4752  -15.8151    6.2727  H     
41   H         6.1267  -15.3721    4.3727  H     
42   H         3.4298  -14.0520    0.9998  H     
43   H         4.8065  -14.4791   -0.0005  H     
44   H         3.7698  -16.7000   -0.4864  H     
45   H         2.4480  -16.7536    1.5757  H     
46   H         1.7039  -17.2509    0.1686  H     
47   H         1.3422  -15.7454    0.8226  H     
@<TRIPOS>BOND
     1    1    2 2
     2    1    6 1
     3    2    3 1
     4    3    4 2
     5    4    5 1
     6    5    6 2
     7    5    7 1
     8    7    8 1
     9    7    9 1
    10    7   10 1
    11    8   11 2
    12    8   15 1
    13    9   21 1
    14   10   16 2
    15   10   20 1
    16   11   12 1
    17   12   13 2
    18   13   14 1
    19   14   15 2
    20   16   17 1
    21   17   18 2
    22   18   19 1
    23   19   20 2
    24   21   22 1
    25   22   23 1
    26   22   24 1
    27   24   25 1
    28   24   26 2
    29    1   27 1
    30    2   28 1
    31    3   29 1
    32    4   30 1
    33    6   31 1
    34   11   32 1
    35   12   33 1
    36   13   34 1
    37   14   35 1
    38   15   36 1
    39   16   37 1
    40   17   38 1
    41   18   39 1
    42   19   40 1
    43   20   41 1
    44   21   42 1
    45   21   43 1
    46   22   44 1
    47   23   45 1
    48   23   46 1
    49   23   47 1
@<TRIPOS>PROPERTY_DATA
  Total_Score	| 8.9970
  Crash		| -1.5354
  Polar		| 1.9718
  FragIndex	| 1
  FragRMSD	| 0.797

