@<TRIPOS>MOLECULE
BindingDB_23775
 43 44 0 0 0
SMALL
NO_CHARGES


@<TRIPOS>ATOM
1    C         3.9060  -15.7421   -0.0142  C     
2    S         4.6474  -15.7141    1.6526  S     
3    C         2.4003  -15.4003   -0.0440  C     
4    C         1.9223  -15.3371   -1.4435  C     
5    O         0.6683  -15.6799   -1.8075  O     
6    O         2.7535  -14.9226   -2.4342  O     
7    N         1.6392  -16.4030    0.7167  N     
8    C         6.4352  -16.0706    1.3469  C     
9    C         6.4249  -17.2830    0.4382  C     
10   C         6.5560  -18.4156   -1.7531  C     
11   C         6.6433  -17.2538   -0.9631  C     
12   C         6.1029  -18.5608    0.9961  C     
13   C         6.0435  -19.7334    0.2255  C     
14   C         6.2544  -19.6658   -1.1595  C     
15   C         7.2031  -16.3824    2.6400  C     
16   C         8.5255  -16.8921    2.5796  C     
17   C         9.2888  -17.1585    3.7279  C     
18   C         8.7465  -16.9081    5.0028  C     
19   C         7.4689  -16.3486    5.1162  C     
20   C         6.7127  -16.0935    3.9440  C     
21   C         7.0465  -14.6872    0.8228  C     
22   C         8.4433  -14.6648    0.1294  C     
23   H         4.4459  -15.0594   -0.6649  H     
24   H         4.0614  -16.7532   -0.4180  H     
25   H         2.2413  -14.4287    0.4076  H     
26   H         1.8241  -17.3281    0.3258  H     
27   H         0.6500  -16.1962    0.6535  H     
28   H         1.9341  -16.3975    1.6922  H     
29   H         6.7332  -18.3546   -2.7638  H     
30   H         6.9344  -16.4258   -1.4208  H     
31   H         5.9271  -18.6609    2.0064  H     
32   H         5.8239  -20.6315    0.6517  H     
33   H         6.2117  -20.5077   -1.7527  H     
34   H         8.9405  -17.1163    1.6798  H     
35   H        10.2257  -17.5492    3.6372  H     
36   H         9.2981  -17.1073    5.8383  H     
37   H         7.0946  -16.1295    6.0371  H     
38   H         5.7887  -15.6765    4.0788  H     
39   H         6.3632  -14.1797    0.1253  H     
40   H         7.1180  -13.9931    1.6779  H     
41   H         9.0728  -15.5129    0.4352  H     
42   H         8.9805  -13.7417    0.4096  H     
43   H         8.2845  -14.6696   -0.9511  H     
@<TRIPOS>BOND
     1    1    2 1
     2    1    3 1
     3    2    8 1
     4    3    4 1
     5    3    7 1
     6    4    5 2
     7    4    6 1
     8    8    9 1
     9    8   15 1
    10    8   21 1
    11    9   11 2
    12    9   12 1
    13   10   11 1
    14   10   14 2
    15   12   13 2
    16   13   14 1
    17   15   16 1
    18   15   20 2
    19   16   17 2
    20   17   18 1
    21   18   19 2
    22   19   20 1
    23   21   22 1
    24    1   23 1
    25    1   24 1
    26    3   25 1
    27    7   26 1
    28    7   27 1
    29    7   28 1
    30   10   29 1
    31   11   30 1
    32   12   31 1
    33   13   32 1
    34   14   33 1
    35   16   34 1
    36   17   35 1
    37   18   36 1
    38   19   37 1
    39   20   38 1
    40   21   39 1
    41   21   40 1
    42   22   41 1
    43   22   42 1
    44   22   43 1
@<TRIPOS>PROPERTY_DATA
  Total_Score	| 8.7005
  Crash		| -1.4581
  Polar		| 3.5532
  FragIndex	| 1
  FragRMSD	| 0.249

