@<TRIPOS>MOLECULE
BindingDB_23799
 53 55 0 0 0
SMALL
NO_CHARGES


@<TRIPOS>ATOM
1    C         7.3834  -14.7273    0.9703  C     
2    C         9.3920  -13.9249   -0.2511  C     
3    C         9.0056  -12.5865   -0.0367  C     
4    C         7.8792  -12.3074    0.7593  C     
5    C         7.1056  -13.3631    1.2762  C     
6    C         8.6052  -14.9669    0.2643  C     
7    C         7.2805  -16.2121    2.8067  C     
8    C         6.8341  -15.8282    4.1165  C     
9    C         7.5562  -16.1160    5.2808  C     
10   C         8.7974  -16.7661    5.1875  C     
11   C         9.3046  -17.1050    3.9253  C     
12   C         8.5481  -16.8537    2.7684  C     
13   S         4.7849  -15.4510    1.9139  S     
14   C         2.9262  -15.8578   -0.1427  C     
15   N         1.9264  -16.5846    0.6655  N     
16   C         2.2628  -15.4318   -1.4015  C     
17   O         0.9099  -15.3724   -1.5379  O     
18   O         3.0078  -14.9953   -2.4329  O     
19   C         3.6740  -14.7100    0.6505  C     
20   C         2.6427  -13.8580    1.4579  C     
21   C         4.4514  -13.7121   -0.2646  C     
22   C         6.5333  -15.8705    1.5089  C     
23   C         6.3737  -17.0744    0.5805  C     
24   C         6.0843  -19.3618   -1.1323  C     
25   C         6.3004  -18.0944   -1.6886  C     
26   C         6.4336  -16.9731   -0.8483  C     
27   C         6.0986  -18.3725    1.1081  C     
28   C         5.9872  -19.4943    0.2724  C     
29   H        10.2334  -14.1371   -0.7886  H     
30   H         9.5748  -11.8276   -0.4049  H     
31   H         7.6186  -11.3405    0.9565  H     
32   H         6.3234  -13.1161    1.8920  H     
33   H         8.9251  -15.9305    0.0966  H     
34   H         5.9792  -15.2829    4.2477  H     
35   H         7.1954  -15.8490    6.1989  H     
36   H         9.3396  -16.9836    6.0324  H     
37   H        10.2152  -17.5526    3.8507  H     
38   H         8.9523  -17.1296    1.8696  H     
39   H         3.6775  -16.6059   -0.4299  H     
40   H         1.0493  -16.0767    0.6868  H     
41   H         2.2677  -16.6880    1.6277  H     
42   H         1.7785  -17.5037    0.2535  H     
43   H         2.1028  -14.4629    2.1857  H     
44   H         1.9020  -13.3869    0.7856  H     
45   H         3.1368  -13.0520    2.0076  H     
46   H         4.9167  -12.9213    0.3279  H     
47   H         3.7807  -13.2338   -0.9761  H     
48   H         5.2166  -14.2027   -0.8572  H     
49   H         5.9957  -20.1851   -1.7411  H     
50   H         6.3606  -17.9806   -2.7008  H     
51   H         6.5675  -16.0635   -1.2910  H     
52   H         6.0043  -18.5051    2.1161  H     
53   H         5.8314  -20.4266    0.6695  H     
@<TRIPOS>BOND
     1    1    5 2
     2    1    6 1
     3    1   22 1
     4    2    3 1
     5    2    6 2
     6    3    4 2
     7    4    5 1
     8    7    8 1
     9    7   12 2
    10    7   22 1
    11    8    9 2
    12    9   10 1
    13   10   11 2
    14   11   12 1
    15   13   19 1
    16   13   22 1
    17   14   15 1
    18   14   16 1
    19   14   19 1
    20   16   17 2
    21   16   18 1
    22   19   20 1
    23   19   21 1
    24   22   23 1
    25   23   26 2
    26   23   27 1
    27   24   25 2
    28   24   28 1
    29   25   26 1
    30   27   28 2
    31    2   29 1
    32    3   30 1
    33    4   31 1
    34    5   32 1
    35    6   33 1
    36    8   34 1
    37    9   35 1
    38   10   36 1
    39   11   37 1
    40   12   38 1
    41   14   39 1
    42   15   40 1
    43   15   41 1
    44   15   42 1
    45   20   43 1
    46   20   44 1
    47   20   45 1
    48   21   46 1
    49   21   47 1
    50   21   48 1
    51   24   49 1
    52   25   50 1
    53   26   51 1
    54   27   52 1
    55   28   53 1
@<TRIPOS>PROPERTY_DATA
  Total_Score	| 10.0734
  Crash		| -2.0202
  Polar		| 2.4820
  FragIndex	| 1
  FragRMSD	| 0.534

