@<TRIPOS>MOLECULE
BindingDB_23772
 47 49 0 0 0
SMALL
NO_CHARGES


@<TRIPOS>ATOM
1    C         4.0444  -15.9055    0.0808  C     
2    S         4.7796  -15.7672    1.7378  S     
3    C         6.5785  -16.1119    1.4828  C     
4    C         7.3387  -14.8898    0.9606  C     
5    C         9.3321  -13.9361   -0.1686  C     
6    C         8.6086  -15.0335    0.3317  C     
7    C         6.9075  -13.5480    1.1822  C     
8    C         7.6403  -12.4398    0.7090  C     
9    C         8.8387  -12.6354    0.0063  C     
10   C         6.5467  -17.3110    0.5326  C     
11   C         5.9914  -19.6900    0.1438  C     
12   C         6.1818  -19.5380   -1.2367  C     
13   C         6.5383  -18.2837   -1.7510  C     
14   C         6.6951  -17.1861   -0.8811  C     
15   C         6.1879  -18.6012    1.0118  C     
16   C         7.2909  -16.4161    2.7995  C     
17   C         6.7731  -16.0443    4.0739  C     
18   C         7.4946  -16.2484    5.2630  C     
19   C         8.7891  -16.7868    5.2164  C     
20   C         9.3405  -17.1504    3.9802  C     
21   C         8.5946  -16.9889    2.8000  C     
22   C         2.5569  -15.4662   -0.0218  C     
23   C         2.0905  -15.3896   -1.4277  C     
24   O         2.9267  -15.0827   -2.4455  O     
25   O         0.7902  -15.5989   -1.7397  O     
26   N         1.7023  -16.4166    0.7050  N     
27   H         4.6476  -15.3028   -0.5996  H     
28   H         4.0946  -16.9503   -0.2238  H     
29   H        10.2189  -14.0868   -0.6614  H     
30   H         9.0169  -15.9607    0.2005  H     
31   H         6.0500  -13.3529    1.6988  H     
32   H         7.2971  -11.4895    0.8741  H     
33   H         9.3617  -11.8400   -0.3533  H     
34   H         5.6826  -20.5879    0.5159  H     
35   H         6.0379  -20.3322   -1.8611  H     
36   H         6.6357  -18.1572   -2.7604  H     
37   H         6.8557  -16.2779   -1.3160  H     
38   H         6.0095  -18.7451    2.0091  H     
39   H         5.8618  -15.5942    4.1641  H     
40   H         7.0918  -15.9754    6.1612  H     
41   H         9.3294  -16.9036    6.0769  H     
42   H        10.2886  -17.5215    3.9387  H     
43   H         9.0254  -17.2884    1.9239  H     
44   H         2.4457  -14.4788    0.4307  H     
45   H         1.8175  -17.3467    0.2989  H     
46   H         0.7205  -16.1340    0.6343  H     
47   H         1.9739  -16.4398    1.6881  H     
@<TRIPOS>BOND
     1    1    2 1
     2    1   22 1
     3    2    3 1
     4    3    4 1
     5    3   10 1
     6    3   16 1
     7    4    6 2
     8    4    7 1
     9    5    6 1
    10    5    9 2
    11    7    8 2
    12    8    9 1
    13   10   14 2
    14   10   15 1
    15   11   12 1
    16   11   15 2
    17   12   13 2
    18   13   14 1
    19   16   17 1
    20   16   21 2
    21   17   18 2
    22   18   19 1
    23   19   20 2
    24   20   21 1
    25   22   23 1
    26   22   26 1
    27   23   24 2
    28   23   25 1
    29    1   27 1
    30    1   28 1
    31    5   29 1
    32    6   30 1
    33    7   31 1
    34    8   32 1
    35    9   33 1
    36   11   34 1
    37   12   35 1
    38   13   36 1
    39   14   37 1
    40   15   38 1
    41   17   39 1
    42   18   40 1
    43   19   41 1
    44   20   42 1
    45   21   43 1
    46   22   44 1
    47   26   45 1
    48   26   46 1
    49   26   47 1
@<TRIPOS>PROPERTY_DATA
  Total_Score	| 10.7522
  Crash		| -1.5154
  Polar		| 3.5143
  FragIndex	| 1
  FragRMSD	| 0.698

