@<TRIPOS>MOLECULE
BindingDB_50339672
 59 61 0 0 0
SMALL
NO_CHARGES


@<TRIPOS>ATOM
1    C         6.1350  -16.1727    1.4890  C     
2    S         4.3173  -16.3440    1.7472  S     
3    C         6.9479  -16.4146    2.7546  C     
4    C         6.4781  -14.7316    1.1384  C     
5    C         6.3493  -17.2726    0.4504  C     
6    C         7.5230  -14.3749    0.2535  C     
7    C         7.6857  -13.0475   -0.1876  C     
8    C         6.8332  -11.9974    0.2486  C     
9    C         5.9310  -12.3316    1.2932  C     
10   C         5.7863  -13.6547    1.7478  C     
11   C         8.2911  -16.8730    2.6581  C     
12   C         9.1024  -17.0436    3.7940  C     
13   C         8.6035  -16.7379    5.0692  C     
14   C         7.2933  -16.2466    5.1968  C     
15   C         6.4815  -16.0850    4.0575  C     
16   C         6.5175  -17.0101   -0.9370  C     
17   C         6.6433  -18.0443   -1.8810  C     
18   C         6.5585  -19.3861   -1.4711  C     
19   C         6.3593  -19.6856   -0.1133  C     
20   C         6.2576  -18.6469    0.8284  C     
21   C         3.5766  -15.8171    0.1710  C     
22   C         2.1020  -15.3638    0.3424  C     
23   C         1.5835  -14.7167   -0.8837  C     
24   O         1.7337  -13.3868   -1.0772  O     
25   O         0.9032  -15.4160   -1.8226  O     
26   N         1.2313  -16.4907    0.7191  N     
27   C         6.8747  -10.6208   -0.4031  C     
28   C         5.7319   -9.6371    0.0454  C     
29   C         8.2261   -9.9063   -0.0680  C     
30   C         6.7272  -10.7871   -1.9569  C     
31   H         8.1408  -15.0927   -0.1338  H     
32   H         8.4171  -12.8633   -0.8777  H     
33   H         5.3368  -11.6288    1.7253  H     
34   H         5.1221  -13.8365    2.5039  H     
35   H         8.6962  -17.0873    1.7439  H     
36   H        10.0579  -17.3920    3.6929  H     
37   H         9.1935  -16.8512    5.8951  H     
38   H         6.9344  -15.9958    6.1216  H     
39   H         5.5492  -15.6935    4.1971  H     
40   H         6.5061  -16.0554   -1.2921  H     
41   H         6.7749  -17.8210   -2.8697  H     
42   H         6.6205  -20.1368   -2.1613  H     
43   H         6.2850  -20.6620    0.1850  H     
44   H         6.0911  -18.9002    1.8041  H     
45   H         4.1532  -14.9896   -0.2440  H     
46   H         3.6221  -16.6571   -0.5288  H     
47   H         2.0597  -14.6285    1.1531  H     
48   H         1.4107  -17.2882    0.1014  H     
49   H         0.2503  -16.2175    0.6509  H     
50   H         1.4361  -16.7685    1.6824  H     
51   H         4.7464  -10.0538   -0.1774  H     
52   H         5.8094   -8.6762   -0.4680  H     
53   H         5.7854   -9.4392    1.1196  H     
54   H         8.2930   -9.7106    1.0051  H     
55   H         8.3082   -8.9493   -0.5903  H     
56   H         9.0854  -10.5108   -0.3560  H     
57   H         7.5062  -11.4239   -2.3757  H     
58   H         6.7917   -9.8219   -2.4665  H     
59   H         5.7630  -11.2387   -2.2044  H     
@<TRIPOS>BOND
     1    1    2 1
     2    1    3 1
     3    1    4 1
     4    1    5 1
     5    2   21 1
     6    3   11 2
     7    3   15 1
     8    4    6 2
     9    4   10 1
    10    5   16 2
    11    5   20 1
    12    6    7 1
    13    7    8 2
    14    8    9 1
    15    8   27 1
    16    9   10 2
    17   11   12 1
    18   12   13 2
    19   13   14 1
    20   14   15 2
    21   16   17 1
    22   17   18 2
    23   18   19 1
    24   19   20 2
    25   21   22 1
    26   22   23 1
    27   22   26 1
    28   23   24 1
    29   23   25 2
    30   27   28 1
    31   27   29 1
    32   27   30 1
    33    6   31 1
    34    7   32 1
    35    9   33 1
    36   10   34 1
    37   11   35 1
    38   12   36 1
    39   13   37 1
    40   14   38 1
    41   15   39 1
    42   16   40 1
    43   17   41 1
    44   18   42 1
    45   19   43 1
    46   20   44 1
    47   21   45 1
    48   21   46 1
    49   22   47 1
    50   26   48 1
    51   26   49 1
    52   26   50 1
    53   28   51 1
    54   28   52 1
    55   28   53 1
    56   29   54 1
    57   29   55 1
    58   29   56 1
    59   30   57 1
    60   30   58 1
    61   30   59 1
@<TRIPOS>PROPERTY_DATA
  Total_Score	| 7.6453
  Crash		| -2.7045
  Polar		| 3.5830
  FragIndex	| 1
  FragRMSD	| 0.848

