@<TRIPOS>MOLECULE
BindingDB_23812
 51 53 0 0 0
SMALL
NO_CHARGES


@<TRIPOS>ATOM
1    C         7.1580  -14.8471    0.8743  C     
2    C         7.4628  -12.3935    0.7623  C     
3    C         8.6581  -12.5525    0.0464  C     
4    C         9.1399  -13.8391   -0.2202  C     
5    C         8.4019  -14.9636    0.2131  C     
6    C         6.7281  -13.5228    1.1792  C     
7    C         6.4321  -17.2980    0.4373  C     
8    C         6.5054  -17.1627   -0.9505  C     
9    C         6.3560  -18.2583   -1.8468  C     
10   C         6.0894  -19.5270   -1.3272  C     
11   C         5.9772  -19.7038    0.0648  C     
12   C         6.1335  -18.6239    0.9386  C     
13   C         3.8346  -15.6111    0.0381  C     
14   C         6.4214  -16.0961    1.3897  C     
15   C         7.1541  -16.4049    2.6876  C     
16   C         8.6913  -16.8247    5.0917  C     
17   C         7.3930  -16.2990    5.1627  C     
18   C         6.6506  -16.0801    3.9891  C     
19   C         8.4628  -16.9832    2.6756  C     
20   C         9.2286  -17.1614    3.8409  C     
21   C         2.3112  -15.3028    0.0882  C     
22   C         1.7704  -15.1120   -1.2844  C     
23   O         0.7474  -15.8803   -1.7400  O     
24   S         4.6063  -15.8300    1.6684  S     
25   N         1.5896  -16.3822    0.7897  N     
26   O         2.2891  -14.1492   -2.0904  O     
27   C         1.8876  -13.8573   -3.4381  C     
28   H         7.1294  -11.4534    0.9917  H     
29   H         9.1890  -11.7320   -0.2610  H     
30   H        10.0226  -13.9616   -0.7153  H     
31   H         8.8054  -15.8769    0.0142  H     
32   H         5.8895  -13.3497    1.7222  H     
33   H         6.5842  -16.2381   -1.3910  H     
34   H         6.3796  -18.1058   -2.8482  H     
35   H         5.9540  -20.3228   -1.9578  H     
36   H         5.7515  -20.6357    0.4343  H     
37   H         6.0104  -18.7801    1.9343  H     
38   H         3.9334  -16.5348   -0.5255  H     
39   H         4.3622  -14.8035   -0.4783  H     
40   H         9.2420  -16.9642    5.9443  H     
41   H         6.9936  -16.0643    6.0750  H     
42   H         5.7340  -15.6503    4.1028  H     
43   H         8.8871  -17.2756    1.7933  H     
44   H        10.1758  -17.5489    3.7836  H     
45   H         2.1695  -14.3833    0.6502  H     
46   H         1.7762  -17.2745    0.3262  H     
47   H         0.5837  -16.1966    0.7747  H     
48   H         1.9010  -16.4340    1.7610  H     
49   H         2.1029  -14.7079   -4.0849  H     
50   H         2.4446  -12.9953   -3.8024  H     
51   H         0.8215  -13.6276   -3.4832  H     
@<TRIPOS>BOND
     1    1    5 2
     2    1    6 1
     3    1   14 1
     4    2    3 1
     5    2    6 2
     6    3    4 2
     7    4    5 1
     8    7    8 1
     9    7   12 2
    10    7   14 1
    11    8    9 2
    12    9   10 1
    13   10   11 2
    14   11   12 1
    15   13   21 1
    16   13   24 1
    17   14   15 1
    18   14   24 1
    19   15   18 2
    20   15   19 1
    21   16   17 2
    22   16   20 1
    23   17   18 1
    24   19   20 2
    25   21   22 1
    26   21   25 1
    27   22   23 2
    28   22   26 1
    29   26   27 1
    30    2   28 1
    31    3   29 1
    32    4   30 1
    33    5   31 1
    34    6   32 1
    35    8   33 1
    36    9   34 1
    37   10   35 1
    38   11   36 1
    39   12   37 1
    40   13   38 1
    41   13   39 1
    42   16   40 1
    43   17   41 1
    44   18   42 1
    45   19   43 1
    46   20   44 1
    47   21   45 1
    48   25   46 1
    49   25   47 1
    50   25   48 1
    51   27   49 1
    52   27   50 1
    53   27   51 1
@<TRIPOS>PROPERTY_DATA
  Total_Score	| 10.7830
  Crash		| -1.4946
  Polar		| 3.3265
  FragIndex	| 1
  FragRMSD	| 0.233

