@<TRIPOS>MOLECULE
BindingDB_23774
 40 41 0 0 0
SMALL
NO_CHARGES


@<TRIPOS>ATOM
1    C         3.9114  -15.7735   -0.0079  C     
2    S         4.6233  -15.8306    1.6672  S     
3    C         2.3935  -15.4426   -0.0283  C     
4    C         1.8844  -15.3848   -1.4205  C     
5    O         0.6038  -15.7051   -1.7175  O     
6    O         2.5733  -14.7158   -2.3749  O     
7    N         1.6364  -16.4449    0.7456  N     
8    C         6.9934  -16.5340    2.7931  C     
9    C         6.4018  -16.1939    1.3765  C     
10   C         6.4386  -17.3911    0.4297  C     
11   C         6.5539  -18.3160   -1.8664  C     
12   C         6.6146  -17.2293   -0.9754  C     
13   C         6.1586  -18.7109    0.8800  C     
14   C         6.0864  -19.8014   -0.0073  C     
15   C         6.2884  -19.6040   -1.3816  C     
16   C         7.2313  -14.9989    0.9262  C     
17   C         6.8569  -13.6453    1.1513  C     
18   C         7.6822  -12.5765    0.7523  C     
19   C         8.9038  -12.8293    0.1060  C     
20   C         9.3308  -14.1553   -0.0718  C     
21   C         8.5206  -15.2125    0.3668  C     
22   H         4.4655  -15.0305   -0.5840  H     
23   H         4.0384  -16.7469   -0.4788  H     
24   H         2.2329  -14.4655    0.4346  H     
25   H         1.7647  -17.3696    0.3266  H     
26   H         0.6428  -16.2053    0.7401  H     
27   H         1.9711  -16.4651    1.7110  H     
28   H         7.0607  -15.6405    3.4203  H     
29   H         7.9941  -16.9590    2.6986  H     
30   H         6.3807  -17.2510    3.3411  H     
31   H         6.6928  -18.1641   -2.8693  H     
32   H         6.7609  -16.3035   -1.3806  H     
33   H         5.9764  -18.8983    1.8642  H     
34   H         5.8722  -20.7352    0.3461  H     
35   H         6.2278  -20.3971   -2.0277  H     
36   H         5.9905  -13.4164    1.6358  H     
37   H         7.3983  -11.6109    0.9330  H     
38   H         9.4903  -12.0548   -0.2096  H     
39   H        10.2364  -14.3489   -0.5089  H     
40   H         8.8763  -16.1661    0.2601  H     
@<TRIPOS>BOND
     1    1    2 1
     2    1    3 1
     3    2    9 1
     4    3    4 1
     5    3    7 1
     6    4    5 2
     7    4    6 1
     8    8    9 1
     9    9   10 1
    10    9   16 1
    11   10   12 2
    12   10   13 1
    13   11   12 1
    14   11   15 2
    15   13   14 2
    16   14   15 1
    17   16   17 1
    18   16   21 2
    19   17   18 2
    20   18   19 1
    21   19   20 2
    22   20   21 1
    23    1   22 1
    24    1   23 1
    25    3   24 1
    26    7   25 1
    27    7   26 1
    28    7   27 1
    29    8   28 1
    30    8   29 1
    31    8   30 1
    32   11   31 1
    33   12   32 1
    34   13   33 1
    35   14   34 1
    36   15   35 1
    37   17   36 1
    38   18   37 1
    39   19   38 1
    40   20   39 1
    41   21   40 1
@<TRIPOS>PROPERTY_DATA
  Total_Score	| 8.1499
  Crash		| -1.0252
  Polar		| 3.4572
  FragIndex	| 1
  FragRMSD	| 0.189

