@<TRIPOS>MOLECULE
BindingDB_50339675
 56 58 0 0 0
SMALL
NO_CHARGES


@<TRIPOS>ATOM
1    C         6.5362  -15.8370    1.5012  C     
2    S         4.7282  -15.5249    1.7011  S     
3    C         7.3498  -14.6483    0.9767  C     
4    C         6.5325  -17.0584    0.5923  C     
5    C         7.1748  -16.1083    2.8704  C     
6    C         6.6884  -16.9646   -0.8265  C     
7    C         6.5950  -18.0891   -1.6642  C     
8    C         6.3249  -19.3621   -1.1322  C     
9    C         6.1326  -19.4835    0.2593  C     
10   C         6.2233  -18.3569    1.0976  C     
11   C         6.9777  -13.2866    1.1444  C     
12   C         7.7565  -12.2262    0.6328  C     
13   C         8.9751  -12.4876   -0.0114  C     
14   C         9.3974  -13.8113   -0.1646  C     
15   C         8.6079  -14.8624    0.3395  C     
16   C         6.6624  -15.5762    4.0903  C     
17   C         7.3053  -15.7791    5.3246  C     
18   C         8.5166  -16.4861    5.3838  C     
19   C         9.0643  -17.0009    4.1966  C     
20   C         8.4015  -16.8215    2.9759  C     
21   C         3.9730  -15.8067    0.0701  C     
22   C         2.4648  -15.4385    0.0241  C     
23   C         1.9835  -15.3474   -1.3840  C     
24   O         2.6764  -14.6270   -2.2928  O     
25   O         0.6922  -15.6321   -1.7021  O     
26   N         1.6796  -16.4400    0.7756  N     
27   C         6.1757  -20.5444   -2.0398  C     
28   C         5.1389  -20.2450   -3.1549  C     
29   C         4.4151  -21.4972   -3.6891  C     
30   H         6.8131  -16.0590   -1.2747  H     
31   H         6.6893  -17.9584   -2.6779  H     
32   H         5.9054  -20.3944    0.6714  H     
33   H         6.0362  -18.4826    2.0908  H     
34   H         6.1209  -13.0314    1.6379  H     
35   H         7.4389  -11.2546    0.7406  H     
36   H         9.5407  -11.7219   -0.3748  H     
37   H        10.2855  -14.0177   -0.6361  H     
38   H         8.9488  -15.8159    0.1795  H     
39   H         5.8096  -15.0107    4.1035  H     
40   H         6.9106  -15.3915    6.1843  H     
41   H         9.0011  -16.6152    6.2721  H     
42   H         9.9590  -17.4947    4.2304  H     
43   H         8.8436  -17.2261    2.1431  H     
44   H         4.5087  -15.1985   -0.6758  H     
45   H         4.0592  -16.8661   -0.2156  H     
46   H         2.3213  -14.4639    0.4955  H     
47   H         1.8602  -17.3744    0.3888  H     
48   H         0.6790  -16.2386    0.7111  H     
49   H         1.9582  -16.4213    1.7605  H     
50   H         7.1318  -20.7959   -2.5101  H     
51   H         5.8578  -21.4152   -1.4615  H     
52   H         4.3817  -19.5663   -2.7616  H     
53   H         5.6441  -19.7575   -3.9904  H     
54   H         5.1410  -22.1976   -4.0912  H     
55   H         3.7131  -21.2162   -4.4788  H     
56   H         3.8649  -21.9942   -2.8844  H     
@<TRIPOS>BOND
     1    1    2 1
     2    1    3 1
     3    1    4 1
     4    1    5 1
     5    2   21 1
     6    3   11 2
     7    3   15 1
     8    4    6 2
     9    4   10 1
    10    5   16 2
    11    5   20 1
    12    6    7 1
    13    7    8 2
    14    8    9 1
    15    8   27 1
    16    9   10 2
    17   11   12 1
    18   12   13 2
    19   13   14 1
    20   14   15 2
    21   16   17 1
    22   17   18 2
    23   18   19 1
    24   19   20 2
    25   21   22 1
    26   22   23 1
    27   22   26 1
    28   23   24 1
    29   23   25 2
    30   27   28 1
    31   28   29 1
    32    6   30 1
    33    7   31 1
    34    9   32 1
    35   10   33 1
    36   11   34 1
    37   12   35 1
    38   13   36 1
    39   14   37 1
    40   15   38 1
    41   16   39 1
    42   17   40 1
    43   18   41 1
    44   19   42 1
    45   20   43 1
    46   21   44 1
    47   21   45 1
    48   22   46 1
    49   26   47 1
    50   26   48 1
    51   26   49 1
    52   27   50 1
    53   27   51 1
    54   28   52 1
    55   28   53 1
    56   29   54 1
    57   29   55 1
    58   29   56 1
@<TRIPOS>PROPERTY_DATA
  Total_Score	| 10.6665
  Crash		| -3.6263
  Polar		| 3.4687
  FragIndex	| 1
  FragRMSD	| 0.419

