@<TRIPOS>MOLECULE
BindingDB_23824
 51 53 0 0 0
SMALL
NO_CHARGES


@<TRIPOS>ATOM
1    C         7.2310  -16.3912    2.6137  C     
2    C         7.4672  -16.4386    5.0781  C     
3    C         8.7581  -16.9870    4.9698  C     
4    C         9.3053  -17.2051    3.6972  C     
5    C         8.5404  -16.9382    2.5524  C     
6    C         6.7222  -16.1296    3.9196  C     
7    C         7.1861  -14.7663    0.8585  C     
8    C         8.4431  -14.8277    0.1935  C     
9    C         9.1538  -13.6776   -0.1760  C     
10   C         8.6467  -12.4108    0.1452  C     
11   C         7.4332  -12.3043    0.8467  C     
12   C         6.7199  -13.4641    1.2082  C     
13   C         3.9113  -15.7823   -0.0549  C     
14   C         6.4910  -16.0545    1.3187  C     
15   C         6.4853  -17.2181    0.3242  C     
16   C         6.1843  -19.3801   -1.5468  C     
17   C         6.5412  -18.0862   -1.9804  C     
18   C         6.6812  -17.0320   -1.0664  C     
19   C         6.1576  -18.5325    0.7511  C     
20   C         6.0011  -19.5895   -0.1643  C     
21   C         2.4001  -15.4310   -0.0291  C     
22   C         1.8377  -15.3255   -1.4084  C     
23   O         0.5574  -15.7044   -1.7044  O     
24   S         4.6801  -15.8066    1.6124  S     
25   N         1.6442  -16.4427    0.7394  N     
26   O         2.5583  -14.7395   -2.4081  O     
27   C         5.9846  -20.4588   -2.5500  C     
28   O         4.7453  -20.2750   -3.2261  O     
29   H         7.0748  -16.2638    6.0142  H     
30   H         9.3026  -17.2076    5.8106  H     
31   H        10.2520  -17.5782    3.6111  H     
32   H         8.9699  -17.1431    1.6501  H     
33   H         5.8171  -15.6906    4.0541  H     
34   H         8.8550  -15.7214   -0.0509  H     
35   H        10.0484  -13.7615   -0.6693  H     
36   H         9.1666  -11.5667   -0.1225  H     
37   H         7.0789  -11.3823    1.1051  H     
38   H         5.8663  -13.3420    1.7420  H     
39   H         4.0318  -16.7716   -0.5196  H     
40   H         4.4362  -15.0377   -0.6612  H     
41   H         6.6809  -17.8993   -2.9834  H     
42   H         6.8716  -16.1148   -1.4541  H     
43   H         5.9889  -18.7264    1.7417  H     
44   H         5.7258  -20.5129    0.1827  H     
45   H         2.2581  -14.4686    0.4371  H     
46   H         1.7827  -17.3705    0.3142  H     
47   H         0.6413  -16.2199    0.7449  H     
48   H         1.9918  -16.4557    1.7018  H     
49   H         6.7886  -20.4340   -3.2812  H     
50   H         5.9873  -21.4427   -2.0856  H     
51   H         4.1469  -20.9746   -2.8687  H     
@<TRIPOS>BOND
     1    1    5 2
     2    1    6 1
     3    1   14 1
     4    2    3 1
     5    2    6 2
     6    3    4 2
     7    4    5 1
     8    7    8 1
     9    7   12 2
    10    7   14 1
    11    8    9 2
    12    9   10 1
    13   10   11 2
    14   11   12 1
    15   13   21 1
    16   13   24 1
    17   14   15 1
    18   14   24 1
    19   15   18 2
    20   15   19 1
    21   16   17 2
    22   16   20 1
    23   16   27 1
    24   17   18 1
    25   19   20 2
    26   21   22 1
    27   21   25 1
    28   22   23 2
    29   22   26 1
    30   27   28 1
    31    2   29 1
    32    3   30 1
    33    4   31 1
    34    5   32 1
    35    6   33 1
    36    8   34 1
    37    9   35 1
    38   10   36 1
    39   11   37 1
    40   12   38 1
    41   13   39 1
    42   13   40 1
    43   17   41 1
    44   18   42 1
    45   19   43 1
    46   20   44 1
    47   21   45 1
    48   25   46 1
    49   25   47 1
    50   25   48 1
    51   27   49 1
    52   27   50 1
    53   28   51 1
@<TRIPOS>PROPERTY_DATA
  Total_Score	| 10.2961
  Crash		| -2.1854
  Polar		| 3.8919
  FragIndex	| 1
  FragRMSD	| 0.273

