@<TRIPOS>MOLECULE
BindingDB_50339674
 56 58 0 0 0
SMALL
NO_CHARGES


@<TRIPOS>ATOM
1    C         6.6021  -15.8647    1.4230  C     
2    S         4.7923  -15.5768    1.6915  S     
3    C         7.3599  -14.6249    0.9580  C     
4    C         6.5911  -17.0363    0.4432  C     
5    C         7.2760  -16.1984    2.7496  C     
6    C         6.7537  -16.8649   -0.9561  C     
7    C         6.5629  -17.9263   -1.8562  C     
8    C         6.1294  -19.1846   -1.3896  C     
9    C         6.0174  -19.3879    0.0015  C     
10   C         6.2407  -18.3319    0.8975  C     
11   C         6.9144  -13.2858    1.1706  C     
12   C         7.6579  -12.1763    0.7282  C     
13   C         8.8845  -12.3624    0.0674  C     
14   C         9.3682  -13.6648   -0.1298  C     
15   C         8.6297  -14.7678    0.3272  C     
16   C         6.7717  -15.7317    4.0024  C     
17   C         7.4486  -15.9856    5.2128  C     
18   C         8.6885  -16.6466    5.2064  C     
19   C         9.2335  -17.0807    3.9875  C     
20   C         8.5361  -16.8666    2.7817  C     
21   C         4.0375  -15.7939    0.0508  C     
22   C         2.5341  -15.4024    0.0376  C     
23   C         2.0381  -15.2824   -1.3546  C     
24   O         2.7866  -14.6450   -2.2896  O     
25   O         0.7913  -15.6782   -1.7163  O     
26   N         1.7425  -16.3947    0.7882  N     
27   C         5.6915  -20.2384   -2.3500  C     
28   C         4.8030  -19.6687   -3.4933  C     
29   C         6.8835  -21.0356   -2.9360  C     
30   H         6.9470  -15.9488   -1.3587  H     
31   H         6.6667  -17.7485   -2.8610  H     
32   H         5.6969  -20.2887    0.3703  H     
33   H         6.0910  -18.5058    1.8907  H     
34   H         6.0414  -13.0943    1.6722  H     
35   H         7.3115  -11.2279    0.8889  H     
36   H         9.4208  -11.5603   -0.2680  H     
37   H        10.2690  -13.8133   -0.5907  H     
38   H         9.0249  -15.6992    0.1734  H     
39   H         5.9053  -15.1946    4.0534  H     
40   H         7.0588  -15.6541    6.1001  H     
41   H         9.2026  -16.7982    6.0806  H     
42   H        10.1491  -17.5358    3.9713  H     
43   H         8.9728  -17.1971    1.9159  H     
44   H         4.5807  -15.1874   -0.6665  H     
45   H         4.1148  -16.8386   -0.2498  H     
46   H         2.4067  -14.4302    0.5225  H     
47   H         1.8654  -17.3201    0.3648  H     
48   H         0.7526  -16.1324    0.7678  H     
49   H         2.0575  -16.4274    1.7560  H     
50   H         5.0615  -20.9656   -1.8258  H     
51   H         4.0868  -18.9513   -3.0909  H     
52   H         4.2521  -20.4819   -3.9832  H     
53   H         5.4054  -19.1475   -4.2428  H     
54   H         7.4849  -20.4230   -3.6137  H     
55   H         6.5079  -21.9003   -3.4899  H     
56   H         7.5272  -21.4073   -2.1356  H     
@<TRIPOS>BOND
     1    1    2 1
     2    1    3 1
     3    1    4 1
     4    1    5 1
     5    2   21 1
     6    3   11 2
     7    3   15 1
     8    4    6 2
     9    4   10 1
    10    5   16 2
    11    5   20 1
    12    6    7 1
    13    7    8 2
    14    8    9 1
    15    8   27 1
    16    9   10 2
    17   11   12 1
    18   12   13 2
    19   13   14 1
    20   14   15 2
    21   16   17 1
    22   17   18 2
    23   18   19 1
    24   19   20 2
    25   21   22 1
    26   22   23 1
    27   22   26 1
    28   23   24 1
    29   23   25 2
    30   27   28 1
    31   27   29 1
    32    6   30 1
    33    7   31 1
    34    9   32 1
    35   10   33 1
    36   11   34 1
    37   12   35 1
    38   13   36 1
    39   14   37 1
    40   15   38 1
    41   16   39 1
    42   17   40 1
    43   18   41 1
    44   19   42 1
    45   20   43 1
    46   21   44 1
    47   21   45 1
    48   22   46 1
    49   26   47 1
    50   26   48 1
    51   26   49 1
    52   27   50 1
    53   28   51 1
    54   28   52 1
    55   28   53 1
    56   29   54 1
    57   29   55 1
    58   29   56 1
@<TRIPOS>PROPERTY_DATA
  Total_Score	| 9.4270
  Crash		| -4.7615
  Polar		| 3.4656
  FragIndex	| 1
  FragRMSD	| 0.411

