@<TRIPOS>MOLECULE
BindingDB_23773
 37 38 0 0 0
SMALL
NO_CHARGES


@<TRIPOS>ATOM
1    C         4.1117  -15.8310    0.1277  C     
2    S         4.7322  -15.6038    1.8254  S     
3    C         2.6042  -15.4787   -0.0196  C     
4    C         2.1486  -15.4968   -1.4273  C     
5    O         0.8281  -15.6684   -1.7027  O     
6    O         2.8479  -14.8230   -2.3640  O     
7    N         1.7774  -16.4045    0.7711  N     
8    C         6.5197  -15.8627    1.5962  C     
9    C         7.2234  -16.2411    2.8625  C     
10   C         8.7214  -16.7781    5.2226  C     
11   C         7.4440  -16.2080    5.3119  C     
12   C         6.6985  -15.9309    4.1468  C     
13   C         8.5171  -16.8147    2.7888  C     
14   C         9.2717  -17.0558    3.9532  C     
15   C         7.2592  -14.7291    0.9760  C     
16   C         6.9116  -13.3715    1.2194  C     
17   C         7.7176  -12.3242    0.7506  C     
18   C         8.9007  -12.5941    0.0379  C     
19   C         9.2590  -13.9295   -0.2134  C     
20   C         8.4507  -14.9802    0.2442  C     
21   H         4.6782  -15.1697   -0.5244  H     
22   H         4.2875  -16.8644   -0.1790  H     
23   H         2.4366  -14.4720    0.3747  H     
24   H         1.8914  -17.3514    0.4031  H     
25   H         0.7914  -16.1295    0.7064  H     
26   H         2.0719  -16.3786    1.7451  H     
27   H         6.5556  -16.7234    0.9181  H     
28   H         9.2759  -16.9568    6.0716  H     
29   H         7.0545  -15.9785    6.2297  H     
30   H         5.7921  -15.4741    4.2473  H     
31   H         8.9461  -17.0271    1.8834  H     
32   H        10.2125  -17.4403    3.8878  H     
33   H         6.0723  -13.1497    1.7618  H     
34   H         7.4559  -11.3506    0.9436  H     
35   H         9.4935  -11.8263   -0.2955  H     
36   H        10.1307  -14.1335   -0.7124  H     
37   H         8.7532  -15.9417    0.0684  H     
@<TRIPOS>BOND
     1    1    2 1
     2    1    3 1
     3    2    8 1
     4    3    4 1
     5    3    7 1
     6    4    5 2
     7    4    6 1
     8    8    9 1
     9    8   15 1
    10    9   12 2
    11    9   13 1
    12   10   11 2
    13   10   14 1
    14   11   12 1
    15   13   14 2
    16   15   16 1
    17   15   20 2
    18   16   17 2
    19   17   18 1
    20   18   19 2
    21   19   20 1
    22    1   21 1
    23    1   22 1
    24    3   23 1
    25    7   24 1
    26    7   25 1
    27    7   26 1
    28    8   27 1
    29   10   28 1
    30   11   29 1
    31   12   30 1
    32   13   31 1
    33   14   32 1
    34   16   33 1
    35   17   34 1
    36   18   35 1
    37   19   36 1
    38   20   37 1
@<TRIPOS>PROPERTY_DATA
  Total_Score	| 8.5692
  Crash		| -1.0472
  Polar		| 3.5515
  FragIndex	| 1
  FragRMSD	| 0.349

