@<TRIPOS>MOLECULE
BindingDB_23830
 56 58 0 0 0
SMALL
NO_CHARGES


@<TRIPOS>ATOM
1    C         6.5692  -14.7997    0.9361  C     
2    C         8.0534  -13.2550   -0.2897  C     
3    C         7.4160  -12.1339    0.2832  C     
4    C         6.4160  -12.3525    1.2545  C     
5    C         6.0253  -13.6597    1.5881  C     
6    C         7.6435  -14.5611    0.0402  C     
7    C         6.2125  -17.2897    0.2366  C     
8    C         6.3115  -16.9858   -1.1470  C     
9    C         6.3294  -17.9966   -2.1286  C     
10   C         6.2759  -19.3621   -1.7592  C     
11   C         6.1588  -19.6834   -0.3900  C     
12   C         6.1095  -18.6691    0.5784  C     
13   C         3.5086  -14.9470    0.7127  C     
14   C         6.0968  -16.1983    1.2946  C     
15   C         6.9486  -16.4981    2.5193  C     
16   C         8.7030  -16.8773    4.7577  C     
17   C         9.1614  -17.0947    3.4456  C     
18   C         8.3050  -16.8942    2.3511  C     
19   C         6.5143  -16.2689    3.8543  C     
20   C         7.3665  -16.4627    4.9547  C     
21   C         2.0635  -15.2321    0.1786  C     
22   C         1.9754  -15.3191   -1.2967  C     
23   O         3.0716  -15.5419   -2.0626  O     
24   S         4.2874  -16.3123    1.6246  S     
25   N         1.4455  -16.4547    0.7162  N     
26   O         0.7618  -15.3648   -1.9111  O     
27   C         7.7532  -10.7699   -0.1834  C     
28   C         9.6200  -17.0677    5.8986  C     
29   C         6.3282  -20.4071   -2.8088  C     
30   H         8.8297  -13.1223   -0.9440  H     
31   H         5.9614  -11.5618    1.7262  H     
32   H         5.3189  -13.7766    2.3187  H     
33   H         8.1504  -15.3404   -0.3899  H     
34   H         6.3286  -16.0156   -1.4674  H     
35   H         6.4002  -17.7266   -3.1108  H     
36   H         6.0973  -20.6593   -0.0893  H     
37   H         5.9691  -18.9463    1.5525  H     
38   H         4.1542  -14.6375   -0.1092  H     
39   H         3.4449  -14.1031    1.4020  H     
40   H        10.1311  -17.3664    3.2748  H     
41   H         8.6891  -17.0297    1.4122  H     
42   H         5.5687  -15.9311    4.0485  H     
43   H         7.0172  -16.2631    5.8948  H     
44   H         1.4171  -14.4058    0.4910  H     
45   H         1.9416  -17.2693    0.3527  H     
46   H         0.4696  -16.4928    0.4162  H     
47   H         1.4879  -16.4403    1.7387  H     
48   H         8.8147  -10.5739   -0.0236  H     
49   H         7.1766   -9.9991    0.3337  H     
50   H         7.5373  -10.6953   -1.2523  H     
51   H         9.7750  -18.1373    6.0555  H     
52   H         9.2309  -16.6220    6.8170  H     
53   H        10.5808  -16.6009    5.6839  H     
54   H         5.4604  -20.3146   -3.4640  H     
55   H         6.3316  -21.4166   -2.3916  H     
56   H         7.2357  -20.2890   -3.4048  H     
@<TRIPOS>BOND
     1    1    5 2
     2    1    6 1
     3    1   14 1
     4    2    3 1
     5    2    6 2
     6    3    4 2
     7    3   27 1
     8    4    5 1
     9    7    8 1
    10    7   12 2
    11    7   14 1
    12    8    9 2
    13    9   10 1
    14   10   11 2
    15   10   29 1
    16   11   12 1
    17   13   21 1
    18   13   24 1
    19   14   15 1
    20   14   24 1
    21   15   18 2
    22   15   19 1
    23   16   17 2
    24   16   20 1
    25   16   28 1
    26   17   18 1
    27   19   20 2
    28   21   22 1
    29   21   25 1
    30   22   23 2
    31   22   26 1
    32    2   30 1
    33    4   31 1
    34    5   32 1
    35    6   33 1
    36    8   34 1
    37    9   35 1
    38   11   36 1
    39   12   37 1
    40   13   38 1
    41   13   39 1
    42   17   40 1
    43   18   41 1
    44   19   42 1
    45   20   43 1
    46   21   44 1
    47   25   45 1
    48   25   46 1
    49   25   47 1
    50   27   48 1
    51   27   49 1
    52   27   50 1
    53   28   51 1
    54   28   52 1
    55   28   53 1
    56   29   54 1
    57   29   55 1
    58   29   56 1
@<TRIPOS>PROPERTY_DATA
  Total_Score	| 8.4372
  Crash		| -3.8504
  Polar		| 4.0095
  FragIndex	| 1
  FragRMSD	| 0.889

