@<TRIPOS>MOLECULE
BindingDB_23828
 53 55 0 0 0
SMALL
NO_CHARGES


@<TRIPOS>ATOM
1    C         6.5040  -17.2693    0.3060  C     
2    C         6.5816  -18.0328   -2.0432  C     
3    C         6.3475  -19.3670   -1.6587  C     
4    C         6.2126  -19.6528   -0.2815  C     
5    C         6.2901  -18.6191    0.6769  C     
6    C         6.6519  -17.0063   -1.0833  C     
7    C         7.0934  -16.4468    2.6481  C     
8    C         8.4392  -16.9080    2.5913  C     
9    C         9.1965  -17.1486    3.7551  C     
10   C         8.6423  -16.8907    5.0201  C     
11   C         7.3541  -16.3355    5.1064  C     
12   C         6.5935  -16.1029    3.9465  C     
13   C         3.7781  -15.6655   -0.1000  C     
14   C         6.3441  -16.1607    1.3470  C     
15   C         6.8372  -14.7742    1.0119  C     
16   C         7.7282  -12.0997    0.4677  C     
17   C         6.5654  -12.3316    1.2255  C     
18   C         6.1538  -13.6439    1.5371  C     
19   C         8.0701  -14.5201    0.3459  C     
20   C         8.5073  -13.2162    0.0728  C     
21   C         2.2395  -15.4358   -0.0535  C     
22   C         1.6712  -15.3338   -1.4201  C     
23   O         2.2573  -14.5404   -2.3418  O     
24   S         4.5048  -16.1146    1.5265  S     
25   N         1.5546  -16.4903    0.7167  N     
26   O         0.4076  -15.7404   -1.6879  O     
27   C         6.2242  -20.4172   -2.6930  C     
28   C         8.1054  -10.7254    0.0890  C     
29   H         6.6693  -17.7907   -3.0364  H     
30   H         6.0335  -20.6106    0.0281  H     
31   H         6.1270  -18.8670    1.6548  H     
32   H         6.7465  -16.0566   -1.4372  H     
33   H         8.8690  -17.1127    1.6791  H     
34   H        10.1477  -17.5167    3.6763  H     
35   H         9.1956  -17.0726    5.8704  H     
36   H         6.9738  -16.0988    6.0278  H     
37   H         5.6742  -15.6697    4.0598  H     
38   H         4.0010  -16.4442   -0.8357  H     
39   H         4.2698  -14.7469   -0.4261  H     
40   H         6.0174  -11.5269    1.5707  H     
41   H         5.3377  -13.7800    2.1510  H     
42   H         8.6458  -15.2951    0.0425  H     
43   H         9.3797  -13.0790   -0.4494  H     
44   H         2.0523  -14.4844    0.4418  H     
45   H         1.7344  -17.3948    0.2795  H     
46   H         0.5473  -16.3069    0.7198  H     
47   H         1.8968  -16.4989    1.6777  H     
48   H         5.3383  -20.2199   -3.3056  H     
49   H         6.1284  -21.4158   -2.2555  H     
50   H         7.1107  -20.4073   -3.3364  H     
51   H         7.3961  -10.3441   -0.6433  H     
52   H         9.1030  -10.6786   -0.3399  H     
53   H         8.0841  -10.0850    0.9668  H     
@<TRIPOS>BOND
     1    1    5 2
     2    1    6 1
     3    1   14 1
     4    2    3 1
     5    2    6 2
     6    3    4 2
     7    3   27 1
     8    4    5 1
     9    7    8 1
    10    7   12 2
    11    7   14 1
    12    8    9 2
    13    9   10 1
    14   10   11 2
    15   11   12 1
    16   13   21 1
    17   13   24 1
    18   14   15 1
    19   14   24 1
    20   15   18 2
    21   15   19 1
    22   16   17 2
    23   16   20 1
    24   16   28 1
    25   17   18 1
    26   19   20 2
    27   21   22 1
    28   21   25 1
    29   22   23 2
    30   22   26 1
    31    2   29 1
    32    4   30 1
    33    5   31 1
    34    6   32 1
    35    8   33 1
    36    9   34 1
    37   10   35 1
    38   11   36 1
    39   12   37 1
    40   13   38 1
    41   13   39 1
    42   17   40 1
    43   18   41 1
    44   19   42 1
    45   20   43 1
    46   21   44 1
    47   25   45 1
    48   25   46 1
    49   25   47 1
    50   27   48 1
    51   27   49 1
    52   27   50 1
    53   28   51 1
    54   28   52 1
    55   28   53 1
@<TRIPOS>PROPERTY_DATA
  Total_Score	| 9.5655
  Crash		| -2.3487
  Polar		| 3.2924
  FragIndex	| 1
  FragRMSD	| 0.792

