@<TRIPOS>MOLECULE
BindingDB_50339676
 53 55 0 0 0
SMALL
NO_CHARGES


@<TRIPOS>ATOM
1    C         6.4709  -16.1165    1.2480  C     
2    S         4.6560  -15.9695    1.5247  S     
3    C         7.2661  -14.8586    0.8287  C     
4    C         6.5250  -17.2700    0.2294  C     
5    C         7.1171  -16.4037    2.6121  C     
6    C         6.3216  -18.6352    0.6104  C     
7    C         6.3529  -19.6940   -0.3189  C     
8    C         6.5538  -19.4421   -1.6941  C     
9    C         6.7070  -18.1181   -2.1068  C     
10   C         6.6856  -17.0559   -1.1608  C     
11   C         6.7574  -13.5249    0.9186  C     
12   C         7.5282  -12.4130    0.5153  C     
13   C         8.8260  -12.5785    0.0338  C     
14   C         9.3591  -13.8688   -0.0867  C     
15   C         8.5927  -14.9874    0.3045  C     
16   C         6.5958  -15.9045    3.8443  C     
17   C         7.2574  -16.0838    5.0858  C     
18   C         8.5246  -16.6913    5.1103  C     
19   C         9.1163  -17.1135    3.9150  C     
20   C         8.4246  -17.0105    2.7058  C     
21   C         3.7910  -15.8271   -0.1235  C     
22   C         2.2849  -15.4389    0.0038  C     
23   C         1.6539  -15.2762   -1.3232  C     
24   O         0.4513  -15.8273   -1.6340  O     
25   O         2.2488  -14.5282   -2.2883  O     
26   N         1.5923  -16.4813    0.7698  N     
27   C         6.4718  -20.5414   -2.7037  C     
28   C         5.0203  -20.7691   -3.1861  C     
29   H         6.1417  -18.8614    1.5974  H     
30   H         6.1925  -20.6536    0.0024  H     
31   H         6.8100  -17.8760   -3.0982  H     
32   H         6.7564  -16.1131   -1.5486  H     
33   H         5.8286  -13.3215    1.2404  H     
34   H         7.1292  -11.4755    0.6049  H     
35   H         9.3834  -11.7596   -0.2231  H     
36   H        10.3088  -13.9927   -0.4604  H     
37   H         8.9946  -15.9009    0.1214  H     
38   H         5.7115  -15.4097    3.8780  H     
39   H         6.8571  -15.7216    5.9477  H     
40   H         9.0301  -16.7797    6.0048  H     
41   H        10.0504  -17.5183    3.9330  H     
42   H         8.8725  -17.3817    1.8766  H     
43   H         4.2948  -15.0377   -0.6853  H     
44   H         3.8650  -16.7823   -0.6349  H     
45   H         2.1897  -14.4893    0.5493  H     
46   H         1.7210  -17.3743    0.2673  H     
47   H         0.5966  -16.2732    0.8371  H     
48   H         2.0031  -16.5602    1.6983  H     
49   H         7.0991  -20.3051   -3.5736  H     
50   H         6.8585  -21.4803   -2.2932  H     
51   H         4.3772  -21.0155   -2.3375  H     
52   H         4.9625  -21.5807   -3.9008  H     
53   H         4.6490  -19.8548   -3.6536  H     
@<TRIPOS>BOND
     1    1    2 1
     2    1    3 1
     3    1    4 1
     4    1    5 1
     5    2   21 1
     6    3   11 2
     7    3   15 1
     8    4    6 2
     9    4   10 1
    10    5   16 2
    11    5   20 1
    12    6    7 1
    13    7    8 2
    14    8    9 1
    15    8   27 1
    16    9   10 2
    17   11   12 1
    18   12   13 2
    19   13   14 1
    20   14   15 2
    21   16   17 1
    22   17   18 2
    23   18   19 1
    24   19   20 2
    25   21   22 1
    26   22   23 1
    27   22   26 1
    28   23   24 1
    29   23   25 2
    30   27   28 1
    31    6   29 1
    32    7   30 1
    33    9   31 1
    34   10   32 1
    35   11   33 1
    36   12   34 1
    37   13   35 1
    38   14   36 1
    39   15   37 1
    40   16   38 1
    41   17   39 1
    42   18   40 1
    43   19   41 1
    44   20   42 1
    45   21   43 1
    46   21   44 1
    47   22   45 1
    48   26   46 1
    49   26   47 1
    50   26   48 1
    51   27   49 1
    52   27   50 1
    53   28   51 1
    54   28   52 1
    55   28   53 1
@<TRIPOS>PROPERTY_DATA
  Total_Score	| 10.9775
  Crash		| -2.3022
  Polar		| 3.1983
  FragIndex	| 1
  FragRMSD	| 0.695

