@<TRIPOS>MOLECULE
BindingDB_5530
 45 48 0 0 0
SMALL
NO_CHARGES


@<TRIPOS>ATOM
1    C        -7.2509  -21.6522   22.8043  C     
2    C        -7.9536  -23.4234   24.2801  C     
3    N        -9.2490  -23.0071   24.2119  N     
4    N        -6.9912  -22.7362   23.5924  N     
5    C        -8.5919  -21.2549   22.7096  C     
6    C        -9.5666  -21.9518   23.4230  C     
7    C       -10.5086  -20.3687   22.2861  C     
8    N        -9.1942  -20.2786   22.0197  N     
9    N       -10.7442  -21.3727   23.1465  N     
10   O        -6.3004  -20.9237   22.1230  O     
11   N        -7.6870  -24.4855   25.0710  N     
12   C        -4.9149  -21.1268   22.4847  C     
13   C        -3.9125  -20.2580   21.6571  C     
14   C        -2.8759  -21.7405   19.2079  C     
15   C        -2.3440  -22.0708   20.6255  C     
16   C        -2.4732  -20.8714   21.6109  C     
17   C        -4.3753  -19.9206   20.2049  C     
18   C        -4.3052  -21.1416   19.2532  C     
19   C        -6.5165  -25.1665   25.2334  C     
20   C        -5.0699  -26.4502   26.7241  C     
21   C        -4.2013  -26.7215   25.6540  C     
22   C        -4.5034  -26.2478   24.3676  C     
23   C        -5.6451  -25.4495   24.1578  C     
24   C        -6.2238  -25.6722   26.5157  C     
25   H       -11.2262  -19.7607   21.8935  H     
26   H       -11.6253  -21.6451   23.4807  H     
27   H        -8.4225  -24.7729   25.6347  H     
28   H        -4.7825  -20.8718   23.5493  H     
29   H        -4.6654  -22.1915   22.3596  H     
30   H        -3.8278  -19.2936   22.1792  H     
31   H        -2.2030  -21.0275   18.7240  H     
32   H        -2.8874  -22.6521   18.6019  H     
33   H        -2.8944  -22.9317   21.0148  H     
34   H        -1.2914  -22.3610   20.5519  H     
35   H        -1.7693  -20.0939   21.3041  H     
36   H        -2.1801  -21.1966   22.6097  H     
37   H        -5.3918  -19.5212   20.2174  H     
38   H        -3.7254  -19.1363   19.8065  H     
39   H        -4.5918  -20.8220   18.2470  H     
40   H        -5.0184  -21.9049   19.5781  H     
41   H        -4.8774  -26.8025   27.6720  H     
42   H        -3.3649  -27.2862   25.8296  H     
43   H        -3.8775  -26.4838   23.5982  H     
44   H        -5.8532  -25.1377   23.2075  H     
45   H        -6.8645  -25.4794   27.2955  H     
@<TRIPOS>BOND
     1    1    4 1
     2    1    5 2
     3    1   10 1
     4    2    3 1
     5    2    4 2
     6    2   11 1
     7    3    6 2
     8    5    6 1
     9    5    8 1
    10    6    9 1
    11    7    8 2
    12    7    9 1
    13   10   12 1
    14   11   19 1
    15   12   13 1
    16   13   16 1
    17   13   17 1
    18   14   15 1
    19   14   18 1
    20   15   16 1
    21   17   18 1
    22   19   23 1
    23   19   24 2
    24   20   21 2
    25   20   24 1
    26   21   22 1
    27   22   23 2
    28    7   25 1
    29    9   26 1
    30   11   27 1
    31   12   28 1
    32   12   29 1
    33   13   30 1
    34   14   31 1
    35   14   32 1
    36   15   33 1
    37   15   34 1
    38   16   35 1
    39   16   36 1
    40   17   37 1
    41   17   38 1
    42   18   39 1
    43   18   40 1
    44   20   41 1
    45   21   42 1
    46   22   43 1
    47   23   44 1
    48   24   45 1
@<TRIPOS>PROPERTY_DATA
  Total_Score	| 8.5005
  Crash		| -0.4541
  Polar		| 2.5610
  FragIndex	| 1
  FragRMSD	| 0.548

