@<TRIPOS>MOLECULE
BindingDB_5537
 49 52 0 0 0
SMALL
NO_CHARGES


@<TRIPOS>ATOM
1    C        -7.4011  -21.6721   22.7934  C     
2    C        -8.1534  -23.4060   24.2849  C     
3    N        -9.4419  -22.9728   24.1865  N     
4    N        -7.1699  -22.7479   23.5964  N     
5    C        -8.7335  -21.2511   22.6680  C     
6    C        -9.7306  -21.9154   23.3814  C     
7    C       -10.6113  -20.3064   22.2350  C     
8    N        -9.2949  -20.2583   21.9611  N     
9    N       -10.8832  -21.3082   23.0908  N     
10   O        -6.4233  -21.0407   22.0718  O     
11   N        -7.8736  -24.4700   25.0808  N     
12   C        -5.0480  -21.2148   22.4686  C     
13   C        -4.0773  -20.7773   21.3303  C     
14   C        -2.1158  -21.3608   19.1078  C     
15   C        -1.6339  -20.8701   20.4967  C     
16   C        -2.6244  -21.2612   21.6243  C     
17   C        -4.5425  -21.2896   19.9300  C     
18   C        -3.5586  -20.8890   18.8006  C     
19   C        -6.6684  -25.0862   25.2169  C     
20   C        -4.5784  -26.0054   24.3097  C     
21   C        -4.1811  -26.3863   25.6068  C     
22   C        -5.0164  -26.1249   26.7137  C     
23   C        -6.2790  -25.5274   26.4977  C     
24   C        -5.8148  -25.3588   24.1157  C     
25   O        -4.6143  -26.5023   27.9601  O     
26   C        -4.3650  -25.4027   28.8564  C     
27   H       -11.3016  -19.6702   21.8412  H     
28   H       -11.7579  -21.5405   23.4358  H     
29   H        -8.5834  -24.7655   25.6617  H     
30   H        -4.8560  -20.6108   23.3627  H     
31   H        -4.8439  -22.2611   22.7126  H     
32   H        -4.0763  -19.6798   21.3023  H     
33   H        -1.4398  -20.9825   18.3348  H     
34   H        -2.0794  -22.4561   19.0738  H     
35   H        -0.6518  -21.2985   20.7106  H     
36   H        -1.5289  -19.7832   20.4773  H     
37   H        -2.2752  -20.8315   22.5650  H     
38   H        -2.6123  -22.3503   21.7306  H     
39   H        -4.6389  -22.3792   19.9533  H     
40   H        -5.5221  -20.8725   19.6866  H     
41   H        -3.5668  -19.8014   18.6858  H     
42   H        -3.8933  -21.3271   17.8575  H     
43   H        -3.9749  -26.2069   23.5090  H     
44   H        -3.2880  -26.8538   25.7397  H     
45   H        -6.8962  -25.3764   27.2918  H     
46   H        -6.0976  -25.1082   23.1631  H     
47   H        -3.6044  -24.7234   28.4624  H     
48   H        -4.0054  -25.7999   29.8049  H     
49   H        -5.2814  -24.8409   29.0553  H     
@<TRIPOS>BOND
     1    1    4 1
     2    1    5 2
     3    1   10 1
     4    2    3 1
     5    2    4 2
     6    2   11 1
     7    3    6 2
     8    5    6 1
     9    5    8 1
    10    6    9 1
    11    7    8 2
    12    7    9 1
    13   10   12 1
    14   11   19 1
    15   12   13 1
    16   13   16 1
    17   13   17 1
    18   14   15 1
    19   14   18 1
    20   15   16 1
    21   17   18 1
    22   19   23 1
    23   19   24 2
    24   20   21 2
    25   20   24 1
    26   21   22 1
    27   22   23 2
    28   22   25 1
    29   25   26 1
    30    7   27 1
    31    9   28 1
    32   11   29 1
    33   12   30 1
    34   12   31 1
    35   13   32 1
    36   14   33 1
    37   14   34 1
    38   15   35 1
    39   15   36 1
    40   16   37 1
    41   16   38 1
    42   17   39 1
    43   17   40 1
    44   18   41 1
    45   18   42 1
    46   20   43 1
    47   21   44 1
    48   23   45 1
    49   24   46 1
    50   26   47 1
    51   26   48 1
    52   26   49 1
@<TRIPOS>PROPERTY_DATA
  Total_Score	| 8.6870
  Crash		| -0.7618
  Polar		| 2.7274
  FragIndex	| 1
  FragRMSD	| 0.164

