@<TRIPOS>MOLECULE
BindingDB_5550
 50 53 0 0 0
SMALL
NO_CHARGES


@<TRIPOS>ATOM
1    C        -7.3711  -21.6426   22.8505  C     
2    C        -8.1031  -23.4195   24.3000  C     
3    N        -9.3997  -22.9974   24.2017  N     
4    N        -7.1345  -22.7365   23.6274  N     
5    C        -8.7069  -21.2281   22.7372  C     
6    C        -9.6971  -21.9277   23.4228  C     
7    C       -10.5989  -20.3386   22.2615  C     
8    N        -9.2768  -20.2448   22.0310  N     
9    N       -10.8618  -21.3495   23.1069  N     
10   O        -6.4008  -20.9845   22.1390  O     
11   N        -7.8001  -24.4852   25.0748  N     
12   C        -5.0168  -21.2535   22.4559  C     
13   C        -4.0762  -20.7714   21.3119  C     
14   C        -2.1490  -21.3974   19.0624  C     
15   C        -1.6388  -20.8692   20.4265  C     
16   C        -2.6069  -21.2279   21.5836  C     
17   C        -4.5617  -21.2756   19.9155  C     
18   C        -3.5858  -20.8986   18.7701  C     
19   C        -6.5690  -25.0652   25.2118  C     
20   C        -4.4933  -26.0098   24.3069  C     
21   C        -4.0390  -26.2783   25.6109  C     
22   C        -4.8490  -25.9596   26.7221  C     
23   C        -6.1233  -25.3904   26.5113  C     
24   C        -5.7457  -25.3949   24.1100  C     
25   N        -4.5101  -27.8339   28.7893  N     
26   S        -4.2879  -26.2273   28.3476  S     
27   O        -2.7270  -25.9219   28.3954  O     
28   O        -5.0368  -25.2834   29.3895  O     
29   H       -11.3037  -19.7424   21.8216  H     
30   H       -11.7415  -21.6270   23.4051  H     
31   H        -8.5042  -24.8065   25.6573  H     
32   H        -4.7631  -20.7399   23.3893  H     
33   H        -4.8558  -22.3271   22.5937  H     
34   H        -4.0995  -19.6758   21.3032  H     
35   H        -1.4791  -21.0587   18.2677  H     
36   H        -2.1377  -22.4913   19.0664  H     
37   H        -0.6529  -21.2952   20.6312  H     
38   H        -1.5315  -19.7843   20.3748  H     
39   H        -2.2454  -20.7579   22.5021  H     
40   H        -2.5749  -22.3120   21.7312  H     
41   H        -4.6802  -22.3628   19.9353  H     
42   H        -5.5366  -20.8386   19.6850  H     
43   H        -3.5767  -19.8123   18.6459  H     
44   H        -3.9393  -21.3386   17.8335  H     
45   H        -3.9092  -26.2512   23.5048  H     
46   H        -3.1115  -26.6917   25.7403  H     
47   H        -6.7230  -25.1754   27.3111  H     
48   H        -6.0546  -25.2081   23.1557  H     
49   H        -3.9477  -28.2317   29.4717  H     
50   H        -5.1827  -28.3689   28.3404  H     
@<TRIPOS>BOND
     1    1    4 1
     2    1    5 2
     3    1   10 1
     4    2    3 1
     5    2    4 2
     6    2   11 1
     7    3    6 2
     8    5    6 1
     9    5    8 1
    10    6    9 1
    11    7    8 2
    12    7    9 1
    13   10   12 1
    14   11   19 1
    15   12   13 1
    16   13   16 1
    17   13   17 1
    18   14   15 1
    19   14   18 1
    20   15   16 1
    21   17   18 1
    22   19   23 1
    23   19   24 2
    24   20   21 2
    25   20   24 1
    26   21   22 1
    27   22   23 2
    28   22   26 1
    29   25   26 am
    30   26   27 2
    31   26   28 2
    32    7   29 1
    33    9   30 1
    34   11   31 1
    35   12   32 1
    36   12   33 1
    37   13   34 1
    38   14   35 1
    39   14   36 1
    40   15   37 1
    41   15   38 1
    42   16   39 1
    43   16   40 1
    44   17   41 1
    45   17   42 1
    46   18   43 1
    47   18   44 1
    48   20   45 1
    49   21   46 1
    50   23   47 1
    51   24   48 1
    52   25   49 1
    53   25   50 1
@<TRIPOS>PROPERTY_DATA
  Total_Score	| 9.4257
  Crash		| -0.7652
  Polar		| 3.8918
  FragIndex	| 1
  FragRMSD	| 0.218

