@<TRIPOS>MOLECULE
BindingDB_5544
 50 53 0 0 0
SMALL
NO_CHARGES


@<TRIPOS>ATOM
1    C        -7.4207  -21.9498   22.4513  C     
2    C        -8.0349  -23.3571   24.3139  C     
3    N        -9.2947  -22.8448   24.2945  N     
4    N        -7.1429  -22.8763   23.4080  N     
5    C        -8.7245  -21.4248   22.4465  C     
6    C        -9.6429  -21.8999   23.3794  C     
7    C       -10.5975  -20.4139   22.1263  C     
8    N        -9.3334  -20.5181   21.6653  N     
9    N       -10.7982  -21.2609   23.1506  N     
10   O        -6.4346  -21.5618   21.5692  O     
11   N        -7.7232  -24.3386   25.1996  N     
12   C        -5.7119  -22.6473   20.9468  C     
13   C        -4.3038  -22.2661   20.3780  C     
14   C        -3.4392  -19.3712   20.3668  C     
15   C        -4.5219  -19.8772   19.3726  C     
16   C        -4.3499  -21.3871   19.0850  C     
17   C        -3.3373  -21.6842   21.4596  C     
18   C        -3.4923  -20.1562   21.6996  C     
19   C        -6.5898  -25.1003   25.3115  C     
20   C        -5.3794  -26.7754   26.6535  C     
21   C        -4.3457  -26.8512   25.6896  C     
22   C        -4.4387  -26.0280   24.5452  C     
23   C        -5.5386  -25.1916   24.3547  C     
24   C        -6.4755  -25.9180   26.4623  C     
25   N        -3.3392  -29.2891   26.7736  N     
26   S        -2.9860  -27.9126   25.8811  S     
27   O        -2.4229  -28.3585   24.4592  O     
28   O        -1.8691  -27.1114   26.6859  O     
29   H       -11.3105  -19.8050   21.7287  H     
30   H       -11.6330  -21.3802   23.6336  H     
31   H        -8.4315  -24.5694   25.8154  H     
32   H        -5.5374  -23.4579   21.6682  H     
33   H        -6.3350  -23.0511   20.1410  H     
34   H        -3.8652  -23.2161   20.0495  H     
35   H        -2.4478  -19.4913   19.9154  H     
36   H        -3.5984  -18.3087   20.5606  H     
37   H        -5.5160  -19.6846   19.7864  H     
38   H        -4.4395  -19.3320   18.4250  H     
39   H        -3.4105  -21.5215   18.5385  H     
40   H        -5.1564  -21.7271   18.4265  H     
41   H        -3.4870  -22.2111   22.4096  H     
42   H        -2.3021  -21.8682   21.1435  H     
43   H        -2.6824  -19.8141   22.3574  H     
44   H        -4.4397  -19.9492   22.2078  H     
45   H        -5.3204  -27.3427   27.5024  H     
46   H        -3.6978  -26.0460   23.8358  H     
47   H        -5.5723  -24.6686   23.4823  H     
48   H        -7.2079  -25.8950   27.1800  H     
49   H        -2.6291  -29.9029   27.0208  H     
50   H        -4.2555  -29.4683   27.0507  H     
@<TRIPOS>BOND
     1    1    4 1
     2    1    5 2
     3    1   10 1
     4    2    3 1
     5    2    4 2
     6    2   11 1
     7    3    6 2
     8    5    6 1
     9    5    8 1
    10    6    9 1
    11    7    8 2
    12    7    9 1
    13   10   12 1
    14   11   19 1
    15   12   13 1
    16   13   16 1
    17   13   17 1
    18   14   15 1
    19   14   18 1
    20   15   16 1
    21   17   18 1
    22   19   23 1
    23   19   24 2
    24   20   21 2
    25   20   24 1
    26   21   22 1
    27   21   26 1
    28   22   23 2
    29   25   26 am
    30   26   27 2
    31   26   28 2
    32    7   29 1
    33    9   30 1
    34   11   31 1
    35   12   32 1
    36   12   33 1
    37   13   34 1
    38   14   35 1
    39   14   36 1
    40   15   37 1
    41   15   38 1
    42   16   39 1
    43   16   40 1
    44   17   41 1
    45   17   42 1
    46   18   43 1
    47   18   44 1
    48   20   45 1
    49   22   46 1
    50   23   47 1
    51   24   48 1
    52   25   49 1
    53   25   50 1
@<TRIPOS>PROPERTY_DATA
  Total_Score	| 9.5459
  Crash		| -1.0470
  Polar		| 2.9398
  FragIndex	| 1
  FragRMSD	| 1.216

