@<TRIPOS>MOLECULE
BindingDB_5542
 49 52 0 0 0
SMALL
NO_CHARGES


@<TRIPOS>ATOM
1    C        -7.3335  -21.7519   22.8336  C     
2    C        -7.9916  -23.4965   24.3505  C     
3    N        -9.2934  -23.1066   24.2779  N     
4    N        -7.0532  -22.8276   23.6248  N     
5    C        -8.6789  -21.3467   22.7685  C     
6    C        -9.6362  -22.0567   23.4908  C     
7    C       -10.6007  -20.4683   22.3817  C     
8    N        -9.2914  -20.3614   22.0893  N     
9    N       -10.8178  -21.4919   23.2258  N     
10   O        -6.3920  -21.0908   22.0738  O     
11   N        -7.6626  -24.5310   25.1527  N     
12   C        -4.9968  -21.2937   22.4008  C     
13   C        -4.0689  -20.7749   21.2650  C     
14   C        -2.1496  -21.3928   19.0210  C     
15   C        -1.6377  -20.8376   20.3762  C     
16   C        -2.5917  -21.1918   21.5418  C     
17   C        -4.5607  -21.2714   19.8715  C     
18   C        -3.5875  -20.8921   18.7261  C     
19   C        -6.4333  -25.1027   25.2879  C     
20   C        -4.7110  -26.0012   26.7659  C     
21   C        -3.9503  -26.4382   25.6593  C     
22   C        -4.4526  -26.1993   24.3584  C     
23   C        -5.6774  -25.5299   24.1733  C     
24   C        -5.9482  -25.3592   26.5841  C     
25   O        -2.7921  -27.1136   25.9560  O     
26   C        -1.6843  -27.0595   25.0402  C     
27   H       -11.3268  -19.8636   21.9964  H     
28   H       -11.6826  -21.7780   23.5562  H     
29   H        -8.3494  -24.8709   25.7366  H     
30   H        -4.7741  -20.7654   23.3363  H     
31   H        -4.7879  -22.3625   22.5571  H     
32   H        -4.1233  -19.6797   21.2713  H     
33   H        -1.4785  -21.0712   18.2163  H     
34   H        -2.1428  -22.4873   19.0415  H     
35   H        -0.6461  -21.2450   20.5822  H     
36   H        -1.5450  -19.7534   20.3062  H     
37   H        -2.2375  -20.6931   22.4459  H     
38   H        -2.5381  -22.2696   21.7137  H     
39   H        -4.6779  -22.3585   19.8849  H     
40   H        -5.5341  -20.8319   19.6453  H     
41   H        -3.5729  -19.8055   18.5991  H     
42   H        -3.9429  -21.3316   17.7894  H     
43   H        -4.3668  -26.1545   27.7161  H     
44   H        -3.9348  -26.5122   23.5330  H     
45   H        -6.0316  -25.3952   23.2220  H     
46   H        -6.4896  -25.0715   27.4033  H     
47   H        -1.8390  -27.7658   24.2216  H     
48   H        -0.7810  -27.3500   25.5771  H     
49   H        -1.5371  -26.0526   24.6405  H     
@<TRIPOS>BOND
     1    1    4 1
     2    1    5 2
     3    1   10 1
     4    2    3 1
     5    2    4 2
     6    2   11 1
     7    3    6 2
     8    5    6 1
     9    5    8 1
    10    6    9 1
    11    7    8 2
    12    7    9 1
    13   10   12 1
    14   11   19 1
    15   12   13 1
    16   13   16 1
    17   13   17 1
    18   14   15 1
    19   14   18 1
    20   15   16 1
    21   17   18 1
    22   19   23 1
    23   19   24 2
    24   20   21 2
    25   20   24 1
    26   21   22 1
    27   21   25 1
    28   22   23 2
    29   25   26 1
    30    7   27 1
    31    9   28 1
    32   11   29 1
    33   12   30 1
    34   12   31 1
    35   13   32 1
    36   14   33 1
    37   14   34 1
    38   15   35 1
    39   15   36 1
    40   16   37 1
    41   16   38 1
    42   17   39 1
    43   17   40 1
    44   18   41 1
    45   18   42 1
    46   20   43 1
    47   22   44 1
    48   23   45 1
    49   24   46 1
    50   26   47 1
    51   26   48 1
    52   26   49 1
@<TRIPOS>PROPERTY_DATA
  Total_Score	| 9.1366
  Crash		| -0.7093
  Polar		| 2.7741
  FragIndex	| 1
  FragRMSD	| 0.273

