@<TRIPOS>MOLECULE
BindingDB_5545
 53 56 0 0 0
SMALL
NO_CHARGES


@<TRIPOS>ATOM
1    C        -7.3703  -21.6340   22.8612  C     
2    C        -8.1024  -23.3692   24.3522  C     
3    N        -9.3964  -22.9376   24.2703  N     
4    N        -7.1290  -22.7132   23.6592  N     
5    C        -8.7046  -21.2130   22.7589  C     
6    C        -9.6966  -21.8772   23.4790  C     
7    C       -10.5924  -20.3149   22.2921  C     
8    N        -9.2741  -20.2492   22.0212  N     
9    N       -10.8605  -21.2917   23.1764  N     
10   O        -6.4219  -21.0170   22.0757  O     
11   N        -7.8275  -24.4683   25.0848  N     
12   C        -5.0330  -21.2010   22.4251  C     
13   C        -4.1130  -20.7306   21.2664  C     
14   C        -2.2037  -21.3677   19.0146  C     
15   C        -1.6927  -20.7951   20.3604  C     
16   C        -2.6368  -21.1639   21.5322  C     
17   C        -4.6081  -21.2661   19.8822  C     
18   C        -3.6495  -20.8985   18.7195  C     
19   C        -6.6539  -25.1717   25.1495  C     
20   C        -5.2455  -26.6821   26.4715  C     
21   C        -4.2647  -26.6865   25.4499  C     
22   C        -4.4906  -25.9579   24.2630  C     
23   C        -5.6850  -25.2313   24.1049  C     
24   C        -6.4226  -25.9294   26.3154  C     
25   S        -2.7784  -27.5862   25.6027  S     
26   O        -2.6441  -28.3817   26.9742  O     
27   O        -2.8675  -28.6401   24.4098  O     
28   N        -1.4235  -26.6082   25.3444  N     
29   C        -1.4431  -25.2055   25.6084  C     
30   H       -11.2906  -19.7210   21.8526  H     
31   H       -11.7386  -21.5414   23.5032  H     
32   H        -8.5499  -24.8131   25.6335  H     
33   H        -4.8190  -20.6196   23.3283  H     
34   H        -4.8073  -22.2540   22.6335  H     
35   H        -4.1468  -19.6328   21.2368  H     
36   H        -1.5398  -21.0431   18.2079  H     
37   H        -2.1750  -22.4623   19.0501  H     
38   H        -0.6909  -21.1843   20.5645  H     
39   H        -1.6262  -19.7089   20.2884  H     
40   H        -2.2748  -20.6781   22.4418  H     
41   H        -2.5883  -22.2479   21.6876  H     
42   H        -4.7033  -22.3541   19.9265  H     
43   H        -5.5952  -20.8540   19.6597  H     
44   H        -3.6613  -19.8132   18.5711  H     
45   H        -4.0012  -21.3647   17.7964  H     
46   H        -5.0950  -27.2063   27.3366  H     
47   H        -3.7600  -25.9176   23.5311  H     
48   H        -5.8572  -24.7627   23.2073  H     
49   H        -7.1110  -25.9304   27.0767  H     
50   H        -0.7284  -26.9541   24.7592  H     
51   H        -2.0310  -24.7029   24.8172  H     
52   H        -0.4049  -24.8421   25.6314  H     
53   H        -1.8999  -24.9998   26.5858  H     
@<TRIPOS>BOND
     1    1    4 1
     2    1    5 2
     3    1   10 1
     4    2    3 1
     5    2    4 2
     6    2   11 1
     7    3    6 2
     8    5    6 1
     9    5    8 1
    10    6    9 1
    11    7    8 2
    12    7    9 1
    13   10   12 1
    14   11   19 1
    15   12   13 1
    16   13   16 1
    17   13   17 1
    18   14   15 1
    19   14   18 1
    20   15   16 1
    21   17   18 1
    22   19   23 1
    23   19   24 2
    24   20   21 2
    25   20   24 1
    26   21   22 1
    27   21   25 1
    28   22   23 2
    29   25   26 2
    30   25   27 2
    31   25   28 1
    32   28   29 1
    33    7   30 1
    34    9   31 1
    35   11   32 1
    36   12   33 1
    37   12   34 1
    38   13   35 1
    39   14   36 1
    40   14   37 1
    41   15   38 1
    42   15   39 1
    43   16   40 1
    44   16   41 1
    45   17   42 1
    46   17   43 1
    47   18   44 1
    48   18   45 1
    49   20   46 1
    50   22   47 1
    51   23   48 1
    52   24   49 1
    53   28   50 1
    54   29   51 1
    55   29   52 1
    56   29   53 1
@<TRIPOS>PROPERTY_DATA
  Total_Score	| 10.7024
  Crash		| -0.7792
  Polar		| 3.5280
  FragIndex	| 1
  FragRMSD	| 0.097

