@<TRIPOS>MOLECULE
BindingDB_5541
 46 49 0 0 0
SMALL
NO_CHARGES


@<TRIPOS>ATOM
1    C        -7.4331  -21.6332   22.8073  C     
2    C        -8.1448  -23.3960   24.2756  C     
3    N        -9.4377  -22.9626   24.2077  N     
4    N        -7.1841  -22.7275   23.5840  N     
5    C        -8.7718  -21.2151   22.7145  C     
6    C        -9.7493  -21.8995   23.4305  C     
7    C       -10.6737  -20.3413   22.2468  C     
8    N        -9.3575  -20.2502   21.9825  N     
9    N       -10.9172  -21.3252   23.1316  N     
10   O        -6.4688  -20.9935   22.0641  O     
11   N        -7.8620  -24.4842   25.0277  N     
12   C        -5.0942  -21.2002   22.4540  C     
13   C        -4.1198  -20.7027   21.3566  C     
14   C        -2.1380  -21.3515   19.1716  C     
15   C        -1.6604  -20.8318   20.5504  C     
16   C        -2.6681  -21.1804   21.6751  C     
17   C        -4.5770  -21.1802   19.9413  C     
18   C        -3.5511  -20.8170   18.8321  C     
19   C        -6.6733  -25.1559   25.1379  C     
20   C        -5.1865  -26.4855   26.5611  C     
21   C        -4.2799  -26.6293   25.4915  C     
22   C        -4.5761  -26.0612   24.2361  C     
23   C        -5.7629  -25.3266   24.0639  C     
24   C        -6.3789  -25.7625   26.3796  C     
25   O        -3.1102  -27.3078   25.6636  O     
26   H       -11.3905  -19.7575   21.8095  H     
27   H       -11.7908  -21.5921   23.4567  H     
28   H        -8.5831  -24.8026   25.5943  H     
29   H        -4.9017  -20.6540   23.3893  H     
30   H        -4.8961  -22.2665   22.6281  H     
31   H        -4.1297  -19.6090   21.3673  H     
32   H        -1.4334  -21.0323   18.3985  H     
33   H        -2.1553  -22.4454   19.1785  H     
34   H        -0.6863  -21.2730   20.7854  H     
35   H        -1.5356  -19.7490   20.5050  H     
36   H        -2.3265  -20.7127   22.6035  H     
37   H        -2.6556  -22.2642   21.8232  H     
38   H        -4.7159  -22.2632   19.9442  H     
39   H        -5.5334  -20.7199   19.6887  H     
40   H        -3.5126  -19.7271   18.7170  H     
41   H        -3.8832  -21.2411   17.8798  H     
42   H        -4.9755  -26.9013   27.4664  H     
43   H        -3.9374  -26.1930   23.4511  H     
44   H        -5.9822  -24.9453   23.1381  H     
45   H        -7.0241  -25.6743   27.1602  H     
46   H        -3.3666  -28.2594   25.6766  H     
@<TRIPOS>BOND
     1    1    4 1
     2    1    5 2
     3    1   10 1
     4    2    3 1
     5    2    4 2
     6    2   11 1
     7    3    6 2
     8    5    6 1
     9    5    8 1
    10    6    9 1
    11    7    8 2
    12    7    9 1
    13   10   12 1
    14   11   19 1
    15   12   13 1
    16   13   16 1
    17   13   17 1
    18   14   15 1
    19   14   18 1
    20   15   16 1
    21   17   18 1
    22   19   23 1
    23   19   24 2
    24   20   21 2
    25   20   24 1
    26   21   22 1
    27   21   25 1
    28   22   23 2
    29    7   26 1
    30    9   27 1
    31   11   28 1
    32   12   29 1
    33   12   30 1
    34   13   31 1
    35   14   32 1
    36   14   33 1
    37   15   34 1
    38   15   35 1
    39   16   36 1
    40   16   37 1
    41   17   38 1
    42   17   39 1
    43   18   40 1
    44   18   41 1
    45   20   42 1
    46   22   43 1
    47   23   44 1
    48   24   45 1
    49   25   46 1
@<TRIPOS>PROPERTY_DATA
  Total_Score	| 8.4234
  Crash		| -0.7450
  Polar		| 2.7327
  FragIndex	| 1
  FragRMSD	| 0.092

