@<TRIPOS>MOLECULE
BindingDB_5546
 56 59 0 0 0
SMALL
NO_CHARGES


@<TRIPOS>ATOM
1    C        -7.4221  -21.6355   22.8224  C     
2    C        -8.1553  -23.3959   24.2976  C     
3    N        -9.4499  -22.9696   24.2083  N     
4    N        -7.1866  -22.7190   23.6167  N     
5    C        -8.7602  -21.2280   22.7069  C     
6    C        -9.7494  -21.9048   23.4205  C     
7    C       -10.6531  -20.3408   22.2303  C     
8    N        -9.3374  -20.2665   21.9711  N     
9    N       -10.9112  -21.3207   23.1146  N     
10   O        -6.4519  -20.9930   22.1023  O     
11   N        -7.8675  -24.4728   25.0659  N     
12   C        -5.0769  -21.2240   22.4830  C     
13   C        -4.1168  -20.7612   21.3545  C     
14   C        -2.1115  -21.3414   19.1694  C     
15   C        -1.6595  -20.8076   20.5507  C     
16   C        -2.6514  -21.2060   21.6691  C     
17   C        -4.5524  -21.2965   19.9479  C     
18   C        -3.5561  -20.8926   18.8321  C     
19   C        -6.6855  -25.1580   25.1277  C     
20   C        -4.6257  -26.0453   24.1338  C     
21   C        -4.3002  -26.6960   25.3455  C     
22   C        -5.1875  -26.5901   26.4385  C     
23   C        -6.3703  -25.8354   26.3260  C     
24   C        -5.8023  -25.2853   24.0315  C     
25   S        -2.8337  -27.6332   25.4572  S     
26   O        -2.7945  -28.5260   26.7743  O     
27   O        -2.8830  -28.7074   24.2848  O     
28   N        -1.4269  -26.6981   25.3435  N     
29   C        -1.1725  -25.7699   26.4055  C     
30   C        -0.8543  -26.4531   24.0501  C     
31   H       -11.3638  -19.7468   21.7947  H     
32   H       -11.7876  -21.5729   23.4510  H     
33   H        -8.5877  -24.8070   25.6238  H     
34   H        -4.8560  -20.6593   23.3973  H     
35   H        -4.9011  -22.2844   22.6753  H     
36   H        -4.1459  -19.6651   21.3196  H     
37   H        -1.4250  -20.9773   18.4006  H     
38   H        -2.0599  -22.4370   19.1663  H     
39   H        -0.6718  -21.2035   20.7890  H     
40   H        -1.5891  -19.7200   20.5113  H     
41   H        -2.3265  -20.7470   22.6090  H     
42   H        -2.6196  -22.2923   21.8005  H     
43   H        -4.6337  -22.3894   19.9787  H     
44   H        -5.5399  -20.8978   19.6907  H     
45   H        -3.5787  -19.8060   18.7061  H     
46   H        -3.8664  -21.3437   17.8885  H     
47   H        -4.0087  -26.1250   23.3229  H     
48   H        -4.9729  -27.0614   27.3215  H     
49   H        -6.9970  -25.7767   27.1346  H     
50   H        -6.0206  -24.8590   23.1331  H     
51   H        -1.8046  -24.8899   26.2842  H     
52   H        -0.1293  -25.4532   26.4103  H     
53   H        -1.3759  -26.2167   27.3821  H     
54   H        -0.7934  -27.3690   23.4622  H     
55   H         0.1611  -26.0619   24.1363  H     
56   H        -1.4555  -25.7242   23.5038  H     
@<TRIPOS>BOND
     1    1    4 1
     2    1    5 2
     3    1   10 1
     4    2    3 1
     5    2    4 2
     6    2   11 1
     7    3    6 2
     8    5    6 1
     9    5    8 1
    10    6    9 1
    11    7    8 2
    12    7    9 1
    13   10   12 1
    14   11   19 1
    15   12   13 1
    16   13   16 1
    17   13   17 1
    18   14   15 1
    19   14   18 1
    20   15   16 1
    21   17   18 1
    22   19   23 1
    23   19   24 2
    24   20   21 2
    25   20   24 1
    26   21   22 1
    27   21   25 1
    28   22   23 2
    29   25   26 2
    30   25   27 2
    31   25   28 1
    32   28   29 1
    33   28   30 1
    34    7   31 1
    35    9   32 1
    36   11   33 1
    37   12   34 1
    38   12   35 1
    39   13   36 1
    40   14   37 1
    41   14   38 1
    42   15   39 1
    43   15   40 1
    44   16   41 1
    45   16   42 1
    46   17   43 1
    47   17   44 1
    48   18   45 1
    49   18   46 1
    50   20   47 1
    51   22   48 1
    52   23   49 1
    53   24   50 1
    54   29   51 1
    55   29   52 1
    56   29   53 1
    57   30   54 1
    58   30   55 1
    59   30   56 1
@<TRIPOS>PROPERTY_DATA
  Total_Score	| 10.8337
  Crash		| -0.9537
  Polar		| 3.4533
  FragIndex	| 1
  FragRMSD	| 0.097

