@<TRIPOS>MOLECULE
BindingDB_5533
 45 48 0 0 0
SMALL
NO_CHARGES


@<TRIPOS>ATOM
1    C        -7.4215  -21.6938   22.8368  C     
2    C        -8.1726  -23.4662   24.2869  C     
3    N        -9.4614  -23.0270   24.1857  N     
4    N        -7.1942  -22.7932   23.6164  N     
5    C        -8.7555  -21.2687   22.7192  C     
6    C        -9.7540  -21.9486   23.4110  C     
7    C       -10.6271  -20.3331   22.2633  C     
8    N        -9.3070  -20.2767   22.0038  N     
9    N       -10.9010  -21.3341   23.1186  N     
10   O        -6.4481  -21.0347   22.1150  O     
11   N        -7.8913  -24.5378   25.0664  N     
12   C        -5.0716  -21.2569   22.4935  C     
13   C        -4.1002  -20.7658   21.3844  C     
14   C        -2.0738  -21.3538   19.2055  C     
15   C        -1.6258  -20.8509   20.6003  C     
16   C        -2.6444  -21.2274   21.7092  C     
17   C        -4.5223  -21.2614   19.9664  C     
18   C        -3.5033  -20.8572   18.8658  C     
19   C        -6.6756  -25.1375   25.2721  C     
20   C        -5.2289  -26.4111   26.7960  C     
21   C        -4.1764  -26.3439   25.8702  C     
22   C        -4.3761  -25.7048   24.6331  C     
23   C        -5.6238  -25.1309   24.3225  C     
24   C        -6.4713  -25.8235   26.4905  C     
25   Br       -2.9602  -25.5678   23.4390  Br    
26   H       -11.3242  -19.7093   21.8537  H     
27   H       -11.7792  -21.5711   23.4434  H     
28   H        -8.6241  -24.8767   25.5975  H     
29   H        -4.8624  -20.7163   23.4254  H     
30   H        -4.8897  -22.3217   22.6605  H     
31   H        -4.1185  -19.6709   21.3812  H     
32   H        -1.3738  -20.9950   18.4489  H     
33   H        -2.0562  -22.4477   19.1919  H     
34   H        -0.6471  -21.2782   20.8437  H     
35   H        -1.5217  -19.7644   20.5710  H     
36   H        -2.3162  -20.7711   22.6518  H     
37   H        -2.6185  -22.3137   21.8382  H     
38   H        -4.6206  -22.3519   19.9706  H     
39   H        -5.4940  -20.8417   19.7018  H     
40   H        -3.4923  -19.7683   18.7571  H     
41   H        -3.8138  -21.2838   17.9052  H     
42   H        -5.0841  -26.8670   27.6994  H     
43   H        -3.2666  -26.7531   26.0974  H     
44   H        -5.7548  -24.7029   23.4052  H     
45   H        -7.2119  -25.8645   27.1889  H     
@<TRIPOS>BOND
     1    1    4 1
     2    1    5 2
     3    1   10 1
     4    2    3 1
     5    2    4 2
     6    2   11 1
     7    3    6 2
     8    5    6 1
     9    5    8 1
    10    6    9 1
    11    7    8 2
    12    7    9 1
    13   10   12 1
    14   11   19 1
    15   12   13 1
    16   13   16 1
    17   13   17 1
    18   14   15 1
    19   14   18 1
    20   15   16 1
    21   17   18 1
    22   19   23 1
    23   19   24 2
    24   20   21 2
    25   20   24 1
    26   21   22 1
    27   22   23 2
    28   22   25 1
    29    7   26 1
    30    9   27 1
    31   11   28 1
    32   12   29 1
    33   12   30 1
    34   13   31 1
    35   14   32 1
    36   14   33 1
    37   15   34 1
    38   15   35 1
    39   16   36 1
    40   16   37 1
    41   17   38 1
    42   17   39 1
    43   18   40 1
    44   18   41 1
    45   20   42 1
    46   21   43 1
    47   23   44 1
    48   24   45 1
@<TRIPOS>PROPERTY_DATA
  Total_Score	| 8.4847
  Crash		| -1.0840
  Polar		| 2.7342
  FragIndex	| 1
  FragRMSD	| 0.227

