@<TRIPOS>MOLECULE
BindingDB_5549
 54 57 0 0 0
SMALL
NO_CHARGES


@<TRIPOS>ATOM
1    C        -7.3706  -21.6911   22.6444  C     
2    C        -7.9376  -23.3186   24.3285  C     
3    N        -9.2405  -22.9154   24.3156  N     
4    N        -7.0421  -22.6993   23.5010  N     
5    C        -8.7170  -21.2989   22.6210  C     
6    C        -9.6263  -21.9272   23.4688  C     
7    C       -10.6570  -20.4496   22.2679  C     
8    N        -9.3685  -20.3858   21.8856  N     
9    N       -10.8205  -21.3779   23.2267  N     
10   O        -6.4870  -21.0769   21.7921  O     
11   N        -7.5720  -24.3255   25.1573  N     
12   C        -5.0809  -21.1558   22.1051  C     
13   C        -4.2551  -20.3150   21.0851  C     
14   C        -2.1204  -21.9311   19.6604  C     
15   C        -1.9425  -21.5068   21.1410  C     
16   C        -2.7444  -20.2198   21.4694  C     
17   C        -4.4151  -20.7862   19.6038  C     
18   C        -3.6160  -22.0760   19.2792  C     
19   C        -6.3790  -24.9907   25.1563  C     
20   C        -4.5179  -26.0753   23.9912  C     
21   C        -3.9833  -26.5194   25.2163  C     
22   C        -4.6455  -26.1896   26.4235  C     
23   C        -5.8520  -25.4540   26.3799  C     
24   C        -5.7021  -25.3257   23.9619  C     
25   C        -3.3875  -25.6823   28.3544  C     
26   O        -4.1783  -26.6429   27.6303  O     
27   N        -1.2746  -26.7572   24.3171  N     
28   S        -2.5363  -27.4883   25.1533  S     
29   O        -2.0337  -28.0845   26.5377  O     
30   O        -2.8918  -28.7710   24.2847  O     
31   H       -11.4052  -19.8855   21.8674  H     
32   H       -11.6582  -21.6153   23.6530  H     
33   H        -8.2283  -24.6235   25.8067  H     
34   H        -4.9146  -20.7574   23.1121  H     
35   H        -4.7512  -22.1974   22.0858  H     
36   H        -4.6552  -19.2983   21.1345  H     
37   H        -1.6525  -21.1839   19.0125  H     
38   H        -1.6116  -22.8845   19.4933  H     
39   H        -2.2696  -22.3193   21.7947  H     
40   H        -0.8823  -21.3288   21.3390  H     
41   H        -2.2946  -19.3863   20.9214  H     
42   H        -2.6423  -19.9948   22.5346  H     
43   H        -5.4699  -20.9497   19.3694  H     
44   H        -4.0616  -19.9883   18.9423  H     
45   H        -3.6953  -22.2896   18.2095  H     
46   H        -4.0491  -22.9228   19.8178  H     
47   H        -4.0643  -26.3146   23.1045  H     
48   H        -6.3465  -25.2505   27.2536  H     
49   H        -6.0873  -25.0631   23.0527  H     
50   H        -2.9367  -26.1866   29.2141  H     
51   H        -4.0153  -24.8690   28.7251  H     
52   H        -2.5819  -25.2680   27.7421  H     
53   H        -1.2666  -26.8228   23.3479  H     
54   H        -0.7564  -26.0610   24.7507  H     
@<TRIPOS>BOND
     1    1    4 1
     2    1    5 2
     3    1   10 1
     4    2    3 1
     5    2    4 2
     6    2   11 1
     7    3    6 2
     8    5    6 1
     9    5    8 1
    10    6    9 1
    11    7    8 2
    12    7    9 1
    13   10   12 1
    14   11   19 1
    15   12   13 1
    16   13   16 1
    17   13   17 1
    18   14   15 1
    19   14   18 1
    20   15   16 1
    21   17   18 1
    22   19   23 1
    23   19   24 2
    24   20   21 2
    25   20   24 1
    26   21   22 1
    27   21   28 1
    28   22   23 2
    29   22   26 1
    30   25   26 1
    31   27   28 am
    32   28   29 2
    33   28   30 2
    34    7   31 1
    35    9   32 1
    36   11   33 1
    37   12   34 1
    38   12   35 1
    39   13   36 1
    40   14   37 1
    41   14   38 1
    42   15   39 1
    43   15   40 1
    44   16   41 1
    45   16   42 1
    46   17   43 1
    47   17   44 1
    48   18   45 1
    49   18   46 1
    50   20   47 1
    51   23   48 1
    52   24   49 1
    53   25   50 1
    54   25   51 1
    55   25   52 1
    56   27   53 1
    57   27   54 1
@<TRIPOS>PROPERTY_DATA
  Total_Score	| 9.9184
  Crash		| -0.7115
  Polar		| 4.3525
  FragIndex	| 1
  FragRMSD	| 0.549

