@<TRIPOS>MOLECULE
BindingDB_5548
 50 53 0 0 0
SMALL
NO_CHARGES


@<TRIPOS>ATOM
1    C        -7.3310  -21.6851   22.8072  C     
2    C        -7.9823  -23.4058   24.3725  C     
3    N        -9.2852  -22.9975   24.3070  N     
4    N        -7.0469  -22.7384   23.6331  N     
5    C        -8.6751  -21.2828   22.7392  C     
6    C        -9.6277  -21.9607   23.4996  C     
7    C       -10.5961  -20.4049   22.3367  C     
8    N        -9.2903  -20.3296   22.0146  N     
9    N       -10.8097  -21.3949   23.2206  N     
10   O        -6.4120  -21.0644   21.9959  O     
11   N        -7.6659  -24.4650   25.1578  N     
12   C        -5.0361  -21.1352   22.4056  C     
13   C        -4.1022  -20.6591   21.2653  C     
14   C        -2.1718  -21.3148   19.0278  C     
15   C        -1.6703  -20.7806   20.3899  C     
16   C        -2.6368  -21.1195   21.5495  C     
17   C        -4.5842  -21.1873   19.8743  C     
18   C        -3.6102  -20.8285   18.7270  C     
19   C        -6.4863  -25.1608   25.2638  C     
20   C        -4.2803  -25.9093   24.4634  C     
21   C        -4.1279  -26.7639   25.5800  C     
22   C        -5.1667  -26.7937   26.5490  C     
23   C        -6.3319  -26.0133   26.3806  C     
24   C        -5.4434  -25.1363   24.2962  C     
25   C        -3.0503  -28.9660   26.9203  C     
26   S        -2.6385  -27.6771   25.7196  S     
27   O        -2.9530  -28.6033   24.4621  O     
28   H       -11.3219  -19.8197   21.9352  H     
29   H       -11.6728  -21.6666   23.5814  H     
30   H        -8.3865  -24.8134   25.7067  H     
31   H        -4.9041  -20.4931   23.2871  H     
32   H        -4.7612  -22.1690   22.6625  H     
33   H        -4.1216  -19.5542   21.2456  H     
34   H        -1.4949  -20.9838   18.2389  H     
35   H        -2.1547  -22.4110   19.0396  H     
36   H        -0.6850  -21.2103   20.6099  H     
37   H        -1.5570  -19.6969   20.3342  H     
38   H        -2.2694  -20.6394   22.4625  H     
39   H        -2.6115  -22.2003   21.7196  H     
40   H        -4.6901  -22.2710   19.9096  H     
41   H        -5.5598  -20.7664   19.6310  H     
42   H        -3.6080  -19.7443   18.5737  H     
43   H        -3.9633  -21.2919   17.8040  H     
44   H        -3.5506  -25.8613   23.7339  H     
45   H        -5.0790  -27.3863   27.3869  H     
46   H        -7.0690  -26.0786   27.0960  H     
47   H        -5.5464  -24.5958   23.4361  H     
48   H        -3.0024  -28.5530   27.9257  H     
49   H        -2.3060  -29.7705   26.8389  H     
50   H        -4.0374  -29.3919   26.7492  H     
@<TRIPOS>BOND
     1    1    4 1
     2    1    5 2
     3    1   10 1
     4    2    3 1
     5    2    4 2
     6    2   11 1
     7    3    6 2
     8    5    6 1
     9    5    8 1
    10    6    9 1
    11    7    8 2
    12    7    9 1
    13   10   12 1
    14   11   19 1
    15   12   13 1
    16   13   16 1
    17   13   17 1
    18   14   15 1
    19   14   18 1
    20   15   16 1
    21   17   18 1
    22   19   23 1
    23   19   24 2
    24   20   21 2
    25   20   24 1
    26   21   22 1
    27   21   26 1
    28   22   23 2
    29   25   26 1
    30   26   27 2
    31    7   28 1
    32    9   29 1
    33   11   30 1
    34   12   31 1
    35   12   32 1
    36   13   33 1
    37   14   34 1
    38   14   35 1
    39   15   36 1
    40   15   37 1
    41   16   38 1
    42   16   39 1
    43   17   40 1
    44   17   41 1
    45   18   42 1
    46   18   43 1
    47   20   44 1
    48   22   45 1
    49   23   46 1
    50   24   47 1
    51   25   48 1
    52   25   49 1
    53   25   50 1
@<TRIPOS>PROPERTY_DATA
  Total_Score	| 10.4835
  Crash		| -0.8801
  Polar		| 3.7288
  FragIndex	| 1
  FragRMSD	| 0.180

