@<TRIPOS>MOLECULE
BindingDB_5538
 49 52 0 0 0
SMALL
NO_CHARGES


@<TRIPOS>ATOM
1    C        -7.3042  -21.8025   22.8384  C     
2    C        -7.9734  -23.5324   24.3742  C     
3    N        -9.2757  -23.1190   24.3172  N     
4    N        -7.0281  -22.8786   23.6373  N     
5    C        -8.6453  -21.3867   22.7800  C     
6    C        -9.6063  -22.0628   23.5312  C     
7    C       -10.5613  -20.4576   22.4278  C     
8    N        -9.2558  -20.3999   22.0947  N     
9    N       -10.7775  -21.4574   23.3022  N     
10   O        -6.3729  -21.1701   22.0492  O     
11   N        -7.6713  -24.5823   25.1767  N     
12   C        -4.9813  -21.2952   22.4365  C     
13   C        -4.0302  -20.8356   21.2973  C     
14   C        -2.0806  -21.4095   19.0613  C     
15   C        -1.5943  -20.9195   20.4469  C     
16   C        -2.5729  -21.3140   21.5824  C     
17   C        -4.5066  -21.3543   19.9052  C     
18   C        -3.5332  -20.9524   18.7662  C     
19   C        -6.4729  -25.2110   25.4210  C     
20   C        -5.1549  -26.5050   27.0406  C     
21   C        -4.0518  -26.4865   26.1731  C     
22   C        -4.1513  -25.8906   24.8981  C     
23   C        -5.3674  -25.2637   24.5317  C     
24   C        -6.3579  -25.8873   26.6611  C     
25   C        -1.8422  -27.2556   24.2122  C     
26   S        -2.7786  -25.7616   23.8106  S     
27   H       -11.2801  -19.8381   22.0663  H     
28   H       -11.6288  -21.6931   23.6984  H     
29   H        -8.4106  -24.9086   25.7107  H     
30   H        -4.8107  -20.6814   23.3288  H     
31   H        -4.7282  -22.3342   22.6802  H     
32   H        -4.0343  -19.7393   21.2754  H     
33   H        -1.4141  -21.0134   18.2890  H     
34   H        -2.0272  -22.5023   19.0228  H     
35   H        -0.6109  -21.3460   20.6546  H     
36   H        -1.4970  -19.8338   20.4274  H     
37   H        -2.2235  -20.8707   22.5153  H     
38   H        -2.5596  -22.4010   21.7017  H     
39   H        -4.5945  -22.4446   19.9323  H     
40   H        -5.4949  -20.9470   19.6764  H     
41   H        -3.5520  -19.8662   18.6425  H     
42   H        -3.8694  -21.4006   17.8279  H     
43   H        -5.0698  -26.9523   27.9541  H     
44   H        -3.1701  -26.8805   26.4915  H     
45   H        -5.4488  -24.8287   23.6125  H     
46   H        -7.1403  -25.9035   27.3260  H     
47   H        -1.4743  -27.2319   25.2354  H     
48   H        -0.9815  -27.3086   23.5502  H     
49   H        -2.4606  -28.1405   24.0659  H     
@<TRIPOS>BOND
     1    1    4 1
     2    1    5 2
     3    1   10 1
     4    2    3 1
     5    2    4 2
     6    2   11 1
     7    3    6 2
     8    5    6 1
     9    5    8 1
    10    6    9 1
    11    7    8 2
    12    7    9 1
    13   10   12 1
    14   11   19 1
    15   12   13 1
    16   13   16 1
    17   13   17 1
    18   14   15 1
    19   14   18 1
    20   15   16 1
    21   17   18 1
    22   19   23 1
    23   19   24 2
    24   20   21 2
    25   20   24 1
    26   21   22 1
    27   22   23 2
    28   22   26 1
    29   25   26 1
    30    7   27 1
    31    9   28 1
    32   11   29 1
    33   12   30 1
    34   12   31 1
    35   13   32 1
    36   14   33 1
    37   14   34 1
    38   15   35 1
    39   15   36 1
    40   16   37 1
    41   16   38 1
    42   17   39 1
    43   17   40 1
    44   18   41 1
    45   18   42 1
    46   20   43 1
    47   21   44 1
    48   23   45 1
    49   24   46 1
    50   25   47 1
    51   25   48 1
    52   25   49 1
@<TRIPOS>PROPERTY_DATA
  Total_Score	| 9.2144
  Crash		| -0.9556
  Polar		| 2.6784
  FragIndex	| 1
  FragRMSD	| 0.347

