@<TRIPOS>MOLECULE
BindingDB_5547
 51 54 0 0 0
SMALL
NO_CHARGES


@<TRIPOS>ATOM
1    C        -7.4128  -21.7634   22.7315  C     
2    C        -8.1420  -23.3919   24.3557  C     
3    N        -9.4224  -22.9277   24.2899  N     
4    N        -7.1856  -22.8035   23.5806  N     
5    C        -8.7369  -21.3007   22.6643  C     
6    C        -9.7191  -21.9007   23.4524  C     
7    C       -10.6185  -20.3644   22.2137  C     
8    N        -9.3052  -20.3511   21.9089  N     
9    N       -10.8723  -21.2949   23.1483  N     
10   O        -6.4476  -21.2345   21.9139  O     
11   N        -7.8590  -24.4133   25.1931  N     
12   C        -5.0777  -21.3133   22.3788  C     
13   C        -4.0948  -20.8034   21.2872  C     
14   C        -2.0156  -21.3352   19.1628  C     
15   C        -1.6117  -20.8086   20.5586  C     
16   C        -2.6329  -21.2194   21.6449  C     
17   C        -4.4867  -21.2984   19.8562  C     
18   C        -3.4477  -20.8743   18.7877  C     
19   C        -6.6920  -25.1248   25.2657  C     
20   C        -4.7466  -26.2272   24.2543  C     
21   C        -4.3402  -26.7061   25.5187  C     
22   C        -5.1003  -26.3706   26.6572  C     
23   C        -6.2720  -25.6046   26.5278  C     
24   C        -5.9043  -25.4458   24.1337  C     
25   C        -2.7662  -28.6539   27.1677  C     
26   O        -3.0066  -28.7897   24.4427  O     
27   S        -2.9313  -27.7266   25.6253  S     
28   O        -1.6225  -26.8684   25.3440  O     
29   H       -11.3233  -19.7645   21.7720  H     
30   H       -11.7419  -21.5085   23.5119  H     
31   H        -8.5607  -24.6653   25.8111  H     
32   H        -4.9688  -20.6930   23.2810  H     
33   H        -4.8148  -22.3514   22.6330  H     
34   H        -4.1471  -19.7106   21.2896  H     
35   H        -1.3057  -20.9695   18.4195  H     
36   H        -1.9718  -22.4261   19.1587  H     
37   H        -0.6286  -21.2039   20.8218  H     
38   H        -1.5428  -19.7229   20.5290  H     
39   H        -2.3451  -20.7540   22.5926  H     
40   H        -2.5855  -22.3058   21.7779  H     
41   H        -4.5778  -22.3873   19.8551  H     
42   H        -5.4625  -20.8829   19.5797  H     
43   H        -3.4618  -19.7859   18.6811  H     
44   H        -3.7230  -21.3015   17.8212  H     
45   H        -4.2124  -26.4513   23.4115  H     
46   H        -4.8046  -26.6919   27.5853  H     
47   H        -6.8146  -25.3924   27.3746  H     
48   H        -6.1993  -25.1323   23.2090  H     
49   H        -2.6119  -27.9693   28.0050  H     
50   H        -1.9190  -29.3384   27.0874  H     
51   H        -3.6702  -29.2365   27.3482  H     
@<TRIPOS>BOND
     1    1    4 1
     2    1    5 2
     3    1   10 1
     4    2    3 1
     5    2    4 2
     6    2   11 1
     7    3    6 2
     8    5    6 1
     9    5    8 1
    10    6    9 1
    11    7    8 2
    12    7    9 1
    13   10   12 1
    14   11   19 1
    15   12   13 1
    16   13   16 1
    17   13   17 1
    18   14   15 1
    19   14   18 1
    20   15   16 1
    21   17   18 1
    22   19   23 1
    23   19   24 2
    24   20   21 2
    25   20   24 1
    26   21   22 1
    27   21   27 1
    28   22   23 2
    29   25   27 1
    30   26   27 2
    31   27   28 2
    32    7   29 1
    33    9   30 1
    34   11   31 1
    35   12   32 1
    36   12   33 1
    37   13   34 1
    38   14   35 1
    39   14   36 1
    40   15   37 1
    41   15   38 1
    42   16   39 1
    43   16   40 1
    44   17   41 1
    45   17   42 1
    46   18   43 1
    47   18   44 1
    48   20   45 1
    49   22   46 1
    50   23   47 1
    51   24   48 1
    52   25   49 1
    53   25   50 1
    54   25   51 1
@<TRIPOS>PROPERTY_DATA
  Total_Score	| 10.0406
  Crash		| -0.7971
  Polar		| 3.4624
  FragIndex	| 1
  FragRMSD	| 0.507

