@<TRIPOS>MOLECULE
BindingDB_24642
 43 45 0 0 0
SMALL
NO_CHARGES


@<TRIPOS>ATOM
1    C        28.6321    5.4562   65.1585  C     
2    C        27.3387    5.3423   64.5328  C     
3    C        26.9194    4.0172   64.8780  C     
4    N        28.8798    4.2685   65.7597  N     
5    N        27.8866    3.4570   65.5936  N     
6    C        29.4704    6.5640   65.1086  C     
7    O        28.9518    7.7230   64.4567  O     
8    N        30.6268    6.5572   65.7669  N     
9    C        31.4317    7.6219   65.7579  C     
10   C        32.7989    9.3829   64.7514  C     
11   C        31.8213    8.3735   64.6281  C     
12   C        31.9675    7.9372   67.0221  C     
13   C        32.9213    8.9390   67.1337  C     
14   C        33.3553    9.6700   66.0165  C     
15   F        34.2778   10.5815   66.1441  F     
16   N        26.4520    6.0361   63.7981  N     
17   C        26.5987    7.2723   63.1597  C     
18   O        27.8800    7.6878   63.3193  O     
19   C        25.6604    8.1031   62.4732  C     
20   C        24.4693    6.2045   61.2430  C     
21   C        25.1046    6.6896   59.9128  C     
22   C        26.4668    7.3871   60.1285  C     
23   C        26.3098    8.5689   61.1151  C     
24   C        24.2962    7.3676   62.2631  C     
25   H        26.0444    3.5399   64.6566  H     
26   H        27.9106    2.5639   65.9510  H     
27   H        30.7449    5.8262   66.4170  H     
28   H        33.1321    9.8942   63.9331  H     
29   H        31.4414    8.1616   63.6832  H     
30   H        31.6349    7.4181   67.8295  H     
31   H        33.3102    9.1207   68.0595  H     
32   H        25.5741    5.5730   63.7469  H     
33   H        25.5722    8.9851   63.1306  H     
34   H        23.4798    5.8038   61.0709  H     
35   H        25.0818    5.3760   61.6203  H     
36   H        25.2297    5.8389   59.2389  H     
37   H        24.4258    7.4031   59.4459  H     
38   H        27.2109    6.6604   60.4845  H     
39   H        26.8257    7.7989   59.1886  H     
40   H        25.6821    9.3421   60.7119  H     
41   H        27.3023    9.0280   61.2531  H     
42   H        23.9178    7.0108   63.2190  H     
43   H        23.6040    8.0994   61.9192  H     
@<TRIPOS>BOND
     1    1    2 1
     2    1    4 2
     3    1    6 1
     4    2    3 2
     5    2   16 1
     6    3    5 1
     7    4    5 1
     8    6    7 2
     9    6    8 am
    10    8    9 1
    11    9   11 2
    12    9   12 1
    13   10   11 1
    14   10   14 2
    15   12   13 2
    16   13   14 1
    17   14   15 1
    18   16   17 am
    19   17   18 2
    20   17   19 1
    21   19   23 1
    22   19   24 1
    23   20   21 1
    24   20   24 1
    25   21   22 1
    26   22   23 1
    27    3   25 1
    28    5   26 1
    29    8   27 1
    30   10   28 1
    31   11   29 1
    32   12   30 1
    33   13   31 1
    34   16   32 1
    35   19   33 1
    36   20   34 1
    37   20   35 1
    38   21   36 1
    39   21   37 1
    40   22   38 1
    41   22   39 1
    42   23   40 1
    43   23   41 1
    44   24   42 1
    45   24   43 1
@<TRIPOS>PROPERTY_DATA
  Total_Score	| 6.7702
  Crash		| -1.4856
  Polar		| 3.0452
  FragIndex	| 1
  FragRMSD	| 1.146

