@<TRIPOS>MOLECULE
BindingDB_24645
 37 39 0 0 0
SMALL
NO_CHARGES


@<TRIPOS>ATOM
1    C        28.4817    5.6052   65.1411  C     
2    C        27.0972    5.3716   64.6653  C     
3    C        26.8797    4.0355   64.8425  C     
4    N        28.8367    4.3478   65.7053  N     
5    N        27.8994    3.4825   65.4907  N     
6    C        29.4187    6.7994   64.9445  C     
7    O        28.5829    7.4505   64.0976  O     
8    N        30.6558    6.7433   65.6490  N     
9    N        26.0808    5.9598   63.9114  N     
10   C        26.3732    6.9054   63.0042  C     
11   O        27.3807    7.7822   63.2354  O     
12   C        25.3451    6.9628   61.9171  C     
13   C        23.1560    7.8470   61.5792  C     
14   C        23.5844    8.3578   60.3163  C     
15   C        24.7993    7.7364   59.7132  C     
16   C        23.9490    7.0553   62.3645  C     
17   C        25.6710    6.9470   60.4897  C     
18   F        23.2655    6.5080   63.4016  F     
19   F        26.8588    6.4796   60.0372  F     
20   C        32.0490    7.6004   65.8372  C     
21   C        31.7639    8.7307   66.9192  C     
22   C        31.5443    7.9990   68.2314  C     
23   C        32.5044    9.2158   68.2837  C     
24   H        26.0275    3.4511   64.6234  H     
25   H        27.8946    2.5376   65.6648  H     
26   H        30.6083    5.9403   66.2066  H     
27   H        25.1479    5.4866   63.9886  H     
28   H        22.1977    8.0400   61.9589  H     
29   H        23.0887    9.1730   59.8593  H     
30   H        25.1233    8.0157   58.7697  H     
31   H        32.8934    6.8651   66.2377  H     
32   H        32.4343    8.1694   64.8285  H     
33   H        30.8880    9.3474   66.6015  H     
34   H        30.6323    8.2015   68.8086  H     
35   H        32.1339    7.0333   68.2849  H     
36   H        33.4428    8.7760   68.8132  H     
37   H        32.0085    9.9783   68.9707  H     
@<TRIPOS>BOND
     1    1    2 1
     2    1    4 2
     3    1    6 1
     4    2    3 2
     5    2    9 1
     6    3    5 1
     7    4    5 1
     8    6    7 2
     9    6    8 am
    10    8   20 1
    11    9   10 am
    12   10   11 2
    13   10   12 1
    14   12   16 2
    15   12   17 1
    16   13   14 2
    17   13   16 1
    18   14   15 1
    19   15   17 2
    20   16   18 1
    21   17   19 1
    22   20   21 1
    23   21   22 1
    24   21   23 1
    25   22   23 1
    26    3   24 1
    27    5   25 1
    28    8   26 1
    29    9   27 1
    30   13   28 1
    31   14   29 1
    32   15   30 1
    33   20   31 1
    34   20   32 1
    35   21   33 1
    36   22   34 1
    37   22   35 1
    38   23   36 1
    39   23   37 1
@<TRIPOS>PROPERTY_DATA
  Total_Score	| 7.4074
  Crash		| -0.9164
  Polar		| 2.8581
  FragIndex	| 1
  FragRMSD	| 1.100

