@<TRIPOS>MOLECULE
BindingDB_24644
 37 39 0 0 0
SMALL
NO_CHARGES


@<TRIPOS>ATOM
1    C        28.5169    5.5985   65.0505  C     
2    C        27.2799    5.3619   64.4087  C     
3    C        26.9138    4.0899   64.8339  C     
4    N        28.8058    4.4853   65.7614  N     
5    N        27.8680    3.6103   65.6290  N     
6    C        29.3742    6.6934   65.0726  C     
7    O        29.0576    7.7049   64.4783  O     
8    N        30.4964    6.6937   65.7873  N     
9    C        31.4446    7.6835   65.8761  C     
10   C        32.8985    9.4116   64.9081  C     
11   C        31.9282    8.4028   64.7551  C     
12   C        32.0023    7.9638   67.1410  C     
13   C        32.9661    8.9803   67.2976  C     
14   C        33.4129    9.7112   66.1820  C     
15   F        34.3036   10.6534   66.3264  F     
16   N        26.3947    5.9706   63.5562  N     
17   C        26.5102    6.9363   62.6519  C     
18   O        27.5927    7.4565   62.4547  O     
19   C        25.4295    7.3351   61.8447  C     
20   C        24.5661    8.2907   59.7360  C     
21   C        23.2577    8.2580   60.2397  C     
22   C        23.0188    7.7536   61.5257  C     
23   C        25.6405    7.8366   60.5233  C     
24   C        24.0855    7.2891   62.3193  C     
25   F        26.8248    7.8804   59.9654  F     
26   F        23.7744    6.8732   63.5198  F     
27   H        26.0661    3.5772   64.5759  H     
28   H        27.8549    2.7302   66.0380  H     
29   H        30.6326    5.9302   66.3640  H     
30   H        33.2372    9.9188   64.0875  H     
31   H        31.5947    8.1814   63.8156  H     
32   H        31.6904    7.4444   67.9659  H     
33   H        33.3421    9.1824   68.2292  H     
34   H        25.5267    5.5398   63.5534  H     
35   H        24.7337    8.6480   58.7909  H     
36   H        22.4777    8.5958   59.6687  H     
37   H        22.0631    7.7463   61.8901  H     
@<TRIPOS>BOND
     1    1    2 1
     2    1    4 2
     3    1    6 1
     4    2    3 2
     5    2   16 1
     6    3    5 1
     7    4    5 1
     8    6    7 2
     9    6    8 am
    10    8    9 1
    11    9   11 2
    12    9   12 1
    13   10   11 1
    14   10   14 2
    15   12   13 2
    16   13   14 1
    17   14   15 1
    18   16   17 am
    19   17   18 2
    20   17   19 1
    21   19   23 2
    22   19   24 1
    23   20   21 2
    24   20   23 1
    25   21   22 1
    26   22   24 2
    27   23   25 1
    28   24   26 1
    29    3   27 1
    30    5   28 1
    31    8   29 1
    32   10   30 1
    33   11   31 1
    34   12   32 1
    35   13   33 1
    36   16   34 1
    37   20   35 1
    38   21   36 1
    39   22   37 1
@<TRIPOS>PROPERTY_DATA
  Total_Score	| 6.6702
  Crash		| -1.1227
  Polar		| 2.8817
  FragIndex	| 1
  FragRMSD	| 1.036

