@<TRIPOS>MOLECULE
BindingDB_24651
 43 45 0 0 0
SMALL
NO_CHARGES


@<TRIPOS>ATOM
1    C        28.4210    5.6296   65.2137  C     
2    C        27.2558    5.4009   64.4504  C     
3    C        26.9645    4.0616   64.6977  C     
4    N        28.7530    4.4695   65.8203  N     
5    N        27.8941    3.5578   65.5133  N     
6    C        29.1401    6.7856   65.4384  C     
7    O        28.6049    7.8387   65.1401  O     
8    N        26.4045    6.0610   63.5941  N     
9    C        26.4058    7.2297   62.9503  C     
10   O        27.2992    8.0623   63.0428  O     
11   C        25.3672    7.5320   62.0622  C     
12   C        22.9684    7.6548   61.5249  C     
13   C        23.2555    8.2908   60.3063  C     
14   C        24.5910    8.5272   59.9426  C     
15   C        24.0085    7.2654   62.3913  C     
16   C        25.6377    8.1535   60.8082  C     
17   F        23.6625    6.7223   63.5311  F     
18   F        26.8592    8.3854   60.3949  F     
19   C        32.9597    9.5346   65.4103  C     
20   C        31.8776    7.9080   67.6326  C     
21   C        32.0926    8.2809   65.1206  C     
22   C        31.1056    8.0065   66.2908  C     
23   N        30.3273    6.8155   66.0453  N     
24   C        32.7404    9.1750   67.8698  C     
25   N        33.6408    9.4460   66.7246  N     
26   F        22.2822    8.6555   59.5158  F     
27   H        26.1805    3.5280   64.3137  H     
28   H        27.9149    2.6388   65.8297  H     
29   H        25.6419    5.5105   63.3570  H     
30   H        21.9952    7.4876   61.7881  H     
31   H        24.7998    8.9772   59.0466  H     
32   H        33.7165    9.6416   64.6302  H     
33   H        32.3316   10.4292   65.3913  H     
34   H        31.1651    7.7998   68.4538  H     
35   H        32.5255    7.0287   67.6230  H     
36   H        31.5338    8.4381   64.1944  H     
37   H        32.7449    7.4147   64.9796  H     
38   H        30.4363    8.8689   66.3850  H     
39   H        30.7092    5.9671   66.3383  H     
40   H        32.0929   10.0407   68.0373  H     
41   H        33.3511    9.0345   68.7645  H     
42   H        34.3388    8.7013   66.6929  H     
43   H        34.1283   10.3281   66.8968  H     
@<TRIPOS>BOND
     1    1    2 1
     2    1    4 2
     3    1    6 1
     4    2    3 2
     5    2    8 1
     6    3    5 1
     7    4    5 1
     8    6    7 2
     9    6   23 am
    10    8    9 am
    11    9   10 2
    12    9   11 1
    13   11   15 2
    14   11   16 1
    15   12   13 2
    16   12   15 1
    17   13   14 1
    18   13   26 1
    19   14   16 2
    20   15   17 1
    21   16   18 1
    22   19   21 1
    23   19   25 1
    24   20   22 1
    25   20   24 1
    26   21   22 1
    27   22   23 1
    28   24   25 1
    29    3   27 1
    30    5   28 1
    31    8   29 1
    32   12   30 1
    33   14   31 1
    34   19   32 1
    35   19   33 1
    36   20   34 1
    37   20   35 1
    38   21   36 1
    39   21   37 1
    40   22   38 1
    41   23   39 1
    42   24   40 1
    43   24   41 1
    44   25   42 1
    45   25   43 1
@<TRIPOS>PROPERTY_DATA
  Total_Score	| 8.0654
  Crash		| -1.3297
  Polar		| 3.9273
  FragIndex	| 1
  FragRMSD	| 1.175

