@<TRIPOS>MOLECULE
BindingDB_24649
 43 45 0 0 0
SMALL
NO_CHARGES


@<TRIPOS>ATOM
1    C        28.5139    5.4375   64.9861  C     
2    C        27.2389    5.2296   64.4373  C     
3    C        26.8693    3.9618   64.8758  C     
4    N        28.8218    4.3376   65.7082  N     
5    N        27.8553    3.4879   65.6389  N     
6    C        29.3953    6.4984   64.7901  C     
7    O        29.0897    7.3859   64.0130  O     
8    N        26.5799    6.0870   63.5992  N     
9    C        25.3652    5.9817   63.0646  C     
10   O        24.6213    5.0735   63.4118  O     
11   C        24.9079    6.9177   62.1235  C     
12   C        25.3204    8.5099   60.2895  C     
13   C        23.9460    8.7678   60.1925  C     
14   C        23.0453    8.1132   61.0470  C     
15   C        25.8016    7.5950   61.2458  C     
16   C        23.5186    7.1987   62.0054  C     
17   F        27.0956    7.3703   61.2373  F     
18   F        22.6236    6.6540   62.7942  F     
19   C        31.1932    9.1600   66.9624  C     
20   C        30.8542    9.7336   64.5555  C     
21   C        31.6752    8.4845   64.1278  C     
22   C        32.1298    7.9874   66.5902  C     
23   C        31.7277    7.3697   65.2183  C     
24   N        30.5888    6.5013   65.3813  N     
25   N        31.1774   10.2099   65.9167  N     
26   H        26.0255    3.4333   64.6455  H     
27   H        27.8618    2.6085   66.0410  H     
28   H        27.0635    6.8846   63.3596  H     
29   H        25.9664    8.9865   59.6522  H     
30   H        23.6024    9.4234   59.4927  H     
31   H        22.0430    8.3030   60.9660  H     
32   H        30.1814    8.7757   67.1198  H     
33   H        31.5379    9.6142   67.8979  H     
34   H        31.0523   10.5445   63.8515  H     
35   H        29.7833    9.5253   64.5172  H     
36   H        31.2641    8.0593   63.2044  H     
37   H        32.7019    8.8185   63.9186  H     
38   H        33.1568    8.3646   66.5287  H     
39   H        32.1005    7.2249   67.3751  H     
40   H        32.5415    6.6957   64.9307  H     
41   H        30.7416    5.7627   65.9918  H     
42   H        30.4714   10.9094   66.1671  H     
43   H        32.0983   10.6613   65.8971  H     
@<TRIPOS>BOND
     1    1    2 1
     2    1    4 2
     3    1    6 1
     4    2    3 2
     5    2    8 1
     6    3    5 1
     7    4    5 1
     8    6    7 2
     9    6   24 am
    10    8    9 am
    11    9   10 2
    12    9   11 1
    13   11   15 2
    14   11   16 1
    15   12   13 2
    16   12   15 1
    17   13   14 1
    18   14   16 2
    19   15   17 1
    20   16   18 1
    21   19   22 1
    22   19   25 1
    23   20   21 1
    24   20   25 1
    25   21   23 1
    26   22   23 1
    27   23   24 1
    28    3   26 1
    29    5   27 1
    30    8   28 1
    31   12   29 1
    32   13   30 1
    33   14   31 1
    34   19   32 1
    35   19   33 1
    36   20   34 1
    37   20   35 1
    38   21   36 1
    39   21   37 1
    40   22   38 1
    41   22   39 1
    42   23   40 1
    43   24   41 1
    44   25   42 1
    45   25   43 1
@<TRIPOS>PROPERTY_DATA
  Total_Score	| 8.0279
  Crash		| -1.5134
  Polar		| 3.9829
  FragIndex	| 1
  FragRMSD	| 0.658

