@<TRIPOS>MOLECULE
BindingDB_24654
 43 45 0 0 0
SMALL
NO_CHARGES


@<TRIPOS>ATOM
1    C        28.3753    5.2975   65.2706  C     
2    C        27.2954    4.9988   64.3913  C     
3    C        27.0089    3.6804   64.5978  C     
4    N        28.6887    4.1158   65.9067  N     
5    N        27.8853    3.2335   65.5047  N     
6    C        29.1122    6.5323   65.4626  C     
7    O        28.5185    7.5922   64.5008  O     
8    N        26.4165    5.6286   63.3286  N     
9    C        26.2252    6.8733   63.1288  C     
10   O        27.1048    7.6645   63.9407  O     
11   C        25.3924    7.4553   62.0694  C     
12   C        25.0944    9.0255   60.3468  C     
13   C        23.7173    8.7038   60.3645  C     
14   C        23.2403    7.7557   61.2815  C     
15   C        25.9540    8.3771   61.1778  C     
16   C        23.9689    7.0801   62.1743  C     
17   C        32.5634    9.4440   65.1251  C     
18   C        31.4554    8.1154   67.5298  C     
19   C        31.7363    8.1357   64.9773  C     
20   C        30.7775    7.9806   66.2041  C     
21   N        30.1177    6.6533   66.2188  N     
22   C        32.2594    9.4317   67.5893  C     
23   N        33.2075    9.5306   66.4599  N     
24   Cl       27.6255    8.9109   60.9390  Cl    
25   Cl       23.2162    6.1005   63.3063  Cl    
26   H        26.2838    3.0101   64.2052  H     
27   H        27.9808    2.3389   65.8636  H     
28   H        25.8563    4.9117   62.9202  H     
29   H        25.4259    9.7205   59.6866  H     
30   H        23.0823    9.1763   59.7557  H     
31   H        22.2496    7.5453   61.3006  H     
32   H        33.3363    9.4827   64.3563  H     
33   H        31.9115   10.3140   64.9804  H     
34   H        30.7043    8.0994   68.3261  H     
35   H        32.1123    7.2471   67.6686  H     
36   H        31.1959    8.1735   64.0207  H     
37   H        32.4207    7.2818   64.9454  H     
38   H        30.0170    8.8050   66.1134  H     
39   H        30.5127    5.8778   66.5510  H     
40   H        31.5823   10.2912   67.5693  H     
41   H        32.8280    9.4721   68.5179  H     
42   H        33.8926    8.7804   66.5789  H     
43   H        33.7070   10.4201   66.5139  H     
@<TRIPOS>BOND
     1    1    2 1
     2    1    4 2
     3    1    6 1
     4    2    3 2
     5    2    8 1
     6    3    5 1
     7    4    5 1
     8    6    7 2
     9    6   21 am
    10    8    9 am
    11    9   10 2
    12    9   11 1
    13   11   15 2
    14   11   16 1
    15   12   13 2
    16   12   15 1
    17   13   14 1
    18   14   16 2
    19   15   24 1
    20   16   25 1
    21   17   19 1
    22   17   23 1
    23   18   20 1
    24   18   22 1
    25   19   20 1
    26   20   21 1
    27   22   23 1
    28    3   26 1
    29    5   27 1
    30    8   28 1
    31   12   29 1
    32   13   30 1
    33   14   31 1
    34   17   32 1
    35   17   33 1
    36   18   34 1
    37   18   35 1
    38   19   36 1
    39   19   37 1
    40   20   38 1
    41   21   39 1
    42   22   40 1
    43   22   41 1
    44   23   42 1
    45   23   43 1
@<TRIPOS>PROPERTY_DATA
  Total_Score	| 8.1805
  Crash		| -0.7741
  Polar		| 3.7041
  FragIndex	| 1
  FragRMSD	| 1.099

