@<TRIPOS>MOLECULE
BindingDB_24646
 43 45 0 0 0
SMALL
NO_CHARGES


@<TRIPOS>ATOM
1    C        28.4565    5.4564   65.1014  C     
2    C        27.3089    5.1409   64.3712  C     
3    C        27.0005    3.8226   64.7137  C     
4    N        28.7603    4.3683   65.8446  N     
5    N        27.8940    3.4288   65.6157  N     
6    C        29.1803    6.6470   65.1141  C     
7    O        28.8240    7.5571   64.3665  O     
8    N        30.1791    6.8271   65.9647  N     
9    N        26.6532    5.9609   63.4823  N     
10   C        25.4486    5.7981   62.9387  C     
11   O        24.7478    4.7988   63.1693  O     
12   C        24.9502    6.7371   62.0383  C     
13   C        23.0967    8.1359   61.2413  C     
14   C        23.8917    8.6268   60.1970  C     
15   C        25.2161    8.1641   60.0551  C     
16   C        23.6071    7.2044   62.1542  C     
17   C        25.7413    7.2340   60.9700  C     
18   F        22.8125    6.7537   63.0889  F     
19   F        26.9630    6.8041   60.7670  F     
20   C        30.8846    8.0639   66.1799  C     
21   C        32.5886    9.7480   65.2593  C     
22   C        33.3217    9.7639   66.6285  C     
23   C        32.3824    9.3588   67.8028  C     
24   C        31.6557    8.0153   67.5191  C     
25   C        31.8507    8.4037   65.0020  C     
26   H        26.2383    3.2451   64.3727  H     
27   H        27.8998    2.5356   66.0196  H     
28   H        30.4196    6.0822   66.5377  H     
29   H        27.1052    6.7893   63.2447  H     
30   H        22.1304    8.4603   61.3284  H     
31   H        23.5100    9.2969   59.5217  H     
32   H        25.7777    8.4859   59.2688  H     
33   H        30.1507    8.8712   66.2631  H     
34   H        31.8583   10.5702   65.2416  H     
35   H        33.3185    9.9270   64.4570  H     
36   H        34.1696    9.0762   66.5902  H     
37   H        33.7169   10.7684   66.8229  H     
38   H        32.9668    9.2753   68.7199  H     
39   H        31.6320   10.1393   67.9536  H     
40   H        30.9557    7.8170   68.3337  H     
41   H        32.3910    7.2026   67.5100  H     
42   H        32.5897    7.5971   64.8837  H     
43   H        31.3007    8.4925   64.0619  H     
@<TRIPOS>BOND
     1    1    2 1
     2    1    4 2
     3    1    6 1
     4    2    3 2
     5    2    9 1
     6    3    5 1
     7    4    5 1
     8    6    7 2
     9    6    8 am
    10    8   20 1
    11    9   10 am
    12   10   11 2
    13   10   12 1
    14   12   16 2
    15   12   17 1
    16   13   14 2
    17   13   16 1
    18   14   15 1
    19   15   17 2
    20   16   18 1
    21   17   19 1
    22   20   24 1
    23   20   25 1
    24   21   22 1
    25   21   25 1
    26   22   23 1
    27   23   24 1
    28    3   26 1
    29    5   27 1
    30    8   28 1
    31    9   29 1
    32   13   30 1
    33   14   31 1
    34   15   32 1
    35   20   33 1
    36   21   34 1
    37   21   35 1
    38   22   36 1
    39   22   37 1
    40   23   38 1
    41   23   39 1
    42   24   40 1
    43   24   41 1
    44   25   42 1
    45   25   43 1
@<TRIPOS>PROPERTY_DATA
  Total_Score	| 7.5712
  Crash		| -0.8817
  Polar		| 2.9595
  FragIndex	| 1
  FragRMSD	| 0.703

