@<TRIPOS>MOLECULE
BindingDB_24647
 44 46 0 0 0
SMALL
NO_CHARGES


@<TRIPOS>ATOM
1    C        28.3182    5.5731   65.0260  C     
2    C        27.0880    5.2594   64.4089  C     
3    C        26.8259    3.9494   64.7872  C     
4    N        28.7079    4.4610   65.6921  N     
5    N        27.8377    3.5206   65.5427  N     
6    C        29.0528    6.7535   65.1094  C     
7    O        28.6343    7.7749   64.5864  O     
8    N        26.1604    5.8749   63.6132  N     
9    C        26.3298    6.7471   62.6262  C     
10   O        27.4583    7.1348   62.3761  O     
11   C        25.2816    7.1938   61.8041  C     
12   C        22.9305    7.8550   61.4900  C     
13   C        23.1937    8.2664   60.1771  C     
14   C        24.4822    8.1116   59.6521  C     
15   C        23.9523    7.3110   62.2927  C     
16   C        25.5157    7.5870   60.4523  C     
17   F        23.6174    6.9639   63.5078  F     
18   F        26.6807    7.4497   59.8741  F     
19   C        32.3223    9.0516   68.0892  C     
20   C        33.2905    9.6151   67.0142  C     
21   C        32.5807    9.8154   65.6474  C     
22   C        31.8616    8.5258   65.1710  C     
23   C        31.5817    7.7816   67.5941  C     
24   O        33.8549   10.8468   67.4621  O     
25   C        30.8496    8.0198   66.2425  C     
26   N        30.1516    6.8209   65.8611  N     
27   H        26.0102    3.3877   64.5284  H     
28   H        27.8980    2.6320   65.9266  H     
29   H        25.2675    5.5057   63.6855  H     
30   H        21.9871    7.9652   61.8647  H     
31   H        22.4444    8.6574   59.6013  H     
32   H        24.6639    8.3856   58.6840  H     
33   H        32.8859    8.8109   68.9959  H     
34   H        31.5813    9.8140   68.3470  H     
35   H        34.1203    8.9212   66.8764  H     
36   H        31.8474   10.6199   65.7396  H     
37   H        33.3164   10.1129   64.8983  H     
38   H        31.3405    8.7470   64.2353  H     
39   H        32.6049    7.7482   64.9652  H     
40   H        32.3021    6.9712   67.4824  H     
41   H        30.8556    7.4810   68.3504  H     
42   H        33.0940   11.4392   67.6330  H     
43   H        30.0992    8.7996   66.4090  H     
44   H        30.4461    5.9991   66.2860  H     
@<TRIPOS>BOND
     1    1    2 1
     2    1    4 2
     3    1    6 1
     4    2    3 2
     5    2    8 1
     6    3    5 1
     7    4    5 1
     8    6    7 2
     9    6   26 am
    10    8    9 am
    11    9   10 2
    12    9   11 1
    13   11   15 2
    14   11   16 1
    15   12   13 2
    16   12   15 1
    17   13   14 1
    18   14   16 2
    19   15   17 1
    20   16   18 1
    21   19   20 1
    22   19   23 1
    23   20   21 1
    24   20   24 1
    25   21   22 1
    26   22   25 1
    27   23   25 1
    28   25   26 1
    29    3   27 1
    30    5   28 1
    31    8   29 1
    32   12   30 1
    33   13   31 1
    34   14   32 1
    35   19   33 1
    36   19   34 1
    37   20   35 1
    38   21   36 1
    39   21   37 1
    40   22   38 1
    41   22   39 1
    42   23   40 1
    43   23   41 1
    44   24   42 1
    45   25   43 1
    46   26   44 1
@<TRIPOS>PROPERTY_DATA
  Total_Score	| 7.5522
  Crash		| -1.3576
  Polar		| 2.9087
  FragIndex	| 1
  FragRMSD	| 1.191

