@<TRIPOS>MOLECULE
BindingDB_24650
 43 45 0 0 0
SMALL
NO_CHARGES


@<TRIPOS>ATOM
1    C        28.3431    5.4861   65.2583  C     
2    C        27.2013    5.1424   64.5132  C     
3    C        27.0014    3.7843   64.7419  C     
4    N        28.7521    4.3525   65.8784  N     
5    N        27.9660    3.3737   65.5756  N     
6    C        28.9579    6.7348   65.3244  C     
7    O        28.3769    7.7451   64.9217  O     
8    N        26.5463    5.9732   63.6601  N     
9    C        25.3977    5.8153   63.0213  C     
10   O        24.7135    4.8073   63.2165  O     
11   C        24.9428    6.7617   62.0964  C     
12   C        23.1364    8.1674   61.1746  C     
13   C        24.0017    8.6770   60.2008  C     
14   C        25.3310    8.2287   60.1508  C     
15   C        23.5947    7.2181   62.1079  C     
16   C        25.8006    7.2844   61.0842  C     
17   F        22.7338    6.8025   63.0027  F     
18   F        27.0341    6.8765   60.9338  F     
19   C        32.9693    9.2361   66.9295  C     
20   C        31.4288    8.6547   64.4657  C     
21   C        32.1771    7.9116   66.7627  C     
22   C        30.9438    8.1019   65.8435  C     
23   N        30.2104    6.8619   65.7659  N     
24   C        33.3541    9.8385   65.5550  C     
25   N        32.1885    9.9244   64.6416  N     
26   H        26.3146    3.1694   64.3188  H     
27   H        28.0804    2.4552   65.8707  H     
28   H        26.9890    6.8236   63.5038  H     
29   H        22.1671    8.4883   61.1976  H     
30   H        23.6619    9.3667   59.5188  H     
31   H        25.9506    8.5863   59.4163  H     
32   H        32.3548    9.9625   67.4739  H     
33   H        33.8719    9.0535   67.5166  H     
34   H        32.0654    7.9302   63.9511  H     
35   H        30.5576    8.8534   63.8253  H     
36   H        32.8321    7.1426   66.3379  H     
37   H        31.8498    7.5653   67.7517  H     
38   H        30.2877    8.8531   66.3014  H     
39   H        30.6555    6.0665   66.1115  H     
40   H        33.7541   10.8424   65.7048  H     
41   H        34.1295    9.2294   65.0800  H     
42   H        32.5228   10.2304   63.7267  H     
43   H        31.5547   10.6346   65.0178  H     
@<TRIPOS>BOND
     1    1    2 1
     2    1    4 2
     3    1    6 1
     4    2    3 2
     5    2    8 1
     6    3    5 1
     7    4    5 1
     8    6    7 2
     9    6   23 am
    10    8    9 am
    11    9   10 2
    12    9   11 1
    13   11   15 2
    14   11   16 1
    15   12   13 2
    16   12   15 1
    17   13   14 1
    18   14   16 2
    19   15   17 1
    20   16   18 1
    21   19   21 1
    22   19   24 1
    23   20   22 1
    24   20   25 1
    25   21   22 1
    26   22   23 1
    27   24   25 1
    28    3   26 1
    29    5   27 1
    30    8   28 1
    31   12   29 1
    32   13   30 1
    33   14   31 1
    34   19   32 1
    35   19   33 1
    36   20   34 1
    37   20   35 1
    38   21   36 1
    39   21   37 1
    40   22   38 1
    41   23   39 1
    42   24   40 1
    43   24   41 1
    44   25   42 1
    45   25   43 1
@<TRIPOS>PROPERTY_DATA
  Total_Score	| 8.4313
  Crash		| -1.5956
  Polar		| 4.7971
  FragIndex	| 1
  FragRMSD	| 0.768

