@<TRIPOS>MOLECULE
BindingDB_24641
 40 42 0 0 0
SMALL
NO_CHARGES


@<TRIPOS>ATOM
1    C        28.6847    5.5440   65.0721  C     
2    C        27.4225    5.3606   64.5094  C     
3    C        27.0175    4.0733   64.8603  C     
4    N        28.9795    4.3734   65.7097  N     
5    N        27.9963    3.5433   65.5924  N     
6    C        29.5244    6.6396   64.9595  C     
7    O        29.1970    7.5761   64.2174  O     
8    N        30.6323    6.7189   65.6910  N     
9    C        31.5480    7.7460   65.7979  C     
10   C        33.0354    9.0375   67.2711  C     
11   C        32.0683    8.0178   67.0829  C     
12   C        32.0459    8.4833   64.7004  C     
13   C        33.0122    9.4970   64.8833  C     
14   C        33.5021    9.7648   66.1670  C     
15   F        34.3848   10.7141   66.3228  F     
16   N        26.7218    6.3473   63.8923  N     
17   C        25.6916    6.2709   63.0706  C     
18   O        25.2816    5.2101   62.6150  O     
19   C        24.9278    7.4828   62.8274  C     
20   C        24.8753    7.9415   61.4167  C     
21   C        26.0120    8.7319   59.3933  C     
22   C        24.7684    9.0579   58.8171  C     
23   C        23.5800    8.8186   59.5218  C     
24   C        23.6338    8.2626   60.8140  C     
25   C        26.0639    8.1744   60.6875  C     
26   H        26.1178    3.6322   64.6624  H     
27   H        27.9616    2.6672   66.0258  H     
28   H        30.7739    5.9902   66.3132  H     
29   H        33.3632    9.2351   68.2134  H     
30   H        31.7267    7.4989   67.9046  H     
31   H        31.7192    8.2848   63.7523  H     
32   H        33.3523   10.0319   64.0789  H     
33   H        27.0003    7.2413   64.1391  H     
34   H        23.9259    7.3078   63.2271  H     
35   H        25.3393    8.3102   63.4067  H     
36   H        26.8745    8.9285   58.8835  H     
37   H        24.7330    9.4683   57.8817  H     
38   H        22.6800    9.0793   59.1093  H     
39   H        22.7600    8.1240   61.3234  H     
40   H        26.9764    7.9761   61.1062  H     
@<TRIPOS>BOND
     1    1    2 1
     2    1    4 2
     3    1    6 1
     4    2    3 2
     5    2   16 1
     6    3    5 1
     7    4    5 1
     8    6    7 2
     9    6    8 am
    10    8    9 1
    11    9   11 2
    12    9   12 1
    13   10   11 1
    14   10   14 2
    15   12   13 2
    16   13   14 1
    17   14   15 1
    18   16   17 am
    19   17   18 2
    20   17   19 1
    21   19   20 1
    22   20   24 2
    23   20   25 1
    24   21   22 1
    25   21   25 2
    26   22   23 2
    27   23   24 1
    28    3   26 1
    29    5   27 1
    30    8   28 1
    31   10   29 1
    32   11   30 1
    33   12   31 1
    34   13   32 1
    35   16   33 1
    36   19   34 1
    37   19   35 1
    38   21   36 1
    39   22   37 1
    40   23   38 1
    41   24   39 1
    42   25   40 1
@<TRIPOS>PROPERTY_DATA
  Total_Score	| 6.1505
  Crash		| -1.6046
  Polar		| 3.0540
  FragIndex	| 1
  FragRMSD	| 1.010

