@<TRIPOS>MOLECULE
BindingDB_24640
 31 32 0 0 0
SMALL
NO_CHARGES


@<TRIPOS>ATOM
1    C        28.4638    5.5830   65.1407  C     
2    C        27.1778    5.3590   64.6134  C     
3    C        26.8845    4.0422   64.9440  C     
4    N        28.8602    4.4212   65.7086  N     
5    N        27.9368    3.5289   65.5836  N     
6    C        29.2477    6.7259   65.1728  C     
7    O        28.7583    7.7832   64.8041  O     
8    N        30.4679    6.7058   65.7093  N     
9    C        31.3841    7.7238   65.7675  C     
10   C        32.9572    9.0176   67.1313  C     
11   C        31.9893    8.0018   67.0129  C     
12   C        31.8084    8.4522   64.6283  C     
13   C        32.7939    9.4501   64.7427  C     
14   C        33.3632    9.7440   65.9960  C     
15   F        34.2744   10.6726   66.1008  F     
16   N        26.2304    6.0624   63.9301  N     
17   C        26.3449    6.9796   62.9792  C     
18   O        27.4256    7.4123   62.5919  O     
19   C        25.1330    7.3651   62.2871  C     
20   O        25.2609    8.5391   61.4837  O     
21   H        26.0278    3.5305   64.7239  H     
22   H        27.9930    2.6131   65.9067  H     
23   H        30.7235    5.8866   66.1669  H     
24   H        33.3700    9.2221   68.0454  H     
25   H        31.7185    7.4713   67.8486  H     
26   H        31.4218    8.2441   63.7042  H     
27   H        33.0987    9.9592   63.9114  H     
28   H        25.3220    5.7336   64.0633  H     
29   H        24.8274    6.5417   61.6284  H     
30   H        24.3336    7.5264   63.0116  H     
31   H        25.5075    9.2484   62.1047  H     
@<TRIPOS>BOND
     1    1    2 1
     2    1    4 2
     3    1    6 1
     4    2    3 2
     5    2   16 1
     6    3    5 1
     7    4    5 1
     8    6    7 2
     9    6    8 am
    10    8    9 1
    11    9   11 2
    12    9   12 1
    13   10   11 1
    14   10   14 2
    15   12   13 2
    16   13   14 1
    17   14   15 1
    18   16   17 am
    19   17   18 2
    20   17   19 1
    21   19   20 1
    22    3   21 1
    23    5   22 1
    24    8   23 1
    25   10   24 1
    26   11   25 1
    27   12   26 1
    28   13   27 1
    29   16   28 1
    30   19   29 1
    31   19   30 1
    32   20   31 1
@<TRIPOS>PROPERTY_DATA
  Total_Score	| 4.7484
  Crash		| -0.7888
  Polar		| 3.0407
  FragIndex	| 1
  FragRMSD	| 1.060

