@<TRIPOS>MOLECULE
BindingDB_24648
 46 48 0 0 0
SMALL
NO_CHARGES


@<TRIPOS>ATOM
1    C        28.4371    5.5621   65.1881  C     
2    C        27.2795    5.3620   64.4099  C     
3    C        26.9589    4.0300   64.6538  C     
4    N        28.7433    4.4022   65.8042  N     
5    N        27.8652    3.5108   65.4891  N     
6    C        29.1922    6.6965   65.3482  C     
7    O        28.6590    7.7247   65.0103  O     
8    N        26.4827    6.0543   63.5242  N     
9    C        26.4144    7.2863   63.0062  C     
10   O        27.1213    8.2527   63.2685  O     
11   C        25.4049    7.5369   62.0730  C     
12   C        24.6956    8.4540   59.9031  C     
13   C        23.3506    8.2160   60.2294  C     
14   C        23.0239    7.6153   61.4556  C     
15   C        25.7176    8.1188   60.8139  C     
16   C        24.0403    7.2648   62.3675  C     
17   F        26.9532    8.3526   60.4465  F     
18   F        23.6714    6.7427   63.5106  F     
19   C        32.5118    9.3394   67.9161  C     
20   C        33.4640    9.7053   66.7407  C     
21   C        32.7595    9.6231   65.3567  C     
22   C        32.0371    8.2623   65.1585  C     
23   C        31.7699    7.9958   67.6797  C     
24   C        31.0284    7.9969   66.3160  C     
25   N        30.2885    6.7771   66.0973  N     
26   N        34.0278   11.0490   66.9450  N     
27   H        26.1717    3.5114   64.2572  H     
28   H        27.8667    2.5939   65.8079  H     
29   H        25.7982    5.4741   63.1574  H     
30   H        24.9260    8.8846   59.0037  H     
31   H        22.6083    8.4834   59.5754  H     
32   H        22.0420    7.4477   61.6865  H     
33   H        33.0900    9.2660   68.8417  H     
34   H        31.7712   10.1336   68.0453  H     
35   H        34.3018    9.0063   66.7438  H     
36   H        32.0275   10.4324   65.2709  H     
37   H        33.5008    9.7559   64.5638  H     
38   H        31.5148    8.2645   64.1988  H     
39   H        32.7772    7.4595   65.1269  H     
40   H        32.4863    7.1706   67.7138  H     
41   H        31.0430    7.8482   68.4827  H     
42   H        30.3158    8.8299   66.3596  H     
43   H        30.6300    5.9636   66.4967  H     
44   H        33.2720   11.7358   67.0069  H     
45   H        34.6397   11.2870   66.1602  H     
46   H        34.5691   11.0622   67.8128  H     
@<TRIPOS>BOND
     1    1    2 1
     2    1    4 2
     3    1    6 1
     4    2    3 2
     5    2    8 1
     6    3    5 1
     7    4    5 1
     8    6    7 2
     9    6   25 am
    10    8    9 am
    11    9   10 2
    12    9   11 1
    13   11   15 2
    14   11   16 1
    15   12   13 2
    16   12   15 1
    17   13   14 1
    18   14   16 2
    19   15   17 1
    20   16   18 1
    21   19   20 1
    22   19   23 1
    23   20   21 1
    24   20   26 1
    25   21   22 1
    26   22   24 1
    27   23   24 1
    28   24   25 1
    29    3   27 1
    30    5   28 1
    31    8   29 1
    32   12   30 1
    33   13   31 1
    34   14   32 1
    35   19   33 1
    36   19   34 1
    37   20   35 1
    38   21   36 1
    39   21   37 1
    40   22   38 1
    41   22   39 1
    42   23   40 1
    43   23   41 1
    44   24   42 1
    45   25   43 1
    46   26   44 1
    47   26   45 1
    48   26   46 1
@<TRIPOS>PROPERTY_DATA
  Total_Score	| 7.5884
  Crash		| -1.1863
  Polar		| 3.2491
  FragIndex	| 1
  FragRMSD	| 1.167

