@<TRIPOS>MOLECULE
BindingDB_24639
 30 31 0 0 0
SMALL
NO_CHARGES


@<TRIPOS>ATOM
1    C        28.4938    5.4700   65.2407  C     
2    C        27.2800    5.3137   64.5525  C     
3    C        26.9273    3.9924   64.8001  C     
4    N        28.8068    4.2899   65.8104  N     
5    N        27.8811    3.4303   65.5490  N     
6    C        29.2641    6.5943   65.4014  C     
7    O        28.6669    7.6524   65.4113  O     
8    N        30.5471    6.5576   65.7415  N     
9    C        31.3881    7.6335   65.7944  C     
10   C        32.7449    9.1929   67.1047  C     
11   C        31.8806    8.0827   67.0389  C     
12   C        31.8133    8.2849   64.6122  C     
13   C        32.6971    9.3784   64.6764  C     
14   C        33.1546    9.8431   65.9242  C     
15   F        33.9665   10.8635   65.9832  F     
16   N        26.4659    6.0599   63.7375  N     
17   C        26.5466    7.2530   63.1539  C     
18   C        25.4740    7.5803   62.2375  C     
19   O        27.4422    8.0827   63.2746  O     
20   H        26.0940    3.5095   64.4561  H     
21   H        27.8774    2.5075   65.8522  H     
22   H        30.9157    5.7028   65.9959  H     
23   H        33.0801    9.5208   68.0136  H     
24   H        31.5894    7.6190   67.9043  H     
25   H        31.5001    7.9484   63.6974  H     
26   H        33.0117    9.8291   63.8140  H     
27   H        25.6607    5.5815   63.4868  H     
28   H        25.6262    8.5532   61.7611  H     
29   H        24.5260    7.6096   62.7749  H     
30   H        25.4144    6.8256   61.4498  H     
@<TRIPOS>BOND
     1    1    2 1
     2    1    4 2
     3    1    6 1
     4    2    3 2
     5    2   16 1
     6    3    5 1
     7    4    5 1
     8    6    7 2
     9    6    8 am
    10    8    9 1
    11    9   11 2
    12    9   12 1
    13   10   11 1
    14   10   14 2
    15   12   13 2
    16   13   14 1
    17   14   15 1
    18   16   17 am
    19   17   18 1
    20   17   19 2
    21    3   20 1
    22    5   21 1
    23    8   22 1
    24   10   23 1
    25   11   24 1
    26   12   25 1
    27   13   26 1
    28   16   27 1
    29   18   28 1
    30   18   29 1
    31   18   30 1
@<TRIPOS>PROPERTY_DATA
  Total_Score	| 5.1921
  Crash		| -0.4639
  Polar		| 2.8911
  FragIndex	| 1
  FragRMSD	| 1.191

