@<TRIPOS>MOLECULE
BindingDB_24638
 25 26 0 0 0
SMALL
NO_CHARGES


@<TRIPOS>ATOM
1    C        28.6920    5.7457   65.1234  C     
2    C        27.4505    5.6087   64.5033  C     
3    C        27.0194    4.3263   64.7795  C     
4    N        28.9470    4.5641   65.7298  N     
5    N        27.9641    3.7452   65.5207  N     
6    C        29.5369    6.8495   65.1092  C     
7    N        26.7655    6.5020   63.7677  N     
8    O        29.1985    7.8491   64.4879  O     
9    N        30.6679    6.8537   65.8090  N     
10   C        31.6335    7.8310   65.8535  C     
11   C        33.0475    9.5563   64.8265  C     
12   C        32.0678    8.5518   64.7147  C     
13   C        32.2362    8.1181   67.0984  C     
14   C        33.2100    9.1299   67.2128  C     
15   C        33.6132    9.8622   66.0794  C     
16   F        34.5179   10.7926   66.1812  F     
17   H        26.1467    3.8903   64.4604  H     
18   H        27.9225    2.8239   65.8375  H     
19   H        25.9035    6.2568   63.3907  H     
20   H        27.1289    7.3866   63.6058  H     
21   H        30.8052    6.0942   66.3980  H     
22   H        33.3500   10.0578   63.9915  H     
23   H        31.6931    8.3314   63.7904  H     
24   H        31.9577    7.6069   67.9366  H     
25   H        33.6268    9.3370   68.1189  H     
@<TRIPOS>BOND
     1    1    2 1
     2    1    4 2
     3    1    6 1
     4    2    3 2
     5    2    7 1
     6    3    5 1
     7    4    5 1
     8    6    8 2
     9    6    9 am
    10    9   10 1
    11   10   12 2
    12   10   13 1
    13   11   12 1
    14   11   15 2
    15   13   14 2
    16   14   15 1
    17   15   16 1
    18    3   17 1
    19    5   18 1
    20    7   19 1
    21    7   20 1
    22    9   21 1
    23   11   22 1
    24   12   23 1
    25   13   24 1
    26   14   25 1
@<TRIPOS>PROPERTY_DATA
  Total_Score	| 4.4978
  Crash		| -0.3983
  Polar		| 2.8007
  FragIndex	| 1
  FragRMSD	| 0.448

