@<TRIPOS>MOLECULE
BindingDB_50079043
 24 24 0 0 0
SMALL
NO_CHARGES


@<TRIPOS>ATOM
1    C        -4.9551    2.5397   13.3801  C     
2    C        -5.8004    2.1179   15.6497  C     
3    S        -4.2118    1.8602   11.9508  S     
4    S        -6.1412    0.9247   16.8797  S     
5    C        -5.1659    3.9284   13.5613  C     
6    C        -6.0172    3.5075   15.8333  C     
7    C        -5.6991    4.4088   14.7846  C     
8    C        -5.2718    1.6560   14.4288  C     
9    O        -4.4528    0.2956   11.7759  O     
10   O        -4.7044    2.5783   10.6202  O     
11   O        -6.0227   -0.5765   16.3746  O     
12   O        -5.0976    1.0828   18.0652  O     
13   N        -2.5501    2.0783   12.0534  N     
14   N        -7.6813    1.0688   17.5254  N     
15   N        -4.8439    4.8032   12.5841  N     
16   Cl       -6.6360    4.1015   17.3073  Cl    
17   Cl       -5.9268    6.0829   14.9951  Cl    
18   H        -5.0984    0.6558   14.3049  H     
19   H        -2.0939    1.8625   12.8808  H     
20   H        -2.0777    2.5532   11.3515  H     
21   H        -8.4497    1.0870   16.9332  H     
22   H        -7.7945    1.1843   18.4795  H     
23   H        -4.9839    5.7532   12.7159  H     
24   H        -4.4627    4.4968   11.7493  H     
@<TRIPOS>BOND
     1    1    3 1
     2    1    5 1
     3    1    8 2
     4    2    4 1
     5    2    6 2
     6    2    8 1
     7    3    9 2
     8    3   10 2
     9    3   13 am
    10    4   11 2
    11    4   12 2
    12    4   14 am
    13    5    7 2
    14    5   15 1
    15    6    7 1
    16    6   16 1
    17    7   17 1
    18    8   18 1
    19   13   19 1
    20   13   20 1
    21   14   21 1
    22   14   22 1
    23   15   23 1
    24   15   24 1
@<TRIPOS>PROPERTY_DATA
  Total_Score	| 5.5745
  Crash		| -1.8223
  Polar		| 4.9518
  FragIndex	| 1
  FragRMSD	| 0.965

