@<TRIPOS>MOLECULE
BindingDB_12161
 22 22 0 0 0
SMALL
NO_CHARGES


@<TRIPOS>ATOM
1    C        -5.8044    3.0992   16.0739  C     
2    C        -5.0464    2.2904   13.4452  C     
3    C        -5.2226    1.3364   14.4601  C     
4    C        -5.5861    1.7406   15.7567  C     
5    C        -5.6034    4.0695   15.0431  C     
6    C        -5.2191    3.6548   13.7478  C     
7    O        -4.7800    2.9191   10.7562  O     
8    O        -3.1649    1.2115   11.6800  O     
9    S        -4.6513    1.7551   11.8312  S     
10   N        -5.6281    0.5213   11.2480  N     
11   N        -6.2082    3.3466   17.3501  N     
12   N        -6.6565    4.5175   17.8359  N     
13   Cl       -5.7348    5.7401   15.2980  Cl    
14   H        -5.1130    0.3399   14.2574  H     
15   H        -5.7130    1.0155   16.4722  H     
16   H        -5.0695    4.3536   13.0126  H     
17   H        -6.2207    0.7067   10.5023  H     
18   H        -5.4247   -0.4008   11.4769  H     
19   H        -6.1938    2.5915   17.9729  H     
20   H        -5.9536    5.2361   17.7053  H     
21   H        -6.8414    4.4175   18.8527  H     
22   H        -7.5250    4.7743   17.3660  H     
@<TRIPOS>BOND
     1    1    4 2
     2    1    5 1
     3    1   11 1
     4    2    3 2
     5    2    6 1
     6    2    9 1
     7    3    4 1
     8    5    6 2
     9    5   13 1
    10    7    9 2
    11    8    9 2
    12    9   10 am
    13   11   12 1
    14    3   14 1
    15    4   15 1
    16    6   16 1
    17   10   17 1
    18   10   18 1
    19   11   19 1
    20   12   20 1
    21   12   21 1
    22   12   22 1
@<TRIPOS>PROPERTY_DATA
  Total_Score	| 5.4447
  Crash		| -0.5836
  Polar		| 2.7620
  FragIndex	| 1
  FragRMSD	| 1.192

