@<TRIPOS>MOLECULE
BindingDB_10863
 19 19 0 0 0
SMALL
NO_CHARGES


@<TRIPOS>ATOM
1    C        -5.7735    2.1057   15.6183  C     
2    C        -5.3668    1.6501   14.3488  C     
3    C        -5.1218    2.5754   13.3209  C     
4    C        -5.2735    3.9573   13.5489  C     
5    C        -5.6562    4.4102   14.8287  C     
6    C        -5.9120    3.4866   15.8561  C     
7    O        -6.1847   -0.5230   16.3965  O     
8    O        -4.9962    1.1396   18.0318  O     
9    S        -6.1066    0.9832   16.9032  S     
10   N        -7.5921    1.3353   17.6066  N     
11   N        -5.0472    4.8137   12.5365  N     
12   Cl       -5.8188    6.0556   15.1846  Cl    
13   H        -5.2567    0.6485   14.1592  H     
14   H        -4.8389    2.2303   12.3991  H     
15   H        -6.1966    3.8181   16.7830  H     
16   H        -7.8157    0.9451   18.4803  H     
17   H        -8.1559    2.0284   17.2183  H     
18   H        -5.1572    5.7667   12.6717  H     
19   H        -4.7838    4.4768   11.6654  H     
@<TRIPOS>BOND
     1    1    2 1
     2    1    6 2
     3    1    9 1
     4    2    3 2
     5    3    4 1
     6    4    5 2
     7    4   11 1
     8    5    6 1
     9    5   12 1
    10    7    9 2
    11    8    9 2
    12    9   10 am
    13    2   13 1
    14    3   14 1
    15    6   15 1
    16   10   16 1
    17   10   17 1
    18   11   18 1
    19   11   19 1
@<TRIPOS>PROPERTY_DATA
  Total_Score	| 3.3585
  Crash		| -1.1707
  Polar		| 2.7203
  FragIndex	| 1
  FragRMSD	| 1.162

