@<TRIPOS>MOLECULE
BindingDB_10883
 22 22 0 0 0
SMALL
NO_CHARGES


@<TRIPOS>ATOM
1    C        -4.9080    2.5762   13.3583  C     
2    C        -5.1270    3.9494   13.5608  C     
3    C        -5.6622    4.4239   14.7784  C     
4    C        -5.9798    3.5107   15.8139  C     
5    C        -5.7277    2.1218   15.6220  C     
6    C        -5.2207    1.6750   14.3830  C     
7    Cl       -5.8857    6.1050   14.9281  Cl    
8    Cl       -6.6021    4.1133   17.2911  Cl    
9    S        -4.1740    1.9814   11.8941  S     
10   O        -4.6213    0.4927   11.5652  O     
11   O        -4.5688    2.9321   10.6809  O     
12   S        -6.0990    0.9326   16.8561  S     
13   O        -5.9411   -0.5317   16.2796  O     
14   O        -5.1394    1.0803   18.1104  O     
15   N        -7.7084    1.0141   17.3047  N     
16   N        -2.5066    2.0415   12.0738  N     
17   H        -4.9039    4.6145   12.8119  H     
18   H        -5.0288    0.6770   14.2582  H     
19   H        -8.1721    0.1819   17.4956  H     
20   H        -8.2241    1.8135   17.0864  H     
21   H        -1.9350    2.1932   11.2982  H     
22   H        -2.1130    1.9258   12.9600  H     
@<TRIPOS>BOND
     1    1    2 1
     2    1    6 2
     3    1    9 1
     4    2    3 2
     5    3    4 1
     6    3    7 1
     7    4    5 2
     8    4    8 1
     9    5    6 1
    10    5   12 1
    11    9   10 2
    12    9   11 2
    13    9   16 am
    14   12   13 2
    15   12   14 2
    16   12   15 am
    17    2   17 1
    18    6   18 1
    19   15   19 1
    20   15   20 1
    21   16   21 1
    22   16   22 1
@<TRIPOS>PROPERTY_DATA
  Total_Score	| 5.6991
  Crash		| -1.4994
  Polar		| 4.8963
  FragIndex	| 1
  FragRMSD	| 0.976

