@<TRIPOS>MOLECULE
BindingDB_11374
 18 18 0 0 0
SMALL
NO_CHARGES


@<TRIPOS>ATOM
1    O        -2.9346    1.5702   11.9904  O     
2    S        -4.5154    1.7016   11.9633  S     
3    O        -4.8957    2.6219   10.7260  O     
4    N        -5.1136    0.1543   11.7040  N     
5    O        -5.3857   -0.3081   10.5141  O     
6    C        -5.1168    2.4022   13.4436  C     
7    C        -5.4773    3.7688   13.5038  C     
8    C        -5.9756    4.3256   14.6989  C     
9    C        -6.1154    3.5232   15.8442  C     
10   C        -5.7555    2.1615   15.7915  C     
11   C        -5.2540    1.6039   14.5978  C     
12   Cl       -6.7210    4.1910   17.2834  Cl    
13   H        -5.1311   -0.4655   12.4609  H     
14   H        -5.9813    0.3471   10.0898  H     
15   H        -5.3895    4.3750   12.6893  H     
16   H        -6.2381    5.3103   14.7206  H     
17   H        -5.8521    1.5731   16.6231  H     
18   H        -4.9941    0.6189   14.5870  H     
@<TRIPOS>BOND
     1    1    2 2
     2    2    3 2
     3    2    4 1
     4    2    6 1
     5    4    5 1
     6    6    7 1
     7    6   11 2
     8    7    8 2
     9    8    9 1
    10    9   10 2
    11    9   12 1
    12   10   11 1
    13    4   13 1
    14    5   14 1
    15    7   15 1
    16    8   16 1
    17   10   17 1
    18   11   18 1
@<TRIPOS>PROPERTY_DATA
  Total_Score	| 3.4687
  Crash		| -0.2159
  Polar		| 2.3464
  FragIndex	| 1
  FragRMSD	| 1.149

