@<TRIPOS>MOLECULE
BindingDB_50025093
 17 17 0 0 0
SMALL
NO_CHARGES


@<TRIPOS>ATOM
1    S        -4.4758    1.7730   12.0689  S     
2    C        -5.1684    2.4488   13.5179  C     
3    O        -4.9453    0.2760   11.8081  O     
4    O        -4.9100    2.6422   10.8086  O     
5    N        -2.7978    1.8340   12.1295  N     
6    C        -5.4561    3.8282   13.6066  C     
7    C        -5.4051    1.6213   14.6370  C     
8    C        -6.2100    3.5412   15.9106  C     
9    C        -5.9751    4.3715   14.7971  C     
10   C        -5.9260    2.1642   15.8265  C     
11   Cl       -6.8209    4.1974   17.3462  Cl    
12   H        -2.3088    2.2805   11.4206  H     
13   H        -2.3394    1.6038   12.9529  H     
14   H        -5.2854    4.4478   12.8110  H     
15   H        -5.1972    0.6203   14.5975  H     
16   H        -6.1757    5.3733   14.8491  H     
17   H        -6.0917    1.5530   16.6297  H     
@<TRIPOS>BOND
     1    1    2 1
     2    1    3 2
     3    1    4 2
     4    1    5 am
     5    2    6 1
     6    2    7 2
     7    6    9 2
     8    7   10 1
     9    8    9 1
    10    8   10 2
    11    8   11 1
    12    5   12 1
    13    5   13 1
    14    6   14 1
    15    7   15 1
    16    9   16 1
    17   10   17 1
@<TRIPOS>PROPERTY_DATA
  Total_Score	| 3.1967
  Crash		| -0.1277
  Polar		| 2.2174
  FragIndex	| 1
  FragRMSD	| 0.151

