@<TRIPOS>MOLECULE
BindingDB_10867
 24 24 0 0 0
SMALL
NO_CHARGES


@<TRIPOS>ATOM
1    C        -5.8710    2.2048   15.6629  C     
2    C        -6.1609    3.5849   15.8010  C     
3    C        -5.8964    4.4613   14.7303  C     
4    C        -5.3342    3.9903   13.5261  C     
5    C        -5.0481    2.6107   13.3771  C     
6    C        -5.3174    1.7376   14.4516  C     
7    O        -6.2401   -0.4576   16.4201  O     
8    N        -5.0728    4.8992   12.5663  N     
9    S        -6.1513    1.0412   16.9342  S     
10   O        -4.9351    1.1078   17.9538  O     
11   N        -7.5445    1.3267   17.8154  N     
12   S        -4.3061    1.9340   11.9457  S     
13   O        -4.7031    0.4138   11.6937  O     
14   O        -4.7563    2.7513   10.6581  O     
15   N        -2.6329    2.0531   12.0432  N     
16   Cl       -6.7980    4.2660   17.2212  Cl    
17   H        -6.1011    5.4599   14.8342  H     
18   H        -5.0930    0.7441   14.3538  H     
19   H        -4.6634    4.6342   11.7297  H     
20   H        -5.2803    5.8351   12.7184  H     
21   H        -7.4861    1.4178   18.7794  H     
22   H        -8.3387    1.6341   17.3470  H     
23   H        -2.1212    2.3327   11.2636  H     
24   H        -2.1743    1.7750   12.8552  H     
@<TRIPOS>BOND
     1    1    2 1
     2    1    6 2
     3    1    9 1
     4    2    3 2
     5    2   16 1
     6    3    4 1
     7    4    5 2
     8    4    8 1
     9    5    6 1
    10    5   12 1
    11    7    9 2
    12    9   10 2
    13    9   11 am
    14   12   13 2
    15   12   14 2
    16   12   15 am
    17    3   17 1
    18    6   18 1
    19    8   19 1
    20    8   20 1
    21   11   21 1
    22   11   22 1
    23   15   23 1
    24   15   24 1
@<TRIPOS>PROPERTY_DATA
  Total_Score	| 6.1279
  Crash		| -1.5257
  Polar		| 5.1499
  FragIndex	| 1
  FragRMSD	| 0.999

