@<TRIPOS>MOLECULE
BindingDB_11608
 19 19 0 0 0
SMALL
NO_CHARGES


@<TRIPOS>ATOM
1    C        -5.2548    3.9975   13.5908  C     
2    C        -5.7022    4.4323   14.8623  C     
3    C        -5.9621    3.4907   15.8771  C     
4    C        -5.7634    2.1159   15.6430  C     
5    C        -5.2905    1.6859   14.3872  C     
6    C        -5.0467    2.6174   13.3583  C     
7    N        -5.0238    4.8901   12.6069  N     
8    N        -7.5342    1.3622   17.7015  N     
9    S        -6.1126    0.9715   16.9057  S     
10   O        -6.2323   -0.5245   16.3924  O     
11   O        -4.9446    1.0733   17.9767  O     
12   Cl       -5.9378    6.0722   15.2235  Cl    
13   Cl       -4.5064    2.0336   11.8574  Cl    
14   H        -6.2937    3.8082   16.7928  H     
15   H        -5.1275    0.6916   14.2105  H     
16   H        -4.7222    4.5855   11.7363  H     
17   H        -5.1538    5.8387   12.7647  H     
18   H        -7.6117    1.1732   18.6549  H     
19   H        -8.1987    1.9145   17.2578  H     
@<TRIPOS>BOND
     1    1    2 2
     2    1    6 1
     3    1    7 1
     4    2    3 1
     5    2   12 1
     6    3    4 2
     7    4    5 1
     8    4    9 1
     9    5    6 2
    10    6   13 1
    11    8    9 am
    12    9   10 2
    13    9   11 2
    14    3   14 1
    15    5   15 1
    16    7   16 1
    17    7   17 1
    18    8   18 1
    19    8   19 1
@<TRIPOS>PROPERTY_DATA
  Total_Score	| 3.6441
  Crash		| -1.0406
  Polar		| 2.7105
  FragIndex	| 1
  FragRMSD	| 1.162

