@<TRIPOS>MOLECULE
BindingDB_50165270
 51 53 0 0 0
SMALL
NO_CHARGES


@<TRIPOS>ATOM
1    C         0.7116    9.8706   26.1749  C     
2    C        -0.1363   10.4882   25.2652  C     
3    N         0.5539   10.8138   24.1813  N     
4    N         1.9357    9.8091   25.6114  N     
5    C         1.8214   10.4117   24.4015  C     
6    N         0.2513    9.4705   27.3842  N     
7    N        -1.9198   10.2358   26.8138  N     
8    C        -1.4931   10.6642   25.5982  C     
9    C        -1.0635    9.6562   27.7066  C     
10   C         6.2296   13.1931   24.3318  C     
11   C         6.3887   12.0668   23.4949  C     
12   C         4.9582   13.4819   24.8778  C     
13   C         2.8567   10.6382   23.3590  C     
14   C         3.9977   11.5288   23.7435  C     
15   C         2.6285    7.1683   23.9474  C     
16   C         1.7942    7.2214   23.0925  C     
17   C         3.8585   12.6440   24.5816  C     
18   C         5.2792   11.2798   23.1646  C     
19   N        -2.3375   11.2237   24.7224  N     
20   F        -1.5082    9.2740   28.8706  F     
21   C         3.0972    9.2767   26.2642  C     
22   O         7.3269   13.9122   24.7215  O     
23   O         7.6244   11.7808   22.9578  O     
24   O         4.8268   14.4663   25.8128  O     
25   C         3.5978    7.0901   24.9104  C     
26   C         7.5815   15.1201   23.9857  C     
27   C         4.1341   15.6515   25.3821  C     
28   C         7.9918   10.3856   22.8554  C     
29   C         3.1801    7.7241   26.2662  C     
30   H         3.2292    9.6480   23.0739  H     
31   H         2.3963   11.0819   22.4663  H     
32   H         1.1419    7.2855   22.4491  H     
33   H         2.9485   12.8403   25.0164  H     
34   H         5.3790   10.5067   22.4851  H     
35   H        -3.2787   11.3258   24.9332  H     
36   H        -2.0118   11.5201   23.8580  H     
37   H         4.0165    9.6711   25.8348  H     
38   H         3.0799    9.6104   27.3031  H     
39   H         3.8192    6.0294   25.0715  H     
40   H         4.5109    7.5623   24.5397  H     
41   H         7.7503   14.9197   22.9225  H     
42   H         8.4885   15.5759   24.3919  H     
43   H         6.7643   15.8390   24.0896  H     
44   H         4.6580   16.1459   24.5596  H     
45   H         4.0920   16.3438   26.2296  H     
46   H         3.1086   15.4253   25.0711  H     
47   H         7.9244    9.8751   23.8301  H     
48   H         9.0354   10.3374   22.4975  H     
49   H         7.3687    9.8652   22.1132  H     
50   H         3.9468    7.4459   26.9926  H     
51   H         2.2403    7.2829   26.6195  H     
@<TRIPOS>BOND
     1    1    2 1
     2    1    4 1
     3    1    6 2
     4    2    3 1
     5    2    8 2
     6    3    5 2
     7    4    5 1
     8    4   21 1
     9    5   13 1
    10    6    9 1
    11    7    8 1
    12    7    9 2
    13    8   19 1
    14    9   20 1
    15   10   11 1
    16   10   12 2
    17   10   22 1
    18   11   18 2
    19   11   23 1
    20   12   17 1
    21   12   24 1
    22   13   14 1
    23   14   17 2
    24   14   18 1
    25   15   16 3
    26   15   25 1
    27   21   29 1
    28   22   26 1
    29   23   28 1
    30   24   27 1
    31   25   29 1
    32   13   30 1
    33   13   31 1
    34   16   32 1
    35   17   33 1
    36   18   34 1
    37   19   35 1
    38   19   36 1
    39   21   37 1
    40   21   38 1
    41   25   39 1
    42   25   40 1
    43   26   41 1
    44   26   42 1
    45   26   43 1
    46   27   44 1
    47   27   45 1
    48   27   46 1
    49   28   47 1
    50   28   48 1
    51   28   49 1
    52   29   50 1
    53   29   51 1
@<TRIPOS>PROPERTY_DATA
  Total_Score	| 8.3242
  Crash		| -0.7489
  Polar		| 1.4649
  FragIndex	| 1
  FragRMSD	| 0.248

