@<TRIPOS>MOLECULE
BindingDB_50165297
 51 53 0 0 0
SMALL
NO_CHARGES


@<TRIPOS>ATOM
1    N        -1.9359   10.2836   26.8521  N     
2    C        -1.0768    9.7310   27.7626  C     
3    N         0.2307    9.5349   27.4406  N     
4    C        -1.5166   10.6576   25.6136  C     
5    N        -2.3736   11.1724   24.7182  N     
6    C        -0.1659   10.4684   25.2855  C     
7    C         0.6965    9.8945   26.2139  C     
8    N         1.9086    9.7995   25.6375  N     
9    C         1.7889   10.3508   24.3975  C     
10   N         0.5217   10.7427   24.1801  N     
11   C         3.0866    9.2548   26.2646  C     
12   C         3.2404    7.7098   26.1676  C     
13   C         3.2467    7.1344   24.7221  C     
14   C         2.0433    7.2549   24.0794  C     
15   C         0.9868    7.3644   23.5268  C     
16   C         2.8217   10.5736   23.3581  C     
17   C         3.9262   11.4964   23.7478  C     
18   C         5.2042   11.3289   23.1723  C     
19   C         6.2871   12.1470   23.5498  C     
20   C         6.0851   13.2104   24.4563  C     
21   C         4.8009   13.4289   25.0054  C     
22   C         3.7409   12.5629   24.6576  C     
23   O         7.1441   13.9607   24.8843  O     
24   C         7.4608   15.0735   24.0280  C     
25   O         7.5230   11.8775   23.0307  O     
26   C         7.9637   10.5325   23.2992  C     
27   O         4.6219   14.4004   25.9556  O     
28   C         3.9692   15.5927   25.4812  C     
29   H        -1.4259    9.4612   28.6849  H     
30   H        -2.0642   11.3833   23.8217  H     
31   H        -3.3114   11.2903   24.9397  H     
32   H         3.9887    9.7013   25.8433  H     
33   H         3.0667    9.5251   27.3229  H     
34   H         4.1966    7.4509   26.6347  H     
35   H         2.4661    7.2231   26.7719  H     
36   H         4.0073    7.6364   24.1201  H     
37   H         3.4983    6.0719   24.7592  H     
38   H         0.1735    7.4521   23.1024  H     
39   H         3.2116    9.5947   23.0706  H     
40   H         2.3574   11.0089   22.4697  H     
41   H         5.3649   10.5830   22.4901  H     
42   H         2.8254   12.7105   25.0910  H     
43   H         7.7124   14.7436   23.0177  H     
44   H         8.3316   15.5824   24.4420  H     
45   H         6.6369   15.7894   23.9834  H     
46   H         8.2027   10.4140   24.3575  H     
47   H         8.8677   10.3501   22.7192  H     
48   H         7.2237    9.7822   23.0056  H     
49   H         4.5435   16.0764   24.6885  H     
50   H         3.8862   16.2895   26.3155  H     
51   H         2.9603   15.3839   25.1198  H     
@<TRIPOS>BOND
     1    1    2 2
     2    1    4 1
     3    2    3 1
     4    3    7 2
     5    4    5 1
     6    4    6 2
     7    6    7 1
     8    6   10 1
     9    7    8 1
    10    8    9 1
    11    8   11 1
    12    9   10 2
    13    9   16 1
    14   11   12 1
    15   12   13 1
    16   13   14 1
    17   14   15 3
    18   16   17 1
    19   17   18 2
    20   17   22 1
    21   18   19 1
    22   19   20 2
    23   19   25 1
    24   20   21 1
    25   20   23 1
    26   21   22 2
    27   21   27 1
    28   23   24 1
    29   25   26 1
    30   27   28 1
    31    2   29 1
    32    5   30 1
    33    5   31 1
    34   11   32 1
    35   11   33 1
    36   12   34 1
    37   12   35 1
    38   13   36 1
    39   13   37 1
    40   15   38 1
    41   16   39 1
    42   16   40 1
    43   18   41 1
    44   22   42 1
    45   24   43 1
    46   24   44 1
    47   24   45 1
    48   26   46 1
    49   26   47 1
    50   26   48 1
    51   28   49 1
    52   28   50 1
    53   28   51 1
@<TRIPOS>PROPERTY_DATA
  Total_Score	| 8.2616
  Crash		| -0.7750
  Polar		| 1.3660
  FragIndex	| 1
  FragRMSD	| 0.281

