@<TRIPOS>MOLECULE
BindingDB_50165283
 56 58 0 0 0
SMALL
NO_CHARGES


@<TRIPOS>ATOM
1    N         0.5556   10.8734   24.2212  N     
2    C        -0.1561   10.5484   25.2973  C     
3    C         1.8190   10.4722   24.4251  C     
4    N         1.9060    9.8702   25.6441  N     
5    C         0.6851    9.9282   26.2060  C     
6    C        -1.5227   10.6947   25.5985  C     
7    N         0.2045    9.4959   27.4028  N     
8    C         6.2382   13.2009   24.3529  C     
9    N        -1.9557   10.2376   26.8078  N     
10   C         6.3837   12.0985   23.4801  C     
11   C         4.9736   13.5134   24.8982  C     
12   C         2.8425   10.6899   23.3884  C     
13   C         3.9823   11.5701   23.7419  C     
14   C        -1.1140    9.6598   27.7089  C     
15   C         5.2435   11.3228   23.1491  C     
16   C         3.8594   12.7032   24.5843  C     
17   C         3.0426    9.2260   26.2459  C     
18   N        -2.3717   11.2312   24.7110  N     
19   O         7.3555   13.9077   24.7413  O     
20   O         7.6204   11.8278   22.9310  O     
21   O         4.8839   14.5250   25.8200  O     
22   C         3.1751    7.7359   25.8479  C     
23   O         1.8955    7.1766   25.4801  O     
24   C         1.8563    6.3215   24.3138  C     
25   C         7.6666   15.0426   23.9152  C     
26   C         4.2343   15.7363   25.3852  C     
27   C         7.8966   10.4305   22.7323  C     
28   C         1.0147    5.0676   24.6485  C     
29   C         1.2649    7.0948   23.1165  C     
30   H         3.1895    9.7038   23.0725  H     
31   H         2.3689   11.1389   22.5158  H     
32   H        -1.4703    9.3499   28.6180  H     
33   H         5.3707   10.5343   22.4849  H     
34   H         2.9597   12.9261   25.0063  H     
35   H         3.9621    9.7440   25.9514  H     
36   H         2.9916    9.3017   27.3469  H     
37   H        -3.3106   11.3034   24.9104  H     
38   H        -2.0424   11.5191   23.8419  H     
39   H         3.9274    7.6451   25.0414  H     
40   H         3.5248    7.1660   26.7238  H     
41   H         2.8678    5.9601   24.0713  H     
42   H         7.7952   14.7563   22.8719  H     
43   H         8.6138   15.4657   24.2601  H     
44   H         6.8997   15.8166   23.9891  H     
45   H         4.7076   16.1432   24.4875  H     
46   H         4.3220   16.4759   26.1860  H     
47   H         3.1727   15.5622   25.1970  H     
48   H         7.7293    9.8558   23.6392  H     
49   H         8.9437   10.3242   22.4699  H     
50   H         7.2834   10.0265   21.9272  H     
51   H         1.4547    4.5181   25.4800  H     
52   H         0.9999    4.4014   23.7803  H     
53   H        -0.0136    5.3282   24.9060  H     
54   H         0.2845    7.5028   23.3550  H     
55   H         1.1493    6.4241   22.2639  H     
56   H         1.9205    7.9195   22.8299  H     
@<TRIPOS>BOND
     1    1    2 1
     2    1    3 2
     3    2    5 1
     4    2    6 2
     5    3    4 1
     6    3   12 1
     7    4    5 1
     8    4   17 1
     9    5    7 2
    10    6    9 1
    11    6   18 1
    12    7   14 1
    13    8   10 2
    14    8   11 1
    15    8   19 1
    16    9   14 2
    17   10   15 1
    18   10   20 1
    19   11   16 2
    20   11   21 1
    21   12   13 1
    22   13   15 2
    23   13   16 1
    24   17   22 1
    25   19   25 1
    26   20   27 1
    27   21   26 1
    28   22   23 1
    29   23   24 1
    30   24   28 1
    31   24   29 1
    32   12   30 1
    33   12   31 1
    34   14   32 1
    35   15   33 1
    36   16   34 1
    37   17   35 1
    38   17   36 1
    39   18   37 1
    40   18   38 1
    41   22   39 1
    42   22   40 1
    43   24   41 1
    44   25   42 1
    45   25   43 1
    46   25   44 1
    47   26   45 1
    48   26   46 1
    49   26   47 1
    50   27   48 1
    51   27   49 1
    52   27   50 1
    53   28   51 1
    54   28   52 1
    55   28   53 1
    56   29   54 1
    57   29   55 1
    58   29   56 1
@<TRIPOS>PROPERTY_DATA
  Total_Score	| 9.4079
  Crash		| -0.9343
  Polar		| 1.4505
  FragIndex	| 1
  FragRMSD	| 0.290

