@<TRIPOS>MOLECULE
BindingDB_15383
 48 50 0 0 0
SMALL
NO_CHARGES


@<TRIPOS>ATOM
1    C        -1.3819   10.5873   25.4232  C     
2    C        -1.1425    9.6776   27.6126  C     
3    N         0.1786    9.4330   27.4001  N     
4    N        -1.9025   10.2480   26.6348  N     
5    N        -2.1538   11.1581   24.4825  N     
6    C        -0.0185   10.3344   25.2001  C     
7    C         0.7429    9.7550   26.2074  C     
8    C         2.0173   10.1895   24.5140  C     
9    N         0.7797   10.5865   24.1628  N     
10   C         3.1611   10.3599   23.5911  C     
11   C         4.0745   11.5222   23.8190  C     
12   C         3.6321   12.6926   24.4889  C     
13   C         4.4237   13.8615   24.5300  C     
14   C         5.3592   11.5355   23.2047  C     
15   C         5.6780   13.8663   23.9101  C     
16   C         6.1526   12.6922   23.2495  C     
17   O         3.9164   15.0301   25.0362  O     
18   C         4.3419   15.3199   26.3758  C     
19   F        -1.6765    9.3774   28.7620  F     
20   O         5.7551   10.4112   22.4929  O     
21   C         7.1304   10.2841   22.1203  C     
22   N         2.0113    9.6540   25.7667  N     
23   C         3.1189    9.1382   26.5300  C     
24   C         3.2482    7.5870   26.4926  C     
25   C         3.7695    6.9894   25.1587  C     
26   C         5.2549    7.3059   24.8549  C     
27   H        -1.7751   11.3942   23.6223  H     
28   H        -3.0916   11.3377   24.6572  H     
29   H         3.7251    9.4286   23.6156  H     
30   H         2.7734   10.4629   22.5742  H     
31   H         2.7006   12.7265   24.9158  H     
32   H         6.2528   14.7045   23.8945  H     
33   H         7.0506   12.7468   22.7747  H     
34   H         4.1099   14.4884   27.0456  H     
35   H         3.7997   16.2015   26.7232  H     
36   H         5.4126   15.5398   26.4220  H     
37   H         7.3562   10.9062   21.2612  H     
38   H         7.3246    9.2303   21.8247  H     
39   H         7.8086   10.5131   22.9357  H     
40   H         4.0594    9.5807   26.1955  H     
41   H         2.9941    9.4435   27.5735  H     
42   H         3.9208    7.2719   27.2967  H     
43   H         2.2648    7.1522   26.7094  H     
44   H         3.6711    5.9010   25.2163  H     
45   H         3.1396    7.3285   24.3346  H     
46   H         5.4214    8.3783   24.7475  H     
47   H         5.5528    6.8178   23.9255  H     
48   H         5.8868    6.9299   25.6640  H     
@<TRIPOS>BOND
     1    1    4 1
     2    1    5 1
     3    1    6 2
     4    2    3 1
     5    2    4 2
     6    2   19 1
     7    3    7 2
     8    6    7 1
     9    6    9 1
    10    7   22 1
    11    8    9 2
    12    8   10 1
    13    8   22 1
    14   10   11 1
    15   11   12 2
    16   11   14 1
    17   12   13 1
    18   13   15 2
    19   13   17 1
    20   14   16 2
    21   14   20 1
    22   15   16 1
    23   17   18 1
    24   20   21 1
    25   22   23 1
    26   23   24 1
    27   24   25 1
    28   25   26 1
    29    5   27 1
    30    5   28 1
    31   10   29 1
    32   10   30 1
    33   12   31 1
    34   15   32 1
    35   16   33 1
    36   18   34 1
    37   18   35 1
    38   18   36 1
    39   21   37 1
    40   21   38 1
    41   21   39 1
    42   23   40 1
    43   23   41 1
    44   24   42 1
    45   24   43 1
    46   25   44 1
    47   25   45 1
    48   26   46 1
    49   26   47 1
    50   26   48 1
@<TRIPOS>PROPERTY_DATA
  Total_Score	| 7.8136
  Crash		| -0.4970
  Polar		| 1.4343
  FragIndex	| 1
  FragRMSD	| 0.423

