@<TRIPOS>MOLECULE
BindingDB_15381
 51 53 0 0 0
SMALL
NO_CHARGES


@<TRIPOS>ATOM
1    C        -1.4248   10.7169   25.4961  C     
2    C        -0.9768    9.6886   27.5959  C     
3    N         0.3357    9.5344   27.2678  N     
4    N        -1.8405   10.2675   26.7120  N     
5    N        -2.2901   11.2605   24.6259  N     
6    C        -0.0698   10.5740   25.1619  C     
7    C         0.7930    9.9672   26.0621  C     
8    C         1.8924   10.4992   24.2574  C     
9    N         0.6171   10.8945   24.0664  N     
10   N         2.0103    9.9099   25.4812  N     
11   C         3.1782    9.3452   26.0985  C     
12   C         3.4812    7.8736   25.7046  C     
13   C         2.2719    6.8978   25.7776  C     
14   C         2.9113   10.7417   23.2068  C     
15   C         4.0394   11.6388   23.6185  C     
16   C         5.3658   11.1463   23.5417  C     
17   C         6.4769   11.9219   23.9416  C     
18   C         3.8466   12.9731   24.0810  C     
19   C         6.2618   13.2359   24.4070  C     
20   C         4.9517   13.7542   24.4992  C     
21   O         7.7775   11.4810   23.8605  O     
22   C         8.0298   10.0895   24.1144  C     
23   Cl        2.3116   13.7059   24.0720  Cl    
24   O         7.3384   14.0038   24.7781  O     
25   C         7.6650   15.0597   23.8590  C     
26   O         4.7889   15.0527   24.9140  O     
27   C         4.4672   15.1948   26.3101  C     
28   C         1.3601    7.0689   24.7705  C     
29   C         0.5703    7.1947   23.8782  C     
30   F        -1.4110    9.2768   28.7510  F     
31   H        -1.9761   11.5625   23.7594  H     
32   H        -3.2313   11.3294   24.8452  H     
33   H         4.0416    9.9537   25.8323  H     
34   H         3.0955    9.4011   27.1892  H     
35   H         3.9280    7.8496   24.7046  H     
36   H         4.2410    7.5087   26.3959  H     
37   H         2.6388    5.8716   25.7021  H     
38   H         1.7624    6.9979   26.7373  H     
39   H         3.2640    9.7665   22.8691  H     
40   H         2.4353   11.2071   22.3398  H     
41   H         5.5391   10.2010   23.1849  H     
42   H         7.5400    9.7327   25.0222  H     
43   H         9.1070    9.9601   24.2419  H     
44   H         7.7099    9.4860   23.2652  H     
45   H         7.7318   14.6990   22.8318  H     
46   H         8.6377   15.4733   24.1328  H     
47   H         6.9301   15.8637   23.9127  H     
48   H         3.5233   14.7024   26.5570  H     
49   H         4.3618   16.2593   26.5280  H     
50   H         5.2610   14.7965   26.9474  H     
51   H        -0.0314    7.2859   23.1907  H     
@<TRIPOS>BOND
     1    1    4 1
     2    1    5 1
     3    1    6 2
     4    2    3 1
     5    2    4 2
     6    2   30 1
     7    3    7 2
     8    6    7 1
     9    6    9 1
    10    7   10 1
    11    8    9 2
    12    8   10 1
    13    8   14 1
    14   10   11 1
    15   11   12 1
    16   12   13 1
    17   13   28 1
    18   14   15 1
    19   15   16 2
    20   15   18 1
    21   16   17 1
    22   17   19 2
    23   17   21 1
    24   18   20 2
    25   18   23 1
    26   19   20 1
    27   19   24 1
    28   20   26 1
    29   21   22 1
    30   24   25 1
    31   26   27 1
    32   28   29 3
    33    5   31 1
    34    5   32 1
    35   11   33 1
    36   11   34 1
    37   12   35 1
    38   12   36 1
    39   13   37 1
    40   13   38 1
    41   14   39 1
    42   14   40 1
    43   16   41 1
    44   22   42 1
    45   22   43 1
    46   22   44 1
    47   25   45 1
    48   25   46 1
    49   25   47 1
    50   27   48 1
    51   27   49 1
    52   27   50 1
    53   29   51 1
@<TRIPOS>PROPERTY_DATA
  Total_Score	| 7.9513
  Crash		| -1.3591
  Polar		| 1.9421
  FragIndex	| 1
  FragRMSD	| 0.661

