@<TRIPOS>MOLECULE
BindingDB_16497
 37 37 0 0 0
SMALL
NO_CHARGES


@<TRIPOS>ATOM
1    C        14.7245   20.3770   -4.7638  C     
2    C        16.0918   20.5820   -5.4523  C     
3    O        13.8550   19.3687   -5.3041  O     
4    C        13.9354   18.5062   -6.3542  C     
5    O        15.0093   18.4514   -7.1733  O     
6    C        12.8061   17.6173   -6.6646  C     
7    C        11.4164   18.2296   -6.5629  C     
8    C        10.4516   17.8247   -7.5497  C     
9    O        10.5557   18.2976   -8.6728  O     
10   N         9.4532   17.0252   -7.2040  N     
11   C         8.3948   16.5674   -8.0660  C     
12   C         7.6184   17.6902   -8.6526  C     
13   O         7.2723   18.7764   -7.9252  O     
14   O         7.1393   17.5955   -9.9135  O     
15   C         7.4649   15.5436   -7.3209  C     
16   C         8.1939   14.1817   -7.1213  C     
17   C         6.8952   16.1040   -5.9725  C     
18   C         5.3539   16.0825   -5.8511  C     
19   O        11.8903   17.2527   -5.6245  O     
20   H        14.8987   20.1295   -3.7148  H     
21   H        14.1779   21.3218   -4.7952  H     
22   H        16.6851   19.6679   -5.3911  H     
23   H        16.6409   21.3872   -4.9589  H     
24   H        15.9501   20.8514   -6.5001  H     
25   H        12.9369   16.8525   -7.4348  H     
26   H        11.3460   19.2394   -6.1543  H     
27   H         9.4568   16.6943   -6.2923  H     
28   H         8.8598   16.0454   -8.9094  H     
29   H         6.6137   15.3396   -7.9796  H     
30   H         8.5859   13.8149   -8.0716  H     
31   H         7.5065   13.4273   -6.7373  H     
32   H         9.0241   14.2844   -6.4202  H     
33   H         7.3145   15.5460   -5.1314  H     
34   H         7.2017   17.1460   -5.8542  H     
35   H         4.8981   16.6187   -6.6855  H     
36   H         5.0514   16.5681   -4.9206  H     
37   H         4.9786   15.0588   -5.8373  H     
@<TRIPOS>BOND
     1    1    2 1
     2    1    3 1
     3    3    4 1
     4    4    5 2
     5    6    4 1
     6    6    7 1
     7    6   19 1
     8    7    8 1
     9    7   19 1
    10    8    9 2
    11    8   10 am
    12   10   11 1
    13   11   12 1
    14   11   15 1
    15   12   13 2
    16   12   14 1
    17   15   16 1
    18   15   17 1
    19   17   18 1
    20    1   20 1
    21    1   21 1
    22    2   22 1
    23    2   23 1
    24    2   24 1
    25    6   25 1
    26    7   26 1
    27   10   27 1
    28   11   28 1
    29   15   29 1
    30   16   30 1
    31   16   31 1
    32   16   32 1
    33   17   33 1
    34   17   34 1
    35   18   35 1
    36   18   36 1
    37   18   37 1
@<TRIPOS>PROPERTY_DATA
  Total_Score	| 0.7546
  Crash		| -0.5865
  Polar		| 1.1835
  FragIndex	| 1
  FragRMSD	| 0.255

