@<TRIPOS>MOLECULE
BindingDB_50317414
 39 40 0 0 0
SMALL
NO_CHARGES


@<TRIPOS>ATOM
1    C       -50.1700  -63.0233    5.3276  C     
2    C       -49.0177  -62.2265    5.5201  C     
3    C       -49.1768  -60.8327    5.5495  C     
4    N       -50.4088  -60.2955    5.3678  N     
5    C       -51.5389  -61.0231    5.1651  C     
6    C       -51.4599  -62.4456    5.1838  C     
7    S       -47.4372  -62.9378    5.6941  S     
8    N       -46.3765  -62.0363    6.6325  N     
9    O       -47.5565  -64.3448    6.4245  O     
10   O       -46.7823  -63.1484    4.2601  O     
11   S       -53.0288  -60.1334    4.9007  S     
12   C       -52.4092  -58.5064    4.8059  C     
13   C       -51.2982  -58.2216    3.9925  C     
14   C       -50.6860  -56.9557    4.0477  C     
15   C       -51.2056  -55.9454    4.8831  C     
16   C       -52.3585  -56.2068    5.6427  C     
17   C       -52.9542  -57.4826    5.6156  C     
18   F       -49.6174  -56.7459    3.3312  F     
19   C       -52.6814  -63.3053    5.0572  C     
20   N       -52.4476  -64.7498    5.3124  N     
21   F       -50.6208  -54.7819    4.9609  F     
22   C       -53.6336  -65.6333    5.4542  C     
23   C       -54.4894  -65.7758    4.1782  C     
24   H       -50.0653  -64.0382    5.2978  H     
25   H       -48.3782  -60.2116    5.6861  H     
26   H       -45.5990  -62.4641    7.0346  H     
27   H       -46.5940  -61.1200    6.8680  H     
28   H       -50.9006  -58.9504    3.3932  H     
29   H       -52.7601  -55.4792    6.2342  H     
30   H       -53.7675  -57.6711    6.2070  H     
31   H       -53.4374  -62.9625    5.7722  H     
32   H       -53.0870  -63.1882    4.0465  H     
33   H       -51.8670  -65.1121    4.5548  H     
34   H       -51.9188  -64.8248    6.1869  H     
35   H       -53.2692  -66.6247    5.7294  H     
36   H       -54.2643  -65.2760    6.2738  H     
37   H       -54.9480  -64.8219    3.9187  H     
38   H       -55.2820  -66.5098    4.3494  H     
39   H       -53.8747  -66.1188    3.3442  H     
@<TRIPOS>BOND
     1    1    2 2
     2    1    6 1
     3    2    3 1
     4    2    7 1
     5    3    4 2
     6    4    5 1
     7    5    6 2
     8    5   11 1
     9    6   19 1
    10    7    8 am
    11    7    9 2
    12    7   10 2
    13   11   12 1
    14   12   13 2
    15   12   17 1
    16   13   14 1
    17   14   15 2
    18   14   18 1
    19   15   16 1
    20   15   21 1
    21   16   17 2
    22   19   20 1
    23   20   22 1
    24   22   23 1
    25    1   24 1
    26    3   25 1
    27    8   26 1
    28    8   27 1
    29   13   28 1
    30   16   29 1
    31   17   30 1
    32   19   31 1
    33   19   32 1
    34   20   33 1
    35   20   34 1
    36   22   35 1
    37   22   36 1
    38   23   37 1
    39   23   38 1
    40   23   39 1
@<TRIPOS>PROPERTY_DATA
  Total_Score	| 6.5870
  Crash		| -1.6779
  Polar		| 3.8542
  FragIndex	| 1
  FragRMSD	| 0.959

