@<TRIPOS>MOLECULE
BindingDB_50317406
 44 45 0 0 0
SMALL
NO_CHARGES


@<TRIPOS>ATOM
1    C       -50.2646  -62.9093    5.4197  C     
2    C       -49.0959  -62.1289    5.5289  C     
3    C       -49.2316  -60.7280    5.4970  C     
4    N       -50.4453  -60.1764    5.2623  N     
5    C       -51.5894  -60.8988    5.1178  C     
6    C       -51.5416  -62.3193    5.2323  C     
7    S       -47.5247  -62.8526    5.6632  S     
8    N       -46.3506  -61.8805    6.3545  N     
9    O       -47.5197  -64.2377    6.4373  O     
10   O       -47.0242  -63.1599    4.1852  O     
11   S       -53.0204  -60.0073    4.6506  S     
12   C       -52.4481  -58.3627    4.6242  C     
13   C       -52.6885  -63.1352    5.2230  C     
14   N       -52.6692  -64.3002    4.5936  N     
15   O       -53.6758  -62.8214    5.8809  O     
16   C       -53.6503  -65.3366    4.5905  C     
17   C       -53.9352  -66.0355    5.9590  C     
18   C       -53.1085  -57.3992    5.4096  C     
19   C       -52.6368  -56.0738    5.4328  C     
20   C       -51.4892  -55.7117    4.7014  C     
21   C       -50.8359  -56.6772    3.9120  C     
22   C       -51.3215  -57.9988    3.8590  C     
23   F       -53.2619  -55.1827    6.1373  F     
24   C       -52.7484  -66.0755    6.9766  C     
25   O       -53.1967  -65.5094    8.2354  O     
26   C       -52.1165  -65.0553    9.0858  C     
27   H       -50.1815  -63.9241    5.4741  H     
28   H       -48.4189  -60.1066    5.5831  H     
29   H       -45.5274  -61.7069    5.8637  H     
30   H       -46.4107  -61.6577    7.3018  H     
31   H       -51.8760  -64.4700    4.0665  H     
32   H       -54.5833  -64.9540    4.1736  H     
33   H       -53.2757  -66.0999    3.9036  H     
34   H       -54.8159  -65.5528    6.4194  H     
35   H       -54.2363  -67.0798    5.7447  H     
36   H       -53.9345  -57.6505    5.9579  H     
37   H       -51.1359  -54.7532    4.7293  H     
38   H       -50.0099  -56.4174    3.3672  H     
39   H       -50.8369  -58.6792    3.2765  H     
40   H       -52.4462  -67.1296    7.1515  H     
41   H       -51.8695  -65.5451    6.5689  H     
42   H       -51.3958  -65.8640    9.3002  H     
43   H       -52.5546  -64.7193   10.0250  H     
44   H       -51.5838  -64.1993    8.6379  H     
@<TRIPOS>BOND
     1    1    2 2
     2    1    6 1
     3    2    3 1
     4    2    7 1
     5    3    4 2
     6    4    5 1
     7    5    6 2
     8    5   11 1
     9    6   13 1
    10    7    8 am
    11    7    9 2
    12    7   10 2
    13   11   12 1
    14   12   18 2
    15   12   22 1
    16   13   14 am
    17   13   15 2
    18   14   16 1
    19   16   17 1
    20   17   24 1
    21   18   19 1
    22   19   20 2
    23   19   23 1
    24   20   21 1
    25   21   22 2
    26   24   25 1
    27   25   26 1
    28    1   27 1
    29    3   28 1
    30    8   29 1
    31    8   30 1
    32   14   31 1
    33   16   32 1
    34   16   33 1
    35   17   34 1
    36   17   35 1
    37   18   36 1
    38   20   37 1
    39   21   38 1
    40   22   39 1
    41   24   40 1
    42   24   41 1
    43   26   42 1
    44   26   43 1
    45   26   44 1
@<TRIPOS>PROPERTY_DATA
  Total_Score	| 9.8105
  Crash		| -1.5180
  Polar		| 4.9893
  FragIndex	| 1
  FragRMSD	| 0.855

