@<TRIPOS>MOLECULE
BindingDB_50317405
 48 50 0 0 0
SMALL
NO_CHARGES


@<TRIPOS>ATOM
1    C       -49.8066  -62.7377    5.7090  C     
2    C       -48.6298  -61.9674    5.5854  C     
3    C       -48.7596  -60.6103    5.2532  C     
4    N       -49.9860  -60.1025    5.0011  N     
5    C       -51.1470  -60.8034    5.0949  C     
6    C       -51.0903  -62.1669    5.4973  C     
7    S       -47.0494  -62.6269    5.8952  S     
8    N       -45.8556  -62.4400    4.7274  N     
9    O       -46.4727  -61.8064    7.1270  O     
10   O       -47.0533  -64.0978    6.4929  O     
11   S       -52.6538  -60.0267    4.6368  S     
12   C       -52.2261  -58.3415    4.6199  C     
13   C       -52.2305  -62.9037    5.8073  C     
14   N       -52.3656  -64.1672    5.4113  N     
15   O       -53.0289  -62.4120    6.6055  O     
16   C       -53.3418  -65.1051    5.8884  C     
17   C       -52.6310  -66.1237    6.6983  C     
18   C       -52.9104  -57.4445    5.4659  C     
19   C       -52.6219  -56.0680    5.4159  C     
20   C       -51.6336  -55.5848    4.5382  C     
21   C       -50.9393  -56.4841    3.7056  C     
22   C       -51.2566  -57.8520    3.7235  C     
23   F       -53.3025  -55.2465    6.1646  F     
24   C       -51.9015  -65.7525    7.8531  C     
25   C       -51.1267  -66.6918    8.5528  C     
26   C       -51.0480  -68.0337    8.1124  C     
27   C       -51.8187  -68.4090    6.9968  C     
28   C       -52.6053  -67.4806    6.3039  C     
29   O       -50.2382  -69.0204    8.6226  O     
30   C       -49.6397  -68.9131    9.9263  C     
31   F       -51.3537  -54.3125    4.4795  F     
32   H       -49.7264  -63.7106    6.0081  H     
33   H       -47.9406  -59.9979    5.1700  H     
34   H       -45.3328  -61.6200    4.7198  H     
35   H       -45.5466  -63.2066    4.1805  H     
36   H       -51.7124  -64.5075    4.7754  H     
37   H       -54.1212  -64.6447    6.5076  H     
38   H       -53.8425  -65.5444    5.0251  H     
39   H       -53.6316  -57.7831    6.1084  H     
40   H       -50.2293  -56.1415    3.0615  H     
41   H       -50.7605  -58.4904    3.0937  H     
42   H       -51.9003  -64.7779    8.1722  H     
43   H       -50.5901  -66.3831    9.3619  H     
44   H       -51.7799  -69.3752    6.6597  H     
45   H       -53.1306  -67.7944    5.4839  H     
46   H       -48.9674  -68.0531    9.9865  H     
47   H       -49.0580  -69.8135   10.1150  H     
48   H       -50.3967  -68.8422   10.6978  H     
@<TRIPOS>BOND
     1    1    2 2
     2    1    6 1
     3    2    3 1
     4    2    7 1
     5    3    4 2
     6    4    5 1
     7    5    6 2
     8    5   11 1
     9    6   13 1
    10    7    8 am
    11    7    9 2
    12    7   10 2
    13   11   12 1
    14   12   18 2
    15   12   22 1
    16   13   14 am
    17   13   15 2
    18   14   16 1
    19   16   17 1
    20   17   24 2
    21   17   28 1
    22   18   19 1
    23   19   20 2
    24   19   23 1
    25   20   21 1
    26   20   31 1
    27   21   22 2
    28   24   25 1
    29   25   26 2
    30   26   27 1
    31   26   29 1
    32   27   28 2
    33   29   30 1
    34    1   32 1
    35    3   33 1
    36    8   34 1
    37    8   35 1
    38   14   36 1
    39   16   37 1
    40   16   38 1
    41   18   39 1
    42   21   40 1
    43   22   41 1
    44   24   42 1
    45   25   43 1
    46   27   44 1
    47   28   45 1
    48   30   46 1
    49   30   47 1
    50   30   48 1
@<TRIPOS>PROPERTY_DATA
  Total_Score	| 5.5707
  Crash		| -6.3512
  Polar		| 3.8070
  FragIndex	| 1
  FragRMSD	| 1.204

