@<TRIPOS>MOLECULE
BindingDB_50317400
 44 45 0 0 0
SMALL
NO_CHARGES


@<TRIPOS>ATOM
1    C       -50.3338  -63.1328    5.4255  C     
2    C       -49.1122  -62.4392    5.5448  C     
3    C       -49.1239  -61.0397    5.4834  C     
4    N       -50.2827  -60.3965    5.2500  N     
5    C       -51.4878  -61.0137    5.1064  C     
6    C       -51.5629  -62.4423    5.2158  C     
7    S       -47.6169  -63.2911    5.7819  S     
8    N       -47.7677  -64.9535    5.9893  N     
9    O       -46.8279  -63.1384    4.4088  O     
10   O       -46.6472  -62.6158    6.8525  O     
11   S       -52.8548  -59.9863    4.7117  S     
12   C       -52.1637  -58.3883    4.7659  C     
13   C       -52.7759  -63.1710    5.1986  C     
14   N       -52.8732  -64.3784    4.6407  N     
15   O       -53.7790  -62.7222    5.7483  O     
16   C       -54.0313  -65.2134    4.5902  C     
17   C       -54.2772  -66.0427    5.8812  C     
18   C       -51.0928  -58.0332    3.9182  C     
19   C       -50.5592  -56.7346    3.9735  C     
20   C       -51.0877  -55.7870    4.8639  C     
21   C       -52.1648  -56.1374    5.6949  C     
22   C       -52.7036  -57.4334    5.6492  C     
23   C       -53.0774  -66.0840    6.8867  C     
24   O       -53.2899  -65.4139    8.1480  O     
25   C       -52.1371  -65.1168    8.9491  C     
26   H       -50.3312  -64.1559    5.5182  H     
27   H       -48.2696  -60.4953    5.6025  H     
28   H       -48.3423  -65.3186    6.6975  H     
29   H       -47.3836  -65.5589    5.3210  H     
30   H       -52.0864  -64.7223    4.1920  H     
31   H       -54.8952  -64.5761    4.3938  H     
32   H       -53.9262  -65.8802    3.7289  H     
33   H       -55.1746  -65.6748    6.3946  H     
34   H       -54.4795  -67.0692    5.5436  H     
35   H       -50.7001  -58.7145    3.2606  H     
36   H       -49.7740  -56.4974    3.3647  H     
37   H       -50.7069  -54.8421    4.8877  H     
38   H       -52.5762  -55.4475    6.3143  H     
39   H       -53.4896  -57.6763    6.2620  H     
40   H       -52.9467  -67.1305    7.1668  H     
41   H       -52.1373  -65.7718    6.4036  H     
42   H       -51.4479  -65.9622    9.0093  H     
43   H       -52.4762  -64.8789    9.9593  H     
44   H       -51.6255  -64.2426    8.5489  H     
@<TRIPOS>BOND
     1    1    2 2
     2    1    6 1
     3    2    3 1
     4    2    7 1
     5    3    4 2
     6    4    5 1
     7    5    6 2
     8    5   11 1
     9    6   13 1
    10    7    8 am
    11    7    9 2
    12    7   10 2
    13   11   12 1
    14   12   18 2
    15   12   22 1
    16   13   14 am
    17   13   15 2
    18   14   16 1
    19   16   17 1
    20   17   23 1
    21   18   19 1
    22   19   20 2
    23   20   21 1
    24   21   22 2
    25   23   24 1
    26   24   25 1
    27    1   26 1
    28    3   27 1
    29    8   28 1
    30    8   29 1
    31   14   30 1
    32   16   31 1
    33   16   32 1
    34   17   33 1
    35   17   34 1
    36   18   35 1
    37   19   36 1
    38   20   37 1
    39   21   38 1
    40   22   39 1
    41   23   40 1
    42   23   41 1
    43   25   42 1
    44   25   43 1
    45   25   44 1
@<TRIPOS>PROPERTY_DATA
  Total_Score	| 8.5183
  Crash		| -1.6494
  Polar		| 3.9616
  FragIndex	| 1
  FragRMSD	| 0.246

