@<TRIPOS>MOLECULE
BindingDB_50317401
 40 41 0 0 0
SMALL
NO_CHARGES


@<TRIPOS>ATOM
1    C       -50.1464  -62.9615    5.3553  C     
2    C       -48.9656  -62.2097    5.4902  C     
3    C       -49.0370  -60.8126    5.4763  C     
4    N       -50.2410  -60.2287    5.2934  N     
5    C       -51.4146  -60.9076    5.1601  C     
6    C       -51.4135  -62.3252    5.2655  C     
7    S       -47.4301  -62.9790    5.6759  S     
8    N       -46.3140  -62.1205    6.5821  N     
9    O       -47.5236  -64.3708    6.4316  O     
10   O       -46.7743  -63.2807    4.2629  O     
11   S       -52.8751  -60.0067    4.7831  S     
12   C       -52.3327  -58.3598    4.7840  C     
13   C       -52.5603  -63.0919    5.3731  C     
14   N       -52.6372  -64.3101    4.8412  N     
15   O       -53.5057  -62.6508    6.0344  O     
16   C       -53.7330  -65.2348    4.8103  C     
17   C       -53.8634  -66.2601    5.9861  C     
18   C       -52.9261  -57.4430    5.6684  C     
19   C       -52.5344  -56.0959    5.6538  C     
20   C       -51.5423  -55.6585    4.7433  C     
21   C       -50.9818  -56.5615    3.8259  C     
22   C       -51.3538  -57.9211    3.8587  C     
23   C       -52.9195  -65.9575    7.1710  C     
24   H       -50.0972  -63.9806    5.3681  H     
25   H       -48.2214  -60.2228    5.6221  H     
26   H       -46.3457  -62.1645    7.5594  H     
27   H       -45.7741  -61.4152    6.1741  H     
28   H       -51.8852  -64.5803    4.3069  H     
29   H       -54.6806  -64.6813    4.7230  H     
30   H       -53.6308  -65.8494    3.9122  H     
31   H       -54.8999  -66.2068    6.3870  H     
32   H       -53.6997  -67.3076    5.6408  H     
33   H       -53.6634  -57.7450    6.3096  H     
34   H       -52.9851  -55.4296    6.2757  H     
35   H       -51.2819  -54.6719    4.7181  H     
36   H       -50.3184  -56.2265    3.1171  H     
37   H       -50.9376  -58.5708    3.1931  H     
38   H       -51.8869  -66.1635    6.8642  H     
39   H       -53.1671  -66.6114    8.0291  H     
40   H       -53.0405  -64.8926    7.4660  H     
@<TRIPOS>BOND
     1    1    2 2
     2    1    6 1
     3    2    3 1
     4    2    7 1
     5    3    4 2
     6    4    5 1
     7    5    6 2
     8    5   11 1
     9    6   13 1
    10    7    8 am
    11    7    9 2
    12    7   10 2
    13   11   12 1
    14   12   18 2
    15   12   22 1
    16   13   14 am
    17   13   15 2
    18   14   16 1
    19   16   17 1
    20   17   23 1
    21   18   19 1
    22   19   20 2
    23   20   21 1
    24   21   22 2
    25    1   24 1
    26    3   25 1
    27    8   26 1
    28    8   27 1
    29   14   28 1
    30   16   29 1
    31   16   30 1
    32   17   31 1
    33   17   32 1
    34   18   33 1
    35   19   34 1
    36   20   35 1
    37   21   36 1
    38   22   37 1
    39   23   38 1
    40   23   39 1
    41   23   40 1
@<TRIPOS>PROPERTY_DATA
  Total_Score	| 6.6568
  Crash		| -1.6802
  Polar		| 3.5835
  FragIndex	| 1
  FragRMSD	| 0.853

