@<TRIPOS>MOLECULE
BindingDB_50317397
 37 38 0 0 0
SMALL
NO_CHARGES


@<TRIPOS>ATOM
1    C       -50.2052  -62.9197    5.4814  C     
2    C       -49.0226  -62.1623    5.5522  C     
3    C       -49.1127  -60.7691    5.4510  C     
4    N       -50.3159  -60.2082    5.2254  N     
5    C       -51.4879  -60.8897    5.1259  C     
6    C       -51.4767  -62.3072    5.2844  C     
7    S       -47.4634  -62.9223    5.6950  S     
8    N       -46.2247  -61.9731    6.3204  N     
9    O       -47.4556  -64.3105    6.4627  O     
10   O       -46.9941  -63.2458    4.2102  O     
11   S       -52.9299  -59.9772    4.7063  S     
12   C       -52.3344  -58.3380    4.7220  C     
13   C       -52.6309  -63.0921    5.2764  C     
14   N       -52.6598  -64.2877    4.6980  N     
15   O       -53.6143  -62.7128    5.9053  O     
16   C       -53.7641  -65.2016    4.6364  C     
17   C       -54.2867  -65.6820    6.0173  C     
18   C       -51.3403  -57.9321    3.8094  C     
19   C       -50.8138  -56.6291    3.8674  C     
20   C       -51.2859  -55.7163    4.8276  C     
21   C       -52.2922  -56.1139    5.7282  C     
22   C       -52.8137  -57.4195    5.6830  C     
23   H       -50.1369  -63.9322    5.5979  H     
24   H       -48.2915  -60.1708    5.5031  H     
25   H       -45.4491  -61.7555    5.7787  H     
26   H       -46.3083  -61.6003    7.2164  H     
27   H       -51.8764  -64.5659    4.1989  H     
28   H       -54.5875  -64.7512    4.0707  H     
29   H       -53.4199  -66.0884    4.0842  H     
30   H       -53.4673  -66.1213    6.5977  H     
31   H       -55.0648  -66.4392    5.8656  H     
32   H       -54.7242  -64.8578    6.5822  H     
33   H       -50.9713  -58.5901    3.1164  H     
34   H       -50.0840  -56.3431    3.2133  H     
35   H       -50.9086  -54.7645    4.8616  H     
36   H       -52.6396  -55.4551    6.4277  H     
37   H       -53.5335  -57.6955    6.3563  H     
@<TRIPOS>BOND
     1    1    2 2
     2    1    6 1
     3    2    3 1
     4    2    7 1
     5    3    4 2
     6    4    5 1
     7    5    6 2
     8    5   11 1
     9    6   13 1
    10    7    8 am
    11    7    9 2
    12    7   10 2
    13   11   12 1
    14   12   18 2
    15   12   22 1
    16   13   14 am
    17   13   15 2
    18   14   16 1
    19   16   17 1
    20   18   19 1
    21   19   20 2
    22   20   21 1
    23   21   22 2
    24    1   23 1
    25    3   24 1
    26    8   25 1
    27    8   26 1
    28   14   27 1
    29   16   28 1
    30   16   29 1
    31   17   30 1
    32   17   31 1
    33   17   32 1
    34   18   33 1
    35   19   34 1
    36   20   35 1
    37   21   36 1
    38   22   37 1
@<TRIPOS>PROPERTY_DATA
  Total_Score	| 6.4688
  Crash		| -1.3511
  Polar		| 3.7442
  FragIndex	| 1
  FragRMSD	| 0.831

