@<TRIPOS>MOLECULE
BindingDB_50317402
 47 49 0 0 0
SMALL
NO_CHARGES


@<TRIPOS>ATOM
1    C       -50.4852  -63.1271    5.4203  C     
2    C       -49.2374  -62.4920    5.5830  C     
3    C       -49.2033  -61.0899    5.5391  C     
4    N       -50.3444  -60.4034    5.3162  N     
5    C       -51.5681  -60.9690    5.1359  C     
6    C       -51.6817  -62.3906    5.1927  C     
7    S       -47.7814  -63.4191    5.7985  S     
8    N       -48.0241  -65.0678    6.0099  N     
9    O       -46.9959  -63.3036    4.4258  O     
10   O       -46.8270  -62.8162    6.9136  O     
11   S       -52.9181  -59.9133    4.7597  S     
12   C       -52.1981  -58.3276    4.7897  C     
13   C       -52.8971  -63.0856    5.0618  C     
14   N       -52.9416  -64.2620    4.4553  N     
15   O       -53.9250  -62.6466    5.5608  O     
16   C       -54.0442  -65.1732    4.3668  C     
17   C       -54.5481  -65.6887    5.7376  C     
18   C       -51.2049  -57.9730    3.8497  C     
19   C       -50.6107  -56.7007    3.8994  C     
20   C       -51.0199  -55.7641    4.8663  C     
21   C       -52.0324  -56.1054    5.7815  C     
22   C       -52.6182  -57.3843    5.7477  C     
23   C       -53.4411  -66.0187    6.6751  C     
24   C       -52.8602  -67.3110    6.6964  C     
25   C       -51.7897  -67.6074    7.5664  C     
26   C       -51.2702  -66.6049    8.4067  C     
27   C       -51.8104  -65.3051    8.3663  C     
28   C       -52.8800  -65.0173    7.4999  C     
29   H       -50.5191  -64.1475    5.4867  H     
30   H       -48.3258  -60.5777    5.6466  H     
31   H       -47.5036  -65.7004    5.4927  H     
32   H       -48.7264  -65.3837    6.5918  H     
33   H       -52.1227  -64.5641    4.0340  H     
34   H       -54.8562  -64.7167    3.8048  H     
35   H       -53.6997  -66.0299    3.7850  H     
36   H       -55.2070  -64.9467    6.1967  H     
37   H       -55.1578  -66.5822    5.5589  H     
38   H       -50.8946  -58.6398    3.1384  H     
39   H       -49.8821  -56.4582    3.2300  H     
40   H       -50.5859  -54.8378    4.8983  H     
41   H       -52.3546  -55.4180    6.4626  H     
42   H       -53.3565  -57.6116    6.4183  H     
43   H       -53.2249  -68.0494    6.0859  H     
44   H       -51.3961  -68.5527    7.5866  H     
45   H       -50.5008  -66.8186    9.0449  H     
46   H       -51.4160  -64.5691    8.9585  H     
47   H       -53.2331  -64.0593    7.4607  H     
@<TRIPOS>BOND
     1    1    2 2
     2    1    6 1
     3    2    3 1
     4    2    7 1
     5    3    4 2
     6    4    5 1
     7    5    6 2
     8    5   11 1
     9    6   13 1
    10    7    8 am
    11    7    9 2
    12    7   10 2
    13   11   12 1
    14   12   18 2
    15   12   22 1
    16   13   14 am
    17   13   15 2
    18   14   16 1
    19   16   17 1
    20   17   23 1
    21   18   19 1
    22   19   20 2
    23   20   21 1
    24   21   22 2
    25   23   24 2
    26   23   28 1
    27   24   25 1
    28   25   26 2
    29   26   27 1
    30   27   28 2
    31    1   29 1
    32    3   30 1
    33    8   31 1
    34    8   32 1
    35   14   33 1
    36   16   34 1
    37   16   35 1
    38   17   36 1
    39   17   37 1
    40   18   38 1
    41   19   39 1
    42   20   40 1
    43   21   41 1
    44   22   42 1
    45   24   43 1
    46   25   44 1
    47   26   45 1
    48   27   46 1
    49   28   47 1
@<TRIPOS>PROPERTY_DATA
  Total_Score	| 8.9833
  Crash		| -2.0697
  Polar		| 3.1037
  FragIndex	| 1
  FragRMSD	| 0.259

