@<TRIPOS>MOLECULE
BindingDB_50317403
 43 45 0 0 0
SMALL
NO_CHARGES


@<TRIPOS>ATOM
1    C       -50.3100  -62.6448    5.2676  C     
2    C       -49.1167  -61.8982    5.3298  C     
3    C       -49.2023  -60.5008    5.2296  C     
4    N       -50.4135  -59.9190    5.0960  N     
5    C       -51.5931  -60.5947    5.0449  C     
6    C       -51.5809  -62.0191    5.1378  C     
7    S       -47.5745  -62.6815    5.5239  S     
8    N       -46.2688  -61.7137    5.9449  N     
9    O       -47.5891  -63.9318    6.5054  O     
10   O       -47.1901  -63.2936    4.1097  O     
11   S       -53.0581  -59.6333    4.9614  S     
12   C       -52.4149  -58.1036    4.4188  C     
13   C       -52.7402  -62.8029    5.2256  C     
14   N       -52.8251  -64.0003    4.6451  N     
15   O       -53.6196  -62.4653    6.0095  O     
16   C       -53.6670  -65.0761    5.0848  C     
17   C       -53.1228  -65.5709    6.3707  C     
18   C       -52.3951  -57.8051    3.0390  C     
19   C       -51.8637  -56.5801    2.5899  C     
20   C       -51.3335  -55.6613    3.5126  C     
21   C       -51.3184  -55.9673    4.8833  C     
22   C       -51.8776  -57.1773    5.3425  C     
23   C       -52.8947  -66.9412    6.6258  C     
24   C       -52.1780  -67.3155    7.7778  C     
25   C       -51.7220  -66.3318    8.6751  C     
26   C       -52.0400  -64.9869    8.4300  C     
27   N       -52.7080  -64.6585    7.2966  N     
28   F       -50.7811  -55.1204    5.7185  F     
29   F       -52.8424  -58.6660    2.1623  F     
30   F       -51.8428  -56.2918    1.3149  F     
31   F       -51.8648  -57.4364    6.6252  F     
32   H       -50.2448  -63.6615    5.3702  H     
33   H       -48.3701  -59.9097    5.2653  H     
34   H       -45.6018  -61.4882    5.2802  H     
35   H       -46.1681  -61.4109    6.8611  H     
36   H       -52.1090  -64.2511    4.0370  H     
37   H       -54.7066  -64.7670    5.2164  H     
38   H       -53.6471  -65.8541    4.3183  H     
39   H       -50.9393  -54.7773    3.1816  H     
40   H       -53.1980  -67.6594    5.9637  H     
41   H       -51.9701  -68.3017    7.9534  H     
42   H       -51.1632  -66.5878    9.4897  H     
43   H       -51.7426  -64.2537    9.0770  H     
@<TRIPOS>BOND
     1    1    2 2
     2    1    6 1
     3    2    3 1
     4    2    7 1
     5    3    4 2
     6    4    5 1
     7    5    6 2
     8    5   11 1
     9    6   13 1
    10    7    8 am
    11    7    9 2
    12    7   10 2
    13   11   12 1
    14   12   18 2
    15   12   22 1
    16   13   14 am
    17   13   15 2
    18   14   16 1
    19   16   17 1
    20   17   23 2
    21   17   27 1
    22   18   19 1
    23   18   29 1
    24   19   20 2
    25   19   30 1
    26   20   21 1
    27   21   22 2
    28   21   28 1
    29   22   31 1
    30   23   24 1
    31   24   25 2
    32   25   26 1
    33   26   27 2
    34    1   32 1
    35    3   33 1
    36    8   34 1
    37    8   35 1
    38   14   36 1
    39   16   37 1
    40   16   38 1
    41   20   39 1
    42   23   40 1
    43   24   41 1
    44   25   42 1
    45   26   43 1
@<TRIPOS>PROPERTY_DATA
  Total_Score	| 7.8814
  Crash		| -2.5375
  Polar		| 4.1570
  FragIndex	| 1
  FragRMSD	| 1.273

