@<TRIPOS>MOLECULE
BindingDB_50317404
 37 38 0 0 0
SMALL
NO_CHARGES


@<TRIPOS>ATOM
1    C       -50.2140  -62.9585    5.4196  C     
2    C       -49.0477  -62.1732    5.5471  C     
3    C       -49.1700  -60.7712    5.4797  C     
4    N       -50.3819  -60.2162    5.2569  N     
5    C       -51.5295  -60.9356    5.1220  C     
6    C       -51.4883  -62.3612    5.2329  C     
7    S       -47.4755  -62.9128    5.7263  S     
8    N       -46.3886  -62.0155    6.6438  N     
9    O       -47.5149  -64.3351    6.4341  O     
10   O       -46.8013  -63.1632    4.3084  O     
11   S       -52.9769  -60.0252    4.7277  S     
12   C       -52.3989  -58.3787    4.6730  C     
13   C       -52.6397  -63.1637    5.1883  C     
14   N       -52.6028  -64.3954    4.6878  N     
15   O       -53.6856  -62.7552    5.6825  O     
16   C       -53.6750  -65.3361    4.6738  C     
17   C       -54.0763  -65.8058    6.0961  C     
18   C       -52.9866  -57.4008    5.5007  C     
19   C       -52.5240  -56.0701    5.4628  C     
20   C       -51.4673  -55.7132    4.6047  C     
21   C       -50.8792  -56.6849    3.7764  C     
22   C       -51.3442  -58.0148    3.8054  C     
23   F       -53.0812  -55.1673    6.2189  F     
24   H       -50.1335  -63.9766    5.5091  H     
25   H       -48.3475  -60.1651    5.5627  H     
26   H       -46.3567  -62.1429    7.6085  H     
27   H       -45.9110  -61.2756    6.2318  H     
28   H       -51.7792  -64.6876    4.2682  H     
29   H       -54.5468  -64.9263    4.1599  H     
30   H       -53.3392  -66.2166    4.1091  H     
31   H       -53.2043  -66.2141    6.6198  H     
32   H       -54.8441  -66.5790    6.0312  H     
33   H       -54.4731  -64.9610    6.6802  H     
34   H       -53.7497  -57.6544    6.1351  H     
35   H       -51.1244  -54.7563    4.5731  H     
36   H       -50.1091  -56.4392    3.1516  H     
37   H       -50.9070  -58.7119    3.1911  H     
@<TRIPOS>BOND
     1    1    2 2
     2    1    6 1
     3    2    3 1
     4    2    7 1
     5    3    4 2
     6    4    5 1
     7    5    6 2
     8    5   11 1
     9    6   13 1
    10    7    8 am
    11    7    9 2
    12    7   10 2
    13   11   12 1
    14   12   18 2
    15   12   22 1
    16   13   14 am
    17   13   15 2
    18   14   16 1
    19   16   17 1
    20   18   19 1
    21   19   20 2
    22   19   23 1
    23   20   21 1
    24   21   22 2
    25    1   24 1
    26    3   25 1
    27    8   26 1
    28    8   27 1
    29   14   28 1
    30   16   29 1
    31   16   30 1
    32   17   31 1
    33   17   32 1
    34   17   33 1
    35   18   34 1
    36   20   35 1
    37   21   36 1
    38   22   37 1
@<TRIPOS>PROPERTY_DATA
  Total_Score	| 5.7924
  Crash		| -1.8802
  Polar		| 3.5365
  FragIndex	| 1
  FragRMSD	| 0.841

