@<TRIPOS>MOLECULE
BindingDB_50317408
 44 45 0 0 0
SMALL
NO_CHARGES


@<TRIPOS>ATOM
1    C       -50.2161  -63.0548    5.4721  C     
2    C       -49.0271  -62.2966    5.5413  C     
3    C       -49.1259  -60.8945    5.4660  C     
4    N       -50.3432  -60.3179    5.2991  N     
5    C       -51.5126  -61.0106    5.2230  C     
6    C       -51.4876  -62.4307    5.3349  C     
7    S       -47.4607  -63.0435    5.6912  S     
8    N       -46.3169  -62.0832    6.4586  N     
9    O       -47.4634  -64.4405    6.4466  O     
10   O       -46.8617  -63.3510    4.2508  O     
11   S       -52.9902  -60.1128    4.9287  S     
12   C       -52.4043  -58.4744    4.8605  C     
13   C       -52.6440  -63.2159    5.3144  C     
14   N       -52.6571  -64.3629    4.6519  N     
15   O       -53.6225  -62.8731    5.9702  O     
16   C       -53.7048  -65.3365    4.6246  C     
17   C       -54.0712  -65.9493    6.0054  C     
18   C       -52.9919  -57.4735    5.6650  C     
19   C       -52.4485  -56.1728    5.6830  C     
20   C       -51.3063  -55.8718    4.9157  C     
21   C       -50.7416  -56.8611    4.0865  C     
22   C       -51.3095  -58.1491    4.0355  C     
23   C       -52.8843  -66.1499    6.9948  C     
24   O       -53.2023  -65.5038    8.2464  O     
25   C       -52.0896  -65.1011    9.0569  C     
26   F       -49.6588  -56.6222    3.4008  F     
27   F       -50.7705  -54.6823    4.9929  F     
28   H       -50.1482  -64.0758    5.5491  H     
29   H       -48.2954  -60.2954    5.5195  H     
30   H       -45.6859  -61.5782    5.9313  H     
31   H       -46.2726  -62.0630    7.4228  H     
32   H       -51.8683  -64.5760    4.1356  H     
33   H       -54.5973  -64.8828    4.1851  H     
34   H       -53.3843  -66.1476    3.9623  H     
35   H       -54.8318  -65.3163    6.4715  H     
36   H       -54.5511  -66.9166    5.8312  H     
37   H       -53.7978  -57.6854    6.2620  H     
38   H       -52.8766  -55.4535    6.2679  H     
39   H       -50.8913  -58.8549    3.4287  H     
40   H       -52.7380  -67.2181    7.1791  H     
41   H       -51.9520  -65.7639    6.5697  H     
42   H       -51.4146  -65.9369    9.2549  H     
43   H       -52.4801  -64.7329   10.0060  H     
44   H       -51.5381  -64.2899    8.5730  H     
@<TRIPOS>BOND
     1    1    2 2
     2    1    6 1
     3    2    3 1
     4    2    7 1
     5    3    4 2
     6    4    5 1
     7    5    6 2
     8    5   11 1
     9    6   13 1
    10    7    8 am
    11    7    9 2
    12    7   10 2
    13   11   12 1
    14   12   18 2
    15   12   22 1
    16   13   14 am
    17   13   15 2
    18   14   16 1
    19   16   17 1
    20   17   23 1
    21   18   19 1
    22   19   20 2
    23   20   21 1
    24   20   27 1
    25   21   22 2
    26   21   26 1
    27   23   24 1
    28   24   25 1
    29    1   28 1
    30    3   29 1
    31    8   30 1
    32    8   31 1
    33   14   32 1
    34   16   33 1
    35   16   34 1
    36   17   35 1
    37   17   36 1
    38   18   37 1
    39   19   38 1
    40   22   39 1
    41   23   40 1
    42   23   41 1
    43   25   42 1
    44   25   43 1
    45   25   44 1
@<TRIPOS>PROPERTY_DATA
  Total_Score	| 8.8210
  Crash		| -2.1768
  Polar		| 4.5085
  FragIndex	| 1
  FragRMSD	| 0.830

