@<TRIPOS>MOLECULE
BindingDB_50317411
 54 56 0 0 0
SMALL
NO_CHARGES


@<TRIPOS>ATOM
1    C       -50.4277  -62.6705    5.1455  C     
2    C       -49.2437  -61.9492    5.3828  C     
3    C       -49.3271  -60.5515    5.4716  C     
4    N       -50.5287  -59.9464    5.3480  N     
5    C       -51.7008  -60.6022    5.1200  C     
6    C       -51.6948  -62.0280    5.0046  C     
7    S       -47.7051  -62.7450    5.5462  S     
8    N       -46.4581  -61.8083    6.1667  N     
9    O       -47.7444  -64.0842    6.4011  O     
10   O       -47.2046  -63.2059    4.1129  O     
11   S       -53.1293  -59.5777    5.0637  S     
12   C       -52.4253  -58.1170    4.4156  C     
13   C       -52.8525  -62.8115    4.8254  C     
14   N       -52.8246  -64.0331    4.3067  N     
15   O       -53.9327  -62.3971    5.2241  O     
16   C       -53.9085  -64.9641    4.2479  C     
17   C       -52.3668  -57.9223    3.0155  C     
18   C       -51.7341  -56.7781    2.4906  C     
19   C       -51.1541  -55.8316    3.3546  C     
20   C       -51.2154  -56.0154    4.7471  C     
21   C       -51.8682  -57.1458    5.2811  C     
22   F       -51.6657  -56.5954    1.1989  F     
23   F       -51.9244  -57.2893    6.5810  F     
24   F       -50.6556  -55.1355    5.5306  F     
25   F       -52.8758  -58.7998    2.1915  F     
26   C       -54.6153  -65.2095    5.6173  C     
27   C       -53.7522  -64.9718    6.8912  C     
28   C       -52.7450  -65.9950    7.2972  C     
29   C       -52.6069  -67.2438    6.6485  C     
30   C       -51.6844  -68.2009    7.1156  C     
31   C       -50.8929  -67.9579    8.2515  C     
32   C       -51.0118  -66.7064    8.8989  C     
33   C       -51.9326  -65.7438    8.4286  C     
34   O       -50.0400  -68.9640    8.6503  O     
35   C       -49.5329  -68.9254    9.9911  C     
36   H       -50.3602  -63.6883    5.1084  H     
37   H       -48.4954  -59.9784    5.6268  H     
38   H       -46.2769  -61.8098    7.1200  H     
39   H       -45.8558  -61.3511    5.5600  H     
40   H       -51.9808  -64.3548    3.9525  H     
41   H       -54.6419  -64.6227    3.5125  H     
42   H       -53.4987  -65.9114    3.8825  H     
43   H       -50.6867  -55.0071    2.9676  H     
44   H       -55.4663  -64.5217    5.6756  H     
45   H       -55.0306  -66.2212    5.6297  H     
46   H       -53.2575  -63.9925    6.7594  H     
47   H       -54.4390  -64.8705    7.7309  H     
48   H       -53.1943  -67.4808    5.8462  H     
49   H       -51.6172  -69.0996    6.6300  H     
50   H       -50.4486  -66.5335    9.7340  H     
51   H       -52.0107  -64.8585    8.9343  H     
52   H       -48.9470  -68.0214   10.1495  H     
53   H       -48.8892  -69.8044   10.1554  H     
54   H       -50.3404  -68.9684   10.7247  H     
@<TRIPOS>BOND
     1    1    2 2
     2    1    6 1
     3    2    3 1
     4    2    7 1
     5    3    4 2
     6    4    5 1
     7    5    6 2
     8    5   11 1
     9    6   13 1
    10    7    8 am
    11    7    9 2
    12    7   10 2
    13   11   12 1
    14   12   17 2
    15   12   21 1
    16   13   14 am
    17   13   15 2
    18   14   16 1
    19   16   26 1
    20   17   18 1
    21   17   25 1
    22   18   19 2
    23   18   22 1
    24   19   20 1
    25   20   21 2
    26   20   24 1
    27   21   23 1
    28   26   27 1
    29   27   28 1
    30   28   29 2
    31   28   33 1
    32   29   30 1
    33   30   31 2
    34   31   32 1
    35   31   34 1
    36   32   33 2
    37   34   35 1
    38    1   36 1
    39    3   37 1
    40    8   38 1
    41    8   39 1
    42   14   40 1
    43   16   41 1
    44   16   42 1
    45   19   43 1
    46   26   44 1
    47   26   45 1
    48   27   46 1
    49   27   47 1
    50   29   48 1
    51   30   49 1
    52   32   50 1
    53   33   51 1
    54   35   52 1
    55   35   53 1
    56   35   54 1
@<TRIPOS>PROPERTY_DATA
  Total_Score	| 6.4438
  Crash		| -7.3495
  Polar		| 4.9791
  FragIndex	| 1
  FragRMSD	| 1.285

