@<TRIPOS>MOLECULE
BindingDB_50317407
 44 45 0 0 0
SMALL
NO_CHARGES


@<TRIPOS>ATOM
1    C       -50.4104  -63.2390    5.4278  C     
2    C       -49.1981  -62.5307    5.5618  C     
3    C       -49.2416  -61.1313    5.5234  C     
4    N       -50.4287  -60.4968    5.3169  N     
5    C       -51.6195  -61.1425    5.1821  C     
6    C       -51.6550  -62.5674    5.2606  C     
7    S       -47.6746  -63.3476    5.7656  S     
8    N       -47.7878  -64.9865    6.1120  N     
9    O       -46.9205  -63.2354    4.3683  O     
10   O       -46.7815  -62.6070    6.8519  O     
11   S       -53.0389  -60.1691    4.8305  S     
12   C       -52.4274  -58.5298    4.8101  C     
13   C       -52.8396  -63.3204    5.2678  C     
14   N       -52.8920  -64.5493    4.7503  N     
15   O       -53.8156  -62.8768    5.8616  O     
16   C       -53.9518  -65.5085    4.8949  C     
17   C       -53.6759  -66.5430    6.0189  C     
18   C       -51.2759  -58.2029    4.0579  C     
19   C       -50.7157  -56.9126    4.1491  C     
20   C       -51.3467  -55.9172    4.9160  C     
21   C       -52.5492  -56.2085    5.5839  C     
22   C       -53.0779  -57.5140    5.5569  C     
23   F       -49.5902  -56.6514    3.5461  F     
24   C       -52.5661  -66.1585    7.0250  C     
25   O       -53.1349  -65.5595    8.2058  O     
26   C       -52.1717  -65.1196    9.1781  C     
27   F       -54.1564  -57.7734    6.2531  F     
28   F       -53.1509  -55.2622    6.2516  F     
29   F       -50.6709  -59.1015    3.3313  F     
30   H       -50.3841  -64.2576    5.4891  H     
31   H       -48.3982  -60.5654    5.6200  H     
32   H       -47.0466  -65.5691    5.8946  H     
33   H       -48.6495  -65.3817    6.3075  H     
34   H       -52.1206  -64.8416    4.2456  H     
35   H       -54.9163  -65.0349    5.0960  H     
36   H       -54.0447  -66.0464    3.9479  H     
37   H       -54.6008  -66.6999    6.5787  H     
38   H       -53.4065  -67.4985    5.5651  H     
39   H       -50.9249  -54.9895    4.9909  H     
40   H       -52.0203  -67.0611    7.3147  H     
41   H       -51.8629  -65.4829    6.5287  H     
42   H       -51.4311  -65.8921    9.4011  H     
43   H       -52.6969  -64.8749   10.1016  H     
44   H       -51.6629  -64.2220    8.8206  H     
@<TRIPOS>BOND
     1    1    2 2
     2    1    6 1
     3    2    3 1
     4    2    7 1
     5    3    4 2
     6    4    5 1
     7    5    6 2
     8    5   11 1
     9    6   13 1
    10    7    8 am
    11    7    9 2
    12    7   10 2
    13   11   12 1
    14   12   18 2
    15   12   22 1
    16   13   14 am
    17   13   15 2
    18   14   16 1
    19   16   17 1
    20   17   24 1
    21   18   19 1
    22   18   29 1
    23   19   20 2
    24   19   23 1
    25   20   21 1
    26   21   22 2
    27   21   28 1
    28   22   27 1
    29   24   25 1
    30   25   26 1
    31    1   30 1
    32    3   31 1
    33    8   32 1
    34    8   33 1
    35   14   34 1
    36   16   35 1
    37   16   36 1
    38   17   37 1
    39   17   38 1
    40   20   39 1
    41   24   40 1
    42   24   41 1
    43   26   42 1
    44   26   43 1
    45   26   44 1
@<TRIPOS>PROPERTY_DATA
  Total_Score	| 8.9504
  Crash		| -2.3426
  Polar		| 4.1850
  FragIndex	| 1
  FragRMSD	| 0.470

