@<TRIPOS>MOLECULE
BindingDB_50317410
 46 47 0 0 0
SMALL
NO_CHARGES


@<TRIPOS>ATOM
1    C       -50.2552  -62.9771    5.3997  C     
2    C       -49.0924  -62.1868    5.5167  C     
3    C       -49.2411  -60.7910    5.5022  C     
4    N       -50.4720  -60.2389    5.3168  N     
5    C       -51.6189  -60.9694    5.1975  C     
6    C       -51.5395  -62.3889    5.2700  C     
7    S       -47.5276  -62.9355    5.6694  S     
8    N       -46.3530  -61.9512    6.3515  N     
9    O       -47.5663  -64.3173    6.4560  O     
10   O       -47.0400  -63.2209    4.1895  O     
11   S       -53.1212  -60.1195    4.8751  S     
12   C       -52.5700  -58.4630    4.7649  C     
13   C       -52.6684  -63.2038    5.3215  C     
14   N       -52.6780  -64.3781    4.7032  N     
15   O       -53.6064  -62.8461    6.0197  O     
16   C       -53.6820  -65.3998    4.7998  C     
17   C       -51.4661  -58.1249    3.9490  C     
18   C       -50.9614  -56.8047    3.9586  C     
19   C       -51.5619  -55.8212    4.7640  C     
20   C       -52.6978  -56.1419    5.5311  C     
21   C       -53.2021  -57.4587    5.5353  C     
22   F       -49.9259  -56.4823    3.2273  F     
23   F       -54.2560  -57.7332    6.2620  F     
24   F       -53.2903  -55.1999    6.2140  F     
25   F       -50.8656  -59.0382    3.2341  F     
26   C       -53.6073  -66.3499    6.0401  C     
27   C       -52.4929  -66.0490    7.0781  C     
28   C       -51.9090  -67.3047    7.7682  C     
29   N       -50.6513  -66.9704    8.4537  N     
30   H       -50.1668  -63.9922    5.4623  H     
31   H       -48.4306  -60.1724    5.5955  H     
32   H       -45.4227  -62.0842    6.1022  H     
33   H       -46.6128  -61.0975    6.7332  H     
34   H       -51.9135  -64.5781    4.1327  H     
35   H       -54.6739  -64.9525    4.7263  H     
36   H       -53.5513  -66.0045    3.8986  H     
37   H       -51.1892  -54.8689    4.7747  H     
38   H       -54.5682  -66.3222    6.5602  H     
39   H       -53.4829  -67.3749    5.6731  H     
40   H       -51.6628  -65.5442    6.5833  H     
41   H       -52.8887  -65.3737    7.8434  H     
42   H       -52.6107  -67.7064    8.5012  H     
43   H       -51.6921  -68.0764    7.0229  H     
44   H       -50.0173  -66.4920    7.8060  H     
45   H       -50.2007  -67.8253    8.7918  H     
46   H       -50.8488  -66.3559    9.2493  H     
@<TRIPOS>BOND
     1    1    2 2
     2    1    6 1
     3    2    3 1
     4    2    7 1
     5    3    4 2
     6    4    5 1
     7    5    6 2
     8    5   11 1
     9    6   13 1
    10    7    8 am
    11    7    9 2
    12    7   10 2
    13   11   12 1
    14   12   17 2
    15   12   21 1
    16   13   14 am
    17   13   15 2
    18   14   16 1
    19   16   26 1
    20   17   18 1
    21   17   25 1
    22   18   19 2
    23   18   22 1
    24   19   20 1
    25   20   21 2
    26   20   24 1
    27   21   23 1
    28   26   27 1
    29   27   28 1
    30   28   29 1
    31    1   30 1
    32    3   31 1
    33    8   32 1
    34    8   33 1
    35   14   34 1
    36   16   35 1
    37   16   36 1
    38   19   37 1
    39   26   38 1
    40   26   39 1
    41   27   40 1
    42   27   41 1
    43   28   42 1
    44   28   43 1
    45   29   44 1
    46   29   45 1
    47   29   46 1
@<TRIPOS>PROPERTY_DATA
  Total_Score	| 7.8924
  Crash		| -2.3037
  Polar		| 3.6643
  FragIndex	| 1
  FragRMSD	| 0.937

