@<TRIPOS>MOLECULE
BindingDB_50317398
 46 47 0 0 0
SMALL
NO_CHARGES


@<TRIPOS>ATOM
1    C       -50.1688  -63.0183    5.3992  C     
2    C       -48.9979  -62.2406    5.5456  C     
3    C       -49.1181  -60.8393    5.5190  C     
4    N       -50.3281  -60.2685    5.3080  N     
5    C       -51.4785  -60.9873    5.1658  C     
6    C       -51.4475  -62.4143    5.2563  C     
7    S       -47.4332  -62.9883    5.6888  S     
8    N       -46.2967  -62.0869    6.5334  N     
9    O       -47.4848  -64.3899    6.4344  O     
10   O       -46.8473  -63.2812    4.2403  O     
11   S       -52.9110  -60.0578    4.7829  S     
12   C       -52.2936  -58.4255    4.7493  C     
13   C       -52.6047  -63.2127    5.3007  C     
14   N       -52.6117  -64.4829    4.8851  N     
15   O       -53.5830  -62.7930    5.9077  O     
16   C       -53.6366  -65.4663    5.0953  C     
17   C       -53.2943  -66.4751    6.2444  C     
18   C       -52.8062  -57.4561    5.6379  C     
19   C       -52.2652  -56.1552    5.6633  C     
20   C       -51.2267  -55.8073    4.7812  C     
21   C       -50.7331  -56.7623    3.8709  C     
22   C       -51.2534  -58.0700    3.8630  C     
23   N       -52.0886  -66.1355    7.0727  N     
24   C       -52.3357  -65.0356    8.0533  C     
25   C       -51.4884  -67.3283    7.7438  C     
26   H       -50.0793  -64.0382    5.4320  H     
27   H       -48.2925  -60.2359    5.6301  H     
28   H       -46.1452  -62.2714    7.4775  H     
29   H       -45.7091  -61.4774    6.0535  H     
30   H       -51.8326  -64.7964    4.4033  H     
31   H       -54.6099  -65.0036    5.3039  H     
32   H       -53.7428  -66.0194    4.1522  H     
33   H       -54.1758  -66.5795    6.8949  H     
34   H       -53.1480  -67.4521    5.7722  H     
35   H       -53.5576  -57.6970    6.2930  H     
36   H       -52.6272  -55.4697    6.3246  H     
37   H       -50.8336  -54.8633    4.7997  H     
38   H       -49.9766  -56.5086    3.2298  H     
39   H       -50.8572  -58.7545    3.2203  H     
40   H       -51.3774  -65.7963    6.4222  H     
41   H       -52.8759  -64.2025    7.5914  H     
42   H       -51.3797  -64.6466    8.4132  H     
43   H       -52.9140  -65.3921    8.9128  H     
44   H       -52.1975  -67.7902    8.4368  H     
45   H       -50.5922  -67.0435    8.2980  H     
46   H       -51.1880  -68.0737    7.0058  H     
@<TRIPOS>BOND
     1    1    2 2
     2    1    6 1
     3    2    3 1
     4    2    7 1
     5    3    4 2
     6    4    5 1
     7    5    6 2
     8    5   11 1
     9    6   13 1
    10    7    8 am
    11    7    9 2
    12    7   10 2
    13   11   12 1
    14   12   18 2
    15   12   22 1
    16   13   14 am
    17   13   15 2
    18   14   16 1
    19   16   17 1
    20   17   23 1
    21   18   19 1
    22   19   20 2
    23   20   21 1
    24   21   22 2
    25   23   24 1
    26   23   25 1
    27    1   26 1
    28    3   27 1
    29    8   28 1
    30    8   29 1
    31   14   30 1
    32   16   31 1
    33   16   32 1
    34   17   33 1
    35   17   34 1
    36   18   35 1
    37   19   36 1
    38   20   37 1
    39   21   38 1
    40   22   39 1
    41   23   40 1
    42   24   41 1
    43   24   42 1
    44   24   43 1
    45   25   44 1
    46   25   45 1
    47   25   46 1
@<TRIPOS>PROPERTY_DATA
  Total_Score	| 8.5760
  Crash		| -1.8601
  Polar		| 3.5039
  FragIndex	| 1
  FragRMSD	| 0.902

