@<TRIPOS>MOLECULE
BindingDB_50317399
 41 42 0 0 0
SMALL
NO_CHARGES


@<TRIPOS>ATOM
1    C       -50.0670  -62.9999    5.4921  C     
2    C       -48.8778  -62.2327    5.5592  C     
3    C       -48.9804  -60.8352    5.4314  C     
4    N       -50.1855  -60.2695    5.2198  N     
5    C       -51.3510  -60.9653    5.1425  C     
6    C       -51.3437  -62.3805    5.3367  C     
7    S       -47.2956  -62.9614    5.7203  S     
8    N       -46.2654  -62.0455    6.6820  N     
9    O       -47.3687  -64.3656    6.4512  O     
10   O       -46.6439  -63.1232    4.2846  O     
11   S       -52.8066  -60.0654    4.7354  S     
12   C       -52.2337  -58.4206    4.7496  C     
13   C       -52.5068  -63.1402    5.4392  C     
14   N       -52.5868  -64.3981    5.0126  N     
15   O       -53.4393  -62.6743    6.0977  O     
16   C       -53.7100  -65.2874    5.1703  C     
17   C       -53.5782  -66.2157    6.3997  C     
18   C       -52.7827  -57.4866    5.6491  C     
19   C       -52.2878  -56.1695    5.6789  C     
20   C       -51.2447  -55.7842    4.8140  C     
21   C       -50.7020  -56.7218    3.9134  C     
22   C       -51.2029  -58.0316    3.8729  C     
23   O       -53.5189  -65.5635    7.6782  O     
24   C       -52.1860  -65.3132    8.1937  C     
25   H       -50.0117  -64.0126    5.5979  H     
26   H       -48.1429  -60.2402    5.4775  H     
27   H       -45.4641  -62.4628    7.0391  H     
28   H       -46.5235  -61.1568    6.9723  H     
29   H       -51.8513  -64.7383    4.4831  H     
30   H       -54.6682  -64.7489    5.2626  H     
31   H       -53.7762  -65.9141    4.2640  H     
32   H       -54.4862  -66.8282    6.4369  H     
33   H       -52.7498  -66.9162    6.2539  H     
34   H       -53.5337  -57.7498    6.2946  H     
35   H       -52.6919  -55.4880    6.3206  H     
36   H       -50.8913  -54.8251    4.8284  H     
37   H       -49.9476  -56.4461    3.2850  H     
38   H       -50.7893  -58.7048    3.2227  H     
39   H       -51.5601  -66.2243    8.1805  H     
40   H       -52.2798  -64.9724    9.2417  H     
41   H       -51.7036  -64.5137    7.5991  H     
@<TRIPOS>BOND
     1    1    2 2
     2    1    6 1
     3    2    3 1
     4    2    7 1
     5    3    4 2
     6    4    5 1
     7    5    6 2
     8    5   11 1
     9    6   13 1
    10    7    8 am
    11    7    9 2
    12    7   10 2
    13   11   12 1
    14   12   18 2
    15   12   22 1
    16   13   14 am
    17   13   15 2
    18   14   16 1
    19   16   17 1
    20   17   23 1
    21   18   19 1
    22   19   20 2
    23   20   21 1
    24   21   22 2
    25   23   24 1
    26    1   25 1
    27    3   26 1
    28    8   27 1
    29    8   28 1
    30   14   29 1
    31   16   30 1
    32   16   31 1
    33   17   32 1
    34   17   33 1
    35   18   34 1
    36   19   35 1
    37   20   36 1
    38   21   37 1
    39   22   38 1
    40   24   39 1
    41   24   40 1
    42   24   41 1
@<TRIPOS>PROPERTY_DATA
  Total_Score	| 8.2498
  Crash		| -1.5179
  Polar		| 4.6796
  FragIndex	| 1
  FragRMSD	| 0.902

