@<TRIPOS>MOLECULE
BindingDB_11605
 19 19 0 0 0
SMALL
NO_CHARGES


@<TRIPOS>ATOM
1    C        16.9805    6.4818   14.0180  C     
2    C        15.5808    6.3469   14.1918  C     
3    C        15.0653    5.2712   14.9413  C     
4    C        15.9270    4.3314   15.5299  C     
5    C        17.3167    4.4580   15.3410  C     
6    C        17.8458    5.5297   14.5960  C     
7    N        17.4984    7.5067   13.3105  N     
8    N        13.6998    3.2336   16.9784  N     
9    S        15.3016    3.0425   16.5132  S     
10   O        15.3700    1.6915   15.6787  O     
11   O        16.1595    2.8748   17.8433  O     
12   F        19.1419    5.6268   14.4579  F     
13   Cl       14.4933    7.4646   13.5248  Cl    
14   H        14.0503    5.1864   15.0654  H     
15   H        17.9589    3.7753   15.7578  H     
16   H        18.4610    7.5943   13.2016  H     
17   H        16.9110    8.1689   12.9142  H     
18   H        13.3165    2.5832   17.5920  H     
19   H        13.2986    4.1142   16.9248  H     
@<TRIPOS>BOND
     1    1    2 2
     2    1    6 1
     3    1    7 1
     4    2    3 1
     5    2   13 1
     6    3    4 2
     7    4    5 1
     8    4    9 1
     9    5    6 2
    10    6   12 1
    11    8    9 am
    12    9   10 2
    13    9   11 2
    14    3   14 1
    15    5   15 1
    16    7   16 1
    17    7   17 1
    18    8   18 1
    19    8   19 1
@<TRIPOS>PROPERTY_DATA
  Total_Score	| 4.0595
  Crash		| -0.4241
  Polar		| 2.9855
  FragIndex	| 1
  FragRMSD	| 1.096

