@<TRIPOS>MOLECULE
BindingDB_50160668
 22 22 0 0 0
SMALL
NO_CHARGES


@<TRIPOS>ATOM
1    S        15.2418    3.0163   16.5453  S     
2    C        15.9137    4.2503   15.5284  C     
3    O        15.4061    1.6745   15.7213  O     
4    O        16.0294    2.8032   17.9084  O     
5    N        13.5882    3.1093   16.7941  N     
6    C        15.0785    5.2064   14.9142  C     
7    C        17.3070    4.3521   15.3793  C     
8    C        17.0369    6.4400   14.1117  C     
9    N        17.4897    7.5587   13.4919  N     
10   C        15.6400    6.2769   14.1923  C     
11   C        17.8676    5.4557   14.7047  C     
12   C        18.3598    8.5410   14.0585  C     
13   H        13.0457    2.3108   16.7100  H     
14   H        13.1864    3.9501   17.1033  H     
15   H        14.0612    5.1560   15.0102  H     
16   H        17.9171    3.6437   15.7924  H     
17   H        17.1158    7.7565   12.6080  H     
18   H        15.0063    6.9755   13.7741  H     
19   H        18.8854    5.5108   14.6431  H     
20   H        17.8035    9.1304   14.8026  H     
21   H        18.6855    9.2001   13.2563  H     
22   H        19.2697    8.1057   14.5235  H     
@<TRIPOS>BOND
     1    1    2 1
     2    1    3 2
     3    1    4 2
     4    1    5 am
     5    2    6 2
     6    2    7 1
     7    6   10 1
     8    7   11 2
     9    8    9 1
    10    8   10 2
    11    8   11 1
    12    9   12 1
    13    5   13 1
    14    5   14 1
    15    6   15 1
    16    7   16 1
    17    9   17 1
    18   10   18 1
    19   11   19 1
    20   12   20 1
    21   12   21 1
    22   12   22 1
@<TRIPOS>PROPERTY_DATA
  Total_Score	| 4.2647
  Crash		| -0.3279
  Polar		| 2.9272
  FragIndex	| 1
  FragRMSD	| 1.136

