@<TRIPOS>MOLECULE
BindingDB_50318576
 47 50 0 0 0
SMALL
NO_CHARGES


@<TRIPOS>ATOM
1    C        -4.9278   30.3734   -8.8998  C     
2    C        -4.4323   31.3792   -9.7611  C     
3    N        -3.7133   32.4197   -9.2734  N     
4    C        -4.6838   30.4452   -7.4924  C     
5    N        -3.4587   31.9289   -5.8307  N     
6    C        -3.8689   31.5254   -7.0535  C     
7    C        -3.4366   32.4914   -7.9557  C     
8    N        -2.7814   33.4260   -7.2725  N     
9    C        -2.7754   33.0892   -5.9715  C     
10   N        -5.2269   29.5585   -6.6001  N     
11   C        -4.4456   28.9610   -5.5366  C     
12   C        -5.0978   29.2229   -4.1604  C     
13   N        -6.5060   28.7693   -4.1806  N     
14   C        -7.3080   29.3740   -5.2692  C     
15   C        -6.6274   29.1651   -6.6472  C     
16   Br       -5.6985   28.8986   -9.7533  Br    
17   C        -2.1790   33.8608   -4.9352  C     
18   C        -1.2022   34.8360   -5.2439  C     
19   C        -0.6695   35.6708   -4.2478  C     
20   C        -1.0463   35.5717   -2.8829  C     
21   C        -1.9819   34.5386   -2.5812  C     
22   C        -2.5403   33.7091   -3.5793  C     
23   N        -0.5314   36.4375   -1.9239  N     
24   C        -1.0040   36.4199   -0.5487  C     
25   C         0.4843   37.4294   -2.2503  C     
26   H        -4.5906   31.3229  -10.7696  H     
27   H        -2.4117   34.2343   -7.6527  H     
28   H        -4.4237   27.8826   -5.7065  H     
29   H        -3.4039   29.2876   -5.5161  H     
30   H        -4.5605   28.6677   -3.3908  H     
31   H        -5.0421   30.2858   -3.9163  H     
32   H        -6.5087   27.7520   -4.2976  H     
33   H        -6.9357   28.9915   -3.2789  H     
34   H        -8.3003   28.9147   -5.2749  H     
35   H        -7.4374   30.4439   -5.0711  H     
36   H        -7.2021   29.7458   -7.3709  H     
37   H        -6.6980   28.1126   -6.9267  H     
38   H        -0.8636   34.9645   -6.1989  H     
39   H         0.0075   36.3656   -4.5549  H     
40   H        -2.2973   34.3848   -1.6223  H     
41   H        -3.2398   33.0109   -3.3048  H     
42   H        -2.0619   36.7104   -0.5184  H     
43   H        -0.4669   37.0939    0.1242  H     
44   H        -0.8884   35.4140   -0.1286  H     
45   H         1.3984   36.9336   -2.5870  H     
46   H         0.7690   38.0883   -1.4251  H     
47   H         0.1149   38.0805   -3.0508  H     
@<TRIPOS>BOND
     1    1    2 2
     2    1    4 1
     3    1   16 1
     4    2    3 1
     5    3    7 2
     6    4    6 2
     7    4   10 1
     8    5    6 1
     9    5    9 2
    10    6    7 1
    11    7    8 1
    12    8    9 1
    13    9   17 1
    14   10   11 1
    15   10   15 1
    16   11   12 1
    17   12   13 1
    18   13   14 1
    19   14   15 1
    20   17   18 2
    21   17   22 1
    22   18   19 1
    23   19   20 2
    24   20   21 1
    25   20   23 1
    26   21   22 2
    27   23   24 1
    28   23   25 1
    29    2   26 1
    30    8   27 1
    31   11   28 1
    32   11   29 1
    33   12   30 1
    34   12   31 1
    35   13   32 1
    36   13   33 1
    37   14   34 1
    38   14   35 1
    39   15   36 1
    40   15   37 1
    41   18   38 1
    42   19   39 1
    43   21   40 1
    44   22   41 1
    45   24   42 1
    46   24   43 1
    47   24   44 1
    48   25   45 1
    49   25   46 1
    50   25   47 1
@<TRIPOS>PROPERTY_DATA
  Total_Score	| 5.9143
  Crash		| -1.2342
  Polar		| 1.8751
  FragIndex	| 1
  FragRMSD	| 0.652

