@<TRIPOS>MOLECULE
BindingDB_50318604
 63 67 0 0 0
SMALL
NO_CHARGES


@<TRIPOS>ATOM
1    C        -4.8574   30.4259   -8.5962  C     
2    C        -4.1994   31.2264   -9.5594  C     
3    N        -3.3201   32.1921   -9.1750  N     
4    C        -4.5773   30.6167   -7.2180  C     
5    N        -3.1961   32.0597   -5.6852  N     
6    C        -3.6394   31.6111   -6.8730  C     
7    C        -3.0426   32.3833   -7.8631  C     
8    N        -2.2518   33.2691   -7.2536  N     
9    C        -2.3407   33.0812   -5.9191  C     
10   N        -5.1693   29.8687   -6.2499  N     
11   C        -6.5560   30.0607   -5.9051  C     
12   C        -6.6655   30.3698   -4.3839  C     
13   N        -6.0239   29.2793   -3.5774  N     
14   C        -4.5911   29.0793   -3.9854  C     
15   C        -4.4224   28.8831   -5.5118  C     
16   Br       -5.9963   29.0790   -9.1998  Br    
17   C        -1.6941   33.8664   -4.9282  C     
18   C        -0.7534   34.8600   -5.2895  C     
19   C        -0.1584   35.6805   -4.3126  C     
20   C        -0.4981   35.5533   -2.9479  C     
21   C        -1.4308   34.5564   -2.5833  C     
22   C        -2.0090   33.7164   -3.5565  C     
23   C         0.1405   36.4345   -1.9243  C     
24   N        -0.6251   37.6677   -1.5509  N     
25   C        -6.1370   29.3902   -2.0827  C     
26   C        -7.3773   29.9844   -1.5414  C     
27   N        -8.6296   29.4986   -1.6611  N     
28   O        -9.4741   30.3117   -1.0758  O     
29   C        -8.8014   31.3597   -0.5344  C     
30   C        -7.4577   31.1581   -0.8032  C     
31   C        -9.4007   32.5054    0.1603  C     
32   C        -0.8773   38.5945   -2.6948  C     
33   C        -1.8682   37.3895   -0.7766  C     
34   H        -4.3756   31.0890  -10.5548  H     
35   H        -1.7360   33.9595   -7.7033  H     
36   H        -7.0171   30.8786   -6.4699  H     
37   H        -7.1121   29.1467   -6.1372  H     
38   H        -6.1870   31.3316   -4.1749  H     
39   H        -7.7242   30.4553   -4.1314  H     
40   H        -6.5213   28.4233   -3.8339  H     
41   H        -3.9905   29.9430   -3.6835  H     
42   H        -4.1827   28.1959   -3.4849  H     
43   H        -4.7972   27.8956   -5.7838  H     
44   H        -3.3552   28.9108   -5.7493  H     
45   H        -0.4848   35.0014   -6.2676  H     
46   H         0.5178   36.3871   -4.6129  H     
47   H        -1.7041   34.4383   -1.6042  H     
48   H        -2.6777   33.0047   -3.2488  H     
49   H         0.3402   35.8530   -1.0219  H     
50   H         1.1216   36.7420   -2.2922  H     
51   H        -0.0180   38.1822   -0.9100  H     
52   H        -6.0612   28.3818   -1.6621  H     
53   H        -5.2927   29.9677   -1.6848  H     
54   H        -6.6801   31.7742   -0.5477  H     
55   H        -9.9979   33.0780   -0.5499  H     
56   H        -8.6309   33.1581    0.5805  H     
57   H       -10.0401   32.1560    0.9714  H     
58   H         0.0606   38.8488   -3.1945  H     
59   H        -1.3214   39.5283   -2.3387  H     
60   H        -1.5530   38.1451   -3.4263  H     
61   H        -2.6211   36.8943   -1.3945  H     
62   H        -2.2839   38.3247   -0.3898  H     
63   H        -1.6506   36.7537    0.0860  H     
@<TRIPOS>BOND
     1    1    2 2
     2    1    4 1
     3    1   16 1
     4    2    3 1
     5    3    7 2
     6    4    6 2
     7    4   10 1
     8    5    6 1
     9    5    9 2
    10    6    7 1
    11    7    8 1
    12    8    9 1
    13    9   17 1
    14   10   11 1
    15   10   15 1
    16   11   12 1
    17   12   13 1
    18   13   14 1
    19   13   25 1
    20   14   15 1
    21   17   18 2
    22   17   22 1
    23   18   19 1
    24   19   20 2
    25   20   21 1
    26   20   23 1
    27   21   22 2
    28   23   24 1
    29   24   32 1
    30   24   33 1
    31   25   26 1
    32   26   27 2
    33   26   30 1
    34   27   28 1
    35   28   29 1
    36   29   30 2
    37   29   31 1
    38    2   34 1
    39    8   35 1
    40   11   36 1
    41   11   37 1
    42   12   38 1
    43   12   39 1
    44   13   40 1
    45   14   41 1
    46   14   42 1
    47   15   43 1
    48   15   44 1
    49   18   45 1
    50   19   46 1
    51   21   47 1
    52   22   48 1
    53   23   49 1
    54   23   50 1
    55   24   51 1
    56   25   52 1
    57   25   53 1
    58   30   54 1
    59   31   55 1
    60   31   56 1
    61   31   57 1
    62   32   58 1
    63   32   59 1
    64   32   60 1
    65   33   61 1
    66   33   62 1
    67   33   63 1
@<TRIPOS>PROPERTY_DATA
  Total_Score	| 8.6182
  Crash		| -1.1419
  Polar		| 1.1856
  FragIndex	| 1
  FragRMSD	| 0.370

