@<TRIPOS>MOLECULE
BindingDB_50318603
 70 75 0 0 0
SMALL
NO_CHARGES


@<TRIPOS>ATOM
1    C        -4.9919   30.4548   -8.8625  C     
2    C        -4.3968   31.3976   -9.7277  C     
3    N        -3.6901   32.4480   -9.2357  N     
4    C        -4.8878   30.6181   -7.4459  C     
5    N        -3.7104   32.0837   -5.7686  N     
6    C        -4.1219   31.7242   -7.0010  C     
7    C        -3.5427   32.6026   -7.9028  C     
8    N        -2.8411   33.4933   -7.2036  N     
9    C        -2.9113   33.1613   -5.8973  C     
10   N        -5.4240   29.7647   -6.5167  N     
11   C        -5.2945   28.3335   -6.6381  C     
12   C        -6.6914   27.6827   -6.5188  C     
13   N        -7.3563   28.0367   -5.2207  N     
14   C        -7.4317   29.5336   -5.0809  C     
15   C        -6.0637   30.2442   -5.3047  C     
16   Br       -6.0245   29.1385   -9.6949  Br    
17   C        -2.2253   33.8122   -4.8418  C     
18   C        -1.2816   34.8262   -5.1130  C     
19   C        -0.6362   35.5053   -4.0670  C     
20   C        -0.9207   35.1998   -2.7175  C     
21   C        -1.8081   34.1375   -2.4452  C     
22   C        -2.4552   33.4508   -3.4914  C     
23   C        -0.2849   35.9826   -1.6183  C     
24   N        -0.7882   37.3792   -1.4219  N     
25   C        -0.7482   38.2466   -2.6446  C     
26   C        -1.1165   39.7039   -2.2985  C     
27   N        -2.4342   39.7555   -1.6265  N     
28   C        -2.5062   38.9194   -0.4123  C     
29   C        -2.1108   37.4508   -0.7209  C     
30   C        -6.8519   27.3596   -3.9747  C     
31   C        -6.4170   25.9506   -4.1004  C     
32   N        -5.2369   25.4882   -3.6557  N     
33   O        -5.0689   24.2508   -4.0338  O     
34   C        -6.1400   23.8539   -4.7611  C     
35   C        -7.0358   24.9108   -4.7898  C     
36   C        -6.2136   22.5584   -5.4450  C     
37   H        -4.5017   31.3105  -10.7374  H     
38   H        -2.3530   34.2435   -7.5761  H     
39   H        -4.8177   28.0150   -7.5653  H     
40   H        -4.6538   27.9749   -5.8272  H     
41   H        -7.3306   28.0223   -7.3355  H     
42   H        -6.6032   26.6070   -6.6492  H     
43   H        -8.3242   27.7199   -5.3257  H     
44   H        -8.1346   29.9152   -5.8272  H     
45   H        -7.8251   29.8160   -4.0981  H     
46   H        -5.4066   30.0502   -4.4540  H     
47   H        -6.2497   31.3235   -5.3425  H     
48   H        -1.0428   35.0825   -6.0754  H     
49   H         0.0388   36.2370   -4.2984  H     
50   H        -2.0012   33.8640   -1.4785  H     
51   H        -3.1039   32.6959   -3.2547  H     
52   H        -0.3871   35.4411   -0.6767  H     
53   H         0.7945   36.0279   -1.7998  H     
54   H        -0.1229   37.8069   -0.7731  H     
55   H         0.2563   38.2345   -3.0777  H     
56   H        -1.4538   37.8831   -3.3995  H     
57   H        -0.3538   40.1327   -1.6430  H     
58   H        -1.1606   40.3012   -3.2116  H     
59   H        -2.6420   40.7255   -1.3749  H     
60   H        -3.1492   39.4307   -2.2826  H     
61   H        -1.8412   39.3335    0.3522  H     
62   H        -3.5292   38.9525   -0.0286  H     
63   H        -2.8946   36.9841   -1.3218  H     
64   H        -2.0515   36.9143    0.2296  H     
65   H        -6.0108   27.9201   -3.5568  H     
66   H        -7.6549   27.3852   -3.2345  H     
67   H        -7.9225   24.9565   -5.2962  H     
68   H        -5.3206   22.4450   -6.0608  H     
69   H        -7.0957   22.5070   -6.0845  H     
70   H        -6.2463   21.7493   -4.7135  H     
@<TRIPOS>BOND
     1    1    2 2
     2    1    4 1
     3    1   16 1
     4    2    3 1
     5    3    7 2
     6    4    6 2
     7    4   10 1
     8    5    6 1
     9    5    9 2
    10    6    7 1
    11    7    8 1
    12    8    9 1
    13    9   17 1
    14   10   11 1
    15   10   15 1
    16   11   12 1
    17   12   13 1
    18   13   14 1
    19   13   30 1
    20   14   15 1
    21   17   18 2
    22   17   22 1
    23   18   19 1
    24   19   20 2
    25   20   21 1
    26   20   23 1
    27   21   22 2
    28   23   24 1
    29   24   25 1
    30   24   29 1
    31   25   26 1
    32   26   27 1
    33   27   28 1
    34   28   29 1
    35   30   31 1
    36   31   32 2
    37   31   35 1
    38   32   33 1
    39   33   34 1
    40   34   35 2
    41   34   36 1
    42    2   37 1
    43    8   38 1
    44   11   39 1
    45   11   40 1
    46   12   41 1
    47   12   42 1
    48   13   43 1
    49   14   44 1
    50   14   45 1
    51   15   46 1
    52   15   47 1
    53   18   48 1
    54   19   49 1
    55   21   50 1
    56   22   51 1
    57   23   52 1
    58   23   53 1
    59   24   54 1
    60   25   55 1
    61   25   56 1
    62   26   57 1
    63   26   58 1
    64   27   59 1
    65   27   60 1
    66   28   61 1
    67   28   62 1
    68   29   63 1
    69   29   64 1
    70   30   65 1
    71   30   66 1
    72   35   67 1
    73   36   68 1
    74   36   69 1
    75   36   70 1
@<TRIPOS>PROPERTY_DATA
  Total_Score	| 9.3317
  Crash		| -2.6861
  Polar		| 1.8285
  FragIndex	| 1
  FragRMSD	| 0.930

