@<TRIPOS>MOLECULE
BindingDB_50318594
 55 59 0 0 0
SMALL
NO_CHARGES


@<TRIPOS>ATOM
1    C        -4.8996   30.3282   -8.8326  C     
2    C        -4.3619   31.3320   -9.6763  C     
3    N        -3.6725   32.3821   -9.1826  N     
4    C        -4.7725   30.4148   -7.3935  C     
5    N        -3.5033   31.9152   -5.7612  N     
6    C        -3.9640   31.5208   -6.9666  C     
7    C        -3.4672   32.4713   -7.8580  C     
8    N        -2.7840   33.3963   -7.1811  N     
9    C        -2.7804   33.0465   -5.8844  C     
10   N        -5.3684   29.5506   -6.4629  N     
11   C        -4.8258   29.3771   -5.1167  C     
12   C        -5.5325   28.4460   -4.0885  C     
13   N        -6.3021   27.3572   -4.7439  N     
14   C        -7.2794   27.9747   -5.6803  C     
15   C        -6.5370   28.7542   -6.7952  C     
16   Br       -5.6234   28.9433   -9.8593  Br    
17   C        -2.0922   33.6954   -4.8253  C     
18   C        -2.4372   33.4367   -3.4771  C     
19   C        -1.7046   34.0016   -2.4182  C     
20   C        -0.6168   34.8511   -2.6838  C     
21   C        -0.2696   35.1309   -4.0201  C     
22   C        -1.0050   34.5664   -5.0792  C     
23   C        -6.9174   26.4111   -3.7563  C     
24   C        -7.0274   25.0323   -4.2711  C     
25   O         0.1509   35.2990   -1.6462  O     
26   N        -8.1759   24.3724   -4.4984  N     
27   O        -7.9133   23.1677   -4.9346  O     
28   C        -6.5746   22.9938   -5.0111  C     
29   C        -5.9837   24.1740   -4.5846  C     
30   C        -5.9211   21.7545   -5.4518  C     
31   C        -0.3592   36.4938   -1.0264  C     
32   H        -4.4652   31.2748  -10.6905  H     
33   H        -2.3644   34.1817   -7.5638  H     
34   H        -3.8009   29.0071   -5.2278  H     
35   H        -4.7959   30.3535   -4.6274  H     
36   H        -4.7688   28.0194   -3.4306  H     
37   H        -6.2052   29.0411   -3.4580  H     
38   H        -5.6351   26.8195   -5.2995  H     
39   H        -7.8979   27.2073   -6.1555  H     
40   H        -7.9550   28.6487   -5.1431  H     
41   H        -7.2934   29.4034   -7.2412  H     
42   H        -6.2177   28.0036   -7.5209  H     
43   H        -3.2154   32.8127   -3.2445  H     
44   H        -1.9536   33.7783   -1.4527  H     
45   H         0.5367   35.7249   -4.2242  H     
46   H        -0.7122   34.7755   -6.0363  H     
47   H        -6.3021   26.3570   -2.8533  H     
48   H        -7.9064   26.7681   -3.4544  H     
49   H        -4.9852   24.3676   -4.4942  H     
50   H        -6.1404   20.9555   -4.7422  H     
51   H        -4.8400   21.8863   -5.5203  H     
52   H        -6.3062   21.4711   -6.4309  H     
53   H        -0.4091   37.3236   -1.7356  H     
54   H         0.3196   36.7758   -0.2218  H     
55   H        -1.3480   36.3237   -0.5928  H     
@<TRIPOS>BOND
     1    1    2 2
     2    1    4 1
     3    1   16 1
     4    2    3 1
     5    3    7 2
     6    4    6 2
     7    4   10 1
     8    5    6 1
     9    5    9 2
    10    6    7 1
    11    7    8 1
    12    8    9 1
    13    9   17 1
    14   10   11 1
    15   10   15 1
    16   11   12 1
    17   12   13 1
    18   13   14 1
    19   13   23 1
    20   14   15 1
    21   17   18 2
    22   17   22 1
    23   18   19 1
    24   19   20 2
    25   20   21 1
    26   20   25 1
    27   21   22 2
    28   23   24 1
    29   24   26 2
    30   24   29 1
    31   25   31 1
    32   26   27 1
    33   27   28 1
    34   28   29 2
    35   28   30 1
    36    2   32 1
    37    8   33 1
    38   11   34 1
    39   11   35 1
    40   12   36 1
    41   12   37 1
    42   13   38 1
    43   14   39 1
    44   14   40 1
    45   15   41 1
    46   15   42 1
    47   18   43 1
    48   19   44 1
    49   21   45 1
    50   22   46 1
    51   23   47 1
    52   23   48 1
    53   29   49 1
    54   30   50 1
    55   30   51 1
    56   30   52 1
    57   31   53 1
    58   31   54 1
    59   31   55 1
@<TRIPOS>PROPERTY_DATA
  Total_Score	| 8.9422
  Crash		| -1.7764
  Polar		| 3.3952
  FragIndex	| 1
  FragRMSD	| 0.915

