@<TRIPOS>MOLECULE
BindingDB_50318607
 59 63 0 0 0
SMALL
NO_CHARGES


@<TRIPOS>ATOM
1    C        -5.0299   30.4635   -8.9135  C     
2    C        -4.3458   31.3511   -9.7743  C     
3    N        -3.5291   32.3149   -9.2792  N     
4    C        -4.9073   30.6059   -7.4959  C     
5    N        -3.6071   31.9602   -5.8123  N     
6    C        -4.0467   31.6355   -7.0422  C     
7    C        -3.3693   32.4474   -7.9450  C     
8    N        -2.5669   33.2519   -7.2480  N     
9    C        -2.6917   32.9476   -5.9406  C     
10   N        -5.4881   29.7634   -6.5829  N     
11   C        -5.3624   28.3302   -6.6946  C     
12   C        -6.7642   27.6849   -6.5684  C     
13   N        -7.4182   28.0239   -5.2600  N     
14   C        -7.4864   29.5212   -5.1199  C     
15   C        -6.1188   30.2381   -5.3640  C     
16   Br       -6.1551   29.2293   -9.7459  Br    
17   C        -1.9587   33.5392   -4.8779  C     
18   C        -0.8566   34.3907   -5.1417  C     
19   C        -0.1391   34.9866   -4.0909  C     
20   C        -0.5241   34.7720   -2.7543  C     
21   C        -1.5833   33.8847   -2.4766  C     
22   C        -2.2956   33.2776   -3.5259  C     
23   O         0.1797   35.3494   -1.7325  O     
24   C        -6.9163   27.3240   -4.0247  C     
25   C        -6.4510   25.9235   -4.1771  C     
26   N        -5.2549   25.4922   -3.7541  N     
27   O        -5.0776   24.2500   -4.1093  O     
28   C        -6.1529   23.8134   -4.7941  C     
29   C        -7.0641   24.8538   -4.8326  C     
30   C        -6.2544   22.4642   -5.3639  C     
31   C        -0.3150   36.6429   -1.2960  C     
32   C        -0.0970   37.7929   -2.3116  C     
33   O        -1.2910   38.0707   -3.0334  O     
34   H        -4.4501   31.2715  -10.7845  H     
35   H        -1.9707   33.9173   -7.6253  H     
36   H        -4.8811   27.9999   -7.6199  H     
37   H        -4.7253   27.9761   -5.8769  H     
38   H        -7.3984   28.0509   -7.3763  H     
39   H        -6.6811   26.6133   -6.7321  H     
40   H        -8.3865   27.7088   -5.3595  H     
41   H        -8.1993   29.8992   -5.8586  H     
42   H        -7.8745   29.7984   -4.1348  H     
43   H        -5.4523   30.0505   -4.5202  H     
44   H        -6.3044   31.3149   -5.3996  H     
45   H        -0.5531   34.5774   -6.1009  H     
46   H         0.6611   35.5893   -4.2992  H     
47   H        -1.8358   33.6769   -1.5109  H     
48   H        -3.0636   32.6438   -3.2953  H     
49   H        -6.0890   27.8916   -3.5910  H     
50   H        -7.7260   27.3286   -3.2900  H     
51   H        -7.9751   24.8642   -5.3028  H     
52   H        -5.4016   22.2840   -6.0227  H     
53   H        -7.1775   22.3450   -5.9413  H     
54   H        -6.2394   21.7295   -4.5544  H     
55   H        -1.3703   36.5917   -1.0040  H     
56   H         0.2416   36.8947   -0.3914  H     
57   H         0.2004   38.7023   -1.7865  H     
58   H         0.6942   37.5136   -3.0102  H     
59   H        -1.0052   38.3433   -3.9310  H     
@<TRIPOS>BOND
     1    1    2 2
     2    1    4 1
     3    1   16 1
     4    2    3 1
     5    3    7 2
     6    4    6 2
     7    4   10 1
     8    5    6 1
     9    5    9 2
    10    6    7 1
    11    7    8 1
    12    8    9 1
    13    9   17 1
    14   10   11 1
    15   10   15 1
    16   11   12 1
    17   12   13 1
    18   13   14 1
    19   13   24 1
    20   14   15 1
    21   17   18 2
    22   17   22 1
    23   18   19 1
    24   19   20 2
    25   20   21 1
    26   20   23 1
    27   21   22 2
    28   23   31 1
    29   24   25 1
    30   25   26 2
    31   25   29 1
    32   26   27 1
    33   27   28 1
    34   28   29 2
    35   28   30 1
    36   31   32 1
    37   32   33 1
    38    2   34 1
    39    8   35 1
    40   11   36 1
    41   11   37 1
    42   12   38 1
    43   12   39 1
    44   13   40 1
    45   14   41 1
    46   14   42 1
    47   15   43 1
    48   15   44 1
    49   18   45 1
    50   19   46 1
    51   21   47 1
    52   22   48 1
    53   24   49 1
    54   24   50 1
    55   29   51 1
    56   30   52 1
    57   30   53 1
    58   30   54 1
    59   31   55 1
    60   31   56 1
    61   32   57 1
    62   32   58 1
    63   33   59 1
@<TRIPOS>PROPERTY_DATA
  Total_Score	| 9.2826
  Crash		| -1.9669
  Polar		| 3.8725
  FragIndex	| 1
  FragRMSD	| 0.948

