@<TRIPOS>MOLECULE
BindingDB_50318605
 57 61 0 0 0
SMALL
NO_CHARGES


@<TRIPOS>ATOM
1    C        -4.7053   30.4069   -8.8693  C     
2    C        -4.2210   31.4818   -9.6608  C     
3    N        -3.5741   32.5238   -9.1168  N     
4    C        -4.5326   30.3935   -7.4244  C     
5    N        -3.3396   31.9071   -5.7383  N     
6    C        -3.7790   31.5218   -6.9516  C     
7    C        -3.3489   32.5516   -7.7936  C     
8    N        -2.7285   33.4979   -7.0783  N     
9    C        -2.7092   33.0984   -5.7963  C     
10   N        -5.0503   29.4332   -6.5234  N     
11   C        -5.9687   28.3962   -6.9575  C     
12   C        -6.8905   27.7226   -5.9059  C     
13   N        -6.1110   27.2962   -4.7092  N     
14   C        -5.4646   28.5027   -4.1312  C     
15   C        -4.5243   29.1831   -5.1725  C     
16   Br       -5.3835   29.1139  -10.0550  Br    
17   C        -2.1875   33.8191   -4.6960  C     
18   C        -2.2962   33.2865   -3.3918  C     
19   C        -1.7943   33.9836   -2.2809  C     
20   C        -1.1968   35.2507   -2.4314  C     
21   C        -1.0853   35.7886   -3.7328  C     
22   C        -1.5471   35.0708   -4.8536  C     
23   C        -0.6838   36.0251   -1.2725  C     
24   N        -1.5452   37.1834   -0.9950  N     
25   C        -6.8955   26.4977   -3.7153  C     
26   C        -7.0933   25.1094   -4.1650  C     
27   N        -8.2646   24.5333   -4.4644  N     
28   O        -8.0612   23.3289   -4.9374  O     
29   C        -6.7364   23.0793   -4.9626  C     
30   C        -6.0902   24.1948   -4.4530  C     
31   C        -6.1152   21.8404   -5.4559  C     
32   H        -4.3391   31.4977  -10.6749  H     
33   H        -2.3886   34.3333   -7.4346  H     
34   H        -6.7148   28.7924   -7.6388  H     
35   H        -5.3642   27.6143   -7.4590  H     
36   H        -7.6936   28.4129   -5.6095  H     
37   H        -7.3568   26.8602   -6.3860  H     
38   H        -5.3563   26.6927   -5.0337  H     
39   H        -6.2207   29.2308   -3.8187  H     
40   H        -4.8635   28.2325   -3.2441  H     
41   H        -3.6213   28.5646   -5.2691  H     
42   H        -4.2485   30.0921   -4.6458  H     
43   H        -2.7479   32.3865   -3.2249  H     
44   H        -1.8786   33.5625   -1.3491  H     
45   H        -0.6378   36.7008   -3.8801  H     
46   H        -1.4159   35.4813   -5.7768  H     
47   H        -0.6340   35.4101   -0.3714  H     
48   H         0.3286   36.3800   -1.4977  H     
49   H        -1.5874   37.7931   -1.8141  H     
50   H        -1.1564   37.7054   -0.2090  H     
51   H        -2.4837   36.8687   -0.7548  H     
52   H        -6.3732   26.4642   -2.7540  H     
53   H        -7.8666   26.9762   -3.5379  H     
54   H        -5.0873   24.3301   -4.3528  H     
55   H        -5.8072   21.2316   -4.6059  H     
56   H        -5.2428   22.0642   -6.0749  H     
57   H        -6.8312   21.2721   -6.0513  H     
@<TRIPOS>BOND
     1    1    2 2
     2    1    4 1
     3    1   16 1
     4    2    3 1
     5    3    7 2
     6    4    6 2
     7    4   10 1
     8    5    6 1
     9    5    9 2
    10    6    7 1
    11    7    8 1
    12    8    9 1
    13    9   17 1
    14   10   11 1
    15   10   15 1
    16   11   12 1
    17   12   13 1
    18   13   14 1
    19   13   25 1
    20   14   15 1
    21   17   18 2
    22   17   22 1
    23   18   19 1
    24   19   20 2
    25   20   21 1
    26   20   23 1
    27   21   22 2
    28   23   24 1
    29   25   26 1
    30   26   27 2
    31   26   30 1
    32   27   28 1
    33   28   29 1
    34   29   30 2
    35   29   31 1
    36    2   32 1
    37    8   33 1
    38   11   34 1
    39   11   35 1
    40   12   36 1
    41   12   37 1
    42   13   38 1
    43   14   39 1
    44   14   40 1
    45   15   41 1
    46   15   42 1
    47   18   43 1
    48   19   44 1
    49   21   45 1
    50   22   46 1
    51   23   47 1
    52   23   48 1
    53   24   49 1
    54   24   50 1
    55   24   51 1
    56   25   52 1
    57   25   53 1
    58   30   54 1
    59   31   55 1
    60   31   56 1
    61   31   57 1
@<TRIPOS>PROPERTY_DATA
  Total_Score	| 8.4101
  Crash		| -2.0287
  Polar		| 1.9150
  FragIndex	| 1
  FragRMSD	| 0.973

