@<TRIPOS>MOLECULE
BindingDB_50318586
 59 63 0 0 0
SMALL
NO_CHARGES


@<TRIPOS>ATOM
1    C        -4.8129   30.4023   -8.9282  C     
2    C        -4.3720   31.4608   -9.7495  C     
3    N        -3.7312   32.5307   -9.2305  N     
4    C        -4.6187   30.4465   -7.4939  C     
5    N        -3.5561   32.0459   -5.7955  N     
6    C        -3.9257   31.6074   -7.0215  C     
7    C        -3.5094   32.5970   -7.9066  C     
8    N        -2.8877   33.5513   -7.2193  N     
9    C        -2.8855   33.2094   -5.9200  C     
10   N        -5.0557   29.4617   -6.6201  N     
11   C        -4.4252   29.2256   -5.3199  C     
12   C        -5.4316   28.7798   -4.2235  C     
13   N        -6.1395   27.5656   -4.7176  N     
14   C        -6.9205   27.8914   -5.9452  C     
15   C        -5.9728   28.4089   -7.0407  C     
16   Br       -5.4357   28.9620   -9.9420  Br    
17   C        -2.2662   33.9564   -4.8902  C     
18   C        -1.2901   34.9287   -5.1942  C     
19   C        -0.6736   35.6929   -4.1839  C     
20   C        -0.9964   35.5436   -2.8069  C     
21   C        -1.9587   34.5271   -2.5247  C     
22   C        -2.5746   33.7530   -3.5295  C     
23   N        -0.3998   36.3235   -1.8220  N     
24   C        -0.7905   36.2084   -0.4280  C     
25   C         0.6359   37.2968   -2.1303  C     
26   C        -6.9170   26.8052   -3.6885  C     
27   C        -7.2270   25.4364   -4.1927  C     
28   C        -6.1676   24.5300   -4.4669  C     
29   C        -6.4561   23.2488   -4.9712  C     
30   N        -7.7434   22.8840   -5.1934  N     
31   C        -8.7896   23.7202   -4.9523  C     
32   C        -8.5529   25.0120   -4.4399  C     
33   H        -4.4940   31.4280  -10.7647  H     
34   H        -2.5195   34.3642   -7.6010  H     
35   H        -3.6957   28.4260   -5.4505  H     
36   H        -3.8650   30.0596   -4.9071  H     
37   H        -4.8651   28.5440   -3.3223  H     
38   H        -6.1237   29.5949   -4.0053  H     
39   H        -5.3913   26.9376   -5.0111  H     
40   H        -7.4243   26.9990   -6.3297  H     
41   H        -7.6882   28.6422   -5.7272  H     
42   H        -6.6202   28.7545   -7.8546  H     
43   H        -5.3799   27.5554   -7.3963  H     
44   H        -0.9965   35.0929   -6.1590  H     
45   H         0.0212   36.3703   -4.4857  H     
46   H        -2.2343   34.3287   -1.5641  H     
47   H        -3.2640   33.0515   -3.2534  H     
48   H        -1.8405   36.4711   -0.3186  H     
49   H        -0.2371   36.8559    0.2524  H     
50   H        -0.6376   35.1861   -0.0782  H     
51   H         1.4910   36.7953   -2.5837  H     
52   H         1.0126   37.8432   -1.2662  H     
53   H         0.2519   38.0400   -2.8277  H     
54   H        -6.3272   26.6782   -2.7746  H     
55   H        -7.8287   27.3526   -3.4208  H     
56   H        -5.1896   24.8028   -4.3204  H     
57   H        -5.7004   22.5908   -5.1759  H     
58   H        -9.7411   23.4046   -5.1424  H     
59   H        -9.3433   25.6343   -4.2576  H     
@<TRIPOS>BOND
     1    1    2 2
     2    1    4 1
     3    1   16 1
     4    2    3 1
     5    3    7 2
     6    4    6 2
     7    4   10 1
     8    5    6 1
     9    5    9 2
    10    6    7 1
    11    7    8 1
    12    8    9 1
    13    9   17 1
    14   10   11 1
    15   10   15 1
    16   11   12 1
    17   12   13 1
    18   13   14 1
    19   13   26 1
    20   14   15 1
    21   17   18 2
    22   17   22 1
    23   18   19 1
    24   19   20 2
    25   20   21 1
    26   20   23 1
    27   21   22 2
    28   23   24 1
    29   23   25 1
    30   26   27 1
    31   27   28 2
    32   27   32 1
    33   28   29 1
    34   29   30 2
    35   30   31 1
    36   31   32 2
    37    2   33 1
    38    8   34 1
    39   11   35 1
    40   11   36 1
    41   12   37 1
    42   12   38 1
    43   13   39 1
    44   14   40 1
    45   14   41 1
    46   15   42 1
    47   15   43 1
    48   18   44 1
    49   19   45 1
    50   21   46 1
    51   22   47 1
    52   24   48 1
    53   24   49 1
    54   24   50 1
    55   25   51 1
    56   25   52 1
    57   25   53 1
    58   26   54 1
    59   26   55 1
    60   28   56 1
    61   29   57 1
    62   31   58 1
    63   32   59 1
@<TRIPOS>PROPERTY_DATA
  Total_Score	| 6.9039
  Crash		| -2.6564
  Polar		| 1.9442
  FragIndex	| 1
  FragRMSD	| 0.698

