@<TRIPOS>MOLECULE
BindingDB_50318595
 68 73 0 0 0
SMALL
NO_CHARGES


@<TRIPOS>ATOM
1    C        -0.3138   35.6863   -4.5447  C     
2    C        -0.5216   34.9029   -5.7010  C     
3    N        -1.4151   33.8913   -5.7192  N     
4    C        -1.1027   35.4600   -3.3706  C     
5    N        -2.9571   33.8726   -2.5962  N     
6    C        -2.0120   34.3605   -3.4378  C     
7    C        -2.1375   33.6218   -4.6111  C     
8    N        -3.0935   32.7104   -4.4571  N     
9    C        -3.6031   32.8651   -3.2273  C     
10   N        -0.9852   36.2468   -2.2515  N     
11   C        -0.9258   37.7017   -2.2981  C     
12   C         0.2826   38.2537   -1.4823  C     
13   N         0.3513   37.6855   -0.0948  N     
14   C         0.2860   36.1884   -0.1567  C     
15   C        -0.9675   35.6798   -0.9199  C     
16   Br        1.1991   36.7783   -4.5974  Br    
17   C        -4.7865   32.2210   -2.8223  C     
18   C        -5.9990   32.5777   -3.4556  C     
19   C        -7.2188   31.9698   -3.0810  C     
20   C        -7.2513   30.9819   -2.0776  C     
21   C        -6.0285   30.6079   -1.4582  C     
22   C        -4.8111   31.2145   -1.8346  C     
23   C        -8.5599   30.3940   -1.6559  C     
24   N        -9.3437   29.5776   -2.6633  N     
25   C        -8.6646   29.3166   -3.9726  C     
26   C        -9.5978   28.5503   -4.9613  C     
27   O       -10.1160   27.3523   -4.3504  O     
28   C       -10.8312   27.6047   -3.1248  C     
29   C        -9.9230   28.3211   -2.0896  C     
30   C        -0.5985   38.3630    0.8537  C     
31   C        -0.5847   37.8592    2.2416  C     
32   N        -1.2175   36.7485    2.6627  N     
33   O        -1.0527   36.6066    3.9548  O     
34   C        -0.3041   37.6313    4.4267  C     
35   C         0.0015   38.4527    3.3518  C     
36   C         0.0605   37.8117    5.8365  C     
37   H         0.0346   35.0643   -6.5397  H     
38   H        -3.4072   32.0938   -5.1381  H     
39   H        -0.8978   38.1007   -3.3145  H     
40   H        -1.8496   38.0894   -1.8642  H     
41   H         1.2129   38.0006   -1.9931  H     
42   H         0.2358   39.3476   -1.4605  H     
43   H         1.2857   37.9104    0.2565  H     
44   H         1.1801   35.8238   -0.6733  H     
45   H         0.3137   35.7460    0.8414  H     
46   H        -1.8708   35.9834   -0.3880  H     
47   H        -0.9332   34.5850   -0.9256  H     
48   H        -6.0121   33.3081   -4.1684  H     
49   H        -8.0760   32.2913   -3.5174  H     
50   H        -6.0166   29.8774   -0.7419  H     
51   H        -3.9420   30.9177   -1.3803  H     
52   H        -8.3995   29.8183   -0.7337  H     
53   H        -9.2061   31.2244   -1.3502  H     
54   H       -10.1545   30.1638   -2.8920  H     
55   H        -8.3887   30.2735   -4.4313  H     
56   H        -7.7653   28.7198   -3.8224  H     
57   H       -10.4175   29.2000   -5.2811  H     
58   H        -9.0257   28.2633   -5.8461  H     
59   H       -11.7203   28.2148   -3.3225  H     
60   H       -11.1579   26.6459   -2.7228  H     
61   H        -9.1224   27.6398   -1.7847  H     
62   H       -10.5339   28.5553   -1.2102  H     
63   H        -0.3555   39.4290    0.8822  H     
64   H        -1.6278   38.2852    0.4884  H     
65   H         0.5374   39.3241    3.3747  H     
66   H        -0.8491   37.8891    6.4369  H     
67   H         0.6541   38.7192    5.9707  H     
68   H         0.6419   36.9525    6.1803  H     
@<TRIPOS>BOND
     1    1    2 2
     2    1    4 1
     3    1   16 1
     4    2    3 1
     5    3    7 2
     6    4    6 2
     7    4   10 1
     8    5    6 1
     9    5    9 2
    10    6    7 1
    11    7    8 1
    12    8    9 1
    13    9   17 1
    14   10   11 1
    15   10   15 1
    16   11   12 1
    17   12   13 1
    18   13   14 1
    19   13   30 1
    20   14   15 1
    21   17   18 2
    22   17   22 1
    23   18   19 1
    24   19   20 2
    25   20   21 1
    26   20   23 1
    27   21   22 2
    28   23   24 1
    29   24   25 1
    30   24   29 1
    31   25   26 1
    32   26   27 1
    33   27   28 1
    34   28   29 1
    35   30   31 1
    36   31   32 2
    37   31   35 1
    38   32   33 1
    39   33   34 1
    40   34   35 2
    41   34   36 1
    42    2   37 1
    43    8   38 1
    44   11   39 1
    45   11   40 1
    46   12   41 1
    47   12   42 1
    48   13   43 1
    49   14   44 1
    50   14   45 1
    51   15   46 1
    52   15   47 1
    53   18   48 1
    54   19   49 1
    55   21   50 1
    56   22   51 1
    57   23   52 1
    58   23   53 1
    59   24   54 1
    60   25   55 1
    61   25   56 1
    62   26   57 1
    63   26   58 1
    64   28   59 1
    65   28   60 1
    66   29   61 1
    67   29   62 1
    68   30   63 1
    69   30   64 1
    70   35   65 1
    71   36   66 1
    72   36   67 1
    73   36   68 1
@<TRIPOS>PROPERTY_DATA
  Total_Score	| 1.9373
  Crash		| -4.2778
  Polar		| 2.8965
  FragIndex	| 1
  FragRMSD	| 0.763

