@<TRIPOS>MOLECULE
BindingDB_50335607
 66 71 0 0 0
SMALL
NO_CHARGES


@<TRIPOS>ATOM
1    C        -7.5589   29.7650   -0.5406  C     
2    C        -8.6721   30.4395    0.0155  C     
3    C        -9.7176   29.7309    0.6696  C     
4    C        -9.6249   28.3245    0.7266  C     
5    C        -8.5068   27.6413    0.1935  C     
6    C        -7.4824   28.3601   -0.4249  C     
7    C       -10.8046   30.4043    1.2451  C     
8    O       -11.9083   29.8621    1.2486  O     
9    C       -10.6959   31.6838    1.9248  C     
10   C        -0.4748   35.7202   -4.5880  C     
11   C        -0.7419   35.0056   -5.7802  C     
12   N        -1.6531   34.0033   -5.8043  N     
13   C        -1.2067   35.4412   -3.3958  C     
14   N        -1.1036   36.1990   -2.2509  N     
15   C        -1.1320   35.6323   -0.9196  C     
16   C         0.1320   36.1034   -0.1623  C     
17   N         0.2122   37.5975   -0.1204  N     
18   C         0.1514   38.2022   -1.4865  C     
19   C        -1.0670   37.6532   -2.2805  C     
20   C        -2.1000   34.3309   -3.4667  C     
21   C        -2.3100   33.6669   -4.6805  C     
22   N        -3.2255   32.7184   -4.4906  N     
23   C        -3.5905   32.7618   -3.2022  C     
24   N        -2.9166   33.7535   -2.5742  N     
25   Br        1.0526   36.7921   -4.6513  Br    
26   C         1.3151   38.1383    0.7403  C     
27   C         2.6817   37.6911    0.3785  C     
28   N         3.6641   38.4939   -0.0802  N     
29   O         4.7091   37.7760   -0.4092  O     
30   C         4.4488   36.4707   -0.1697  C     
31   C         3.1493   36.3895    0.3637  C     
32   C         5.3458   35.3577   -0.4825  C     
33   C        -4.5538   31.9455   -2.5990  C     
34   C        -5.8980   31.9778   -3.0459  C     
35   C        -6.8860   31.2777   -2.3511  C     
36   C        -6.5588   30.4809   -1.2277  C     
37   C        -5.2010   30.4101   -0.8155  C     
38   C        -4.2220   31.1439   -1.4842  C     
39   H        -8.7187   31.4575   -0.0747  H     
40   H       -10.3519   27.7671    1.1822  H     
41   H        -8.4545   26.6248    0.2593  H     
42   H        -6.6815   27.8514   -0.8205  H     
43   H        -9.9680   31.6068    2.7373  H     
44   H       -11.6507   31.9972    2.3552  H     
45   H       -10.3709   32.4667    1.2367  H     
46   H        -0.2236   35.2086   -6.6341  H     
47   H        -2.0145   35.9867   -0.3813  H     
48   H        -1.1196   34.5381   -0.9077  H     
49   H         0.1206   35.6940    0.8566  H     
50   H         0.9835   35.6843   -0.7082  H     
51   H        -0.6433   37.9030    0.3397  H     
52   H         0.0432   39.2864   -1.4058  H     
53   H         1.0725   38.0047   -2.0385  H     
54   H        -1.0677   38.0721   -3.2882  H     
55   H        -1.9823   38.0258   -1.8132  H     
56   H        -3.5554   32.0951   -5.1617  H     
57   H         1.2766   39.2304    0.7123  H     
58   H         1.1267   37.8550    1.7725  H     
59   H         2.6826   35.5371    0.6464  H     
60   H         5.6311   35.4244   -1.5337  H     
61   H         4.8669   34.3872   -0.3126  H     
62   H         6.2367   35.4335    0.1439  H     
63   H        -6.1590   32.5596   -3.8482  H     
64   H        -7.8606   31.3464   -2.6670  H     
65   H        -4.9392   29.8430   -0.0024  H     
66   H        -3.2526   31.1102   -1.1503  H     
@<TRIPOS>BOND
     1    1    2 2
     2    1    6 1
     3    1   36 1
     4    2    3 1
     5    3    4 2
     6    3    7 1
     7    4    5 1
     8    5    6 2
     9    7    8 2
    10    7    9 1
    11   10   11 2
    12   10   13 1
    13   10   25 1
    14   11   12 1
    15   12   21 2
    16   13   14 1
    17   13   20 2
    18   14   15 1
    19   14   19 1
    20   15   16 1
    21   16   17 1
    22   17   18 1
    23   17   26 1
    24   18   19 1
    25   20   21 1
    26   20   24 1
    27   21   22 1
    28   22   23 1
    29   23   24 2
    30   23   33 1
    31   26   27 1
    32   27   28 2
    33   27   31 1
    34   28   29 1
    35   29   30 1
    36   30   31 2
    37   30   32 1
    38   33   34 2
    39   33   38 1
    40   34   35 1
    41   35   36 2
    42   36   37 1
    43   37   38 2
    44    2   39 1
    45    4   40 1
    46    5   41 1
    47    6   42 1
    48    9   43 1
    49    9   44 1
    50    9   45 1
    51   11   46 1
    52   15   47 1
    53   15   48 1
    54   16   49 1
    55   16   50 1
    56   17   51 1
    57   18   52 1
    58   18   53 1
    59   19   54 1
    60   19   55 1
    61   22   56 1
    62   26   57 1
    63   26   58 1
    64   31   59 1
    65   32   60 1
    66   32   61 1
    67   32   62 1
    68   34   63 1
    69   35   64 1
    70   37   65 1
    71   38   66 1
@<TRIPOS>PROPERTY_DATA
  Total_Score	| 1.9470
  Crash		| -4.0229
  Polar		| 0.0077
  FragIndex	| 1
  FragRMSD	| 0.779

