@<TRIPOS>MOLECULE
BindingDB_50335609
 69 74 0 0 0
SMALL
NO_CHARGES


@<TRIPOS>ATOM
1    C        -6.0104   22.8198   -5.2198  C     
2    C        -5.9720   24.1758   -4.6724  C     
3    C        -7.0535   25.0698   -4.6570  C     
4    C        -6.5780   26.2171   -4.0456  C     
5    C        -7.3222   27.4896   -3.9336  C     
6    N        -6.5696   28.8061   -4.0178  N     
7    C        -5.0840   28.8106   -4.2550  C     
8    C        -4.6572   28.7852   -5.7401  C     
9    N        -5.4423   29.7085   -6.5217  N     
10   C        -4.8295   30.4847   -7.4545  C     
11   C        -5.0017   30.2646   -8.8492  C     
12   Br       -6.0834   28.8978   -9.5043  Br    
13   C        -4.2460   31.0228   -9.7751  C     
14   N        -3.3787   31.9824   -9.3486  N     
15   C        -3.1982   32.2053   -8.0255  C     
16   N        -2.3867   33.0743   -7.4094  N     
17   C        -2.6056   32.9399   -6.0786  C     
18   C        -2.0223   33.7623   -5.0807  C     
19   C        -2.5110   33.7532   -3.7546  C     
20   C        -1.9862   34.6196   -2.7835  C     
21   C        -0.9392   35.5417   -3.0668  C     
22   N        -0.4445   36.4053   -2.1111  N     
23   C         0.0004   37.7604   -2.4142  C     
24   C        -0.7782   38.7936   -1.5504  C     
25   N        -0.7145   38.4525   -0.0943  N     
26   C        -1.4213   39.4515    0.7562  C     
27   C        -1.1567   37.0483    0.1638  C     
28   C        -0.3300   36.0639   -0.6992  C     
29   C        -0.4454   35.5155   -4.4001  C     
30   C        -0.9741   34.6590   -5.3813  C     
31   N        -3.5099   31.9534   -5.8798  N     
32   C        -3.8976   31.4712   -7.0666  C     
33   C        -6.8740   29.6407   -6.3975  C     
34   C        -7.2682   29.7995   -4.9019  C     
35   N        -5.2738   26.0195   -3.6913  N     
36   O        -4.9241   24.7992   -4.0757  O     
37   H        -6.3436   22.1360   -4.4271  H     
38   H        -5.0109   22.5310   -5.5604  H     
39   H        -6.7148   22.7771   -6.0672  H     
40   H        -7.9633   24.9352   -5.0905  H     
41   H        -8.1502   27.4693   -4.6650  H     
42   H        -7.7601   27.4609   -2.9241  H     
43   H        -6.6553   29.1778   -3.0675  H     
44   H        -4.6684   29.7084   -3.7968  H     
45   H        -4.5822   27.9651   -3.7630  H     
46   H        -3.5813   29.0051   -5.7863  H     
47   H        -4.8093   27.7695   -6.1333  H     
48   H        -4.3506   30.8764  -10.7806  H     
49   H        -3.2852   33.1379   -3.4877  H     
50   H        -2.4296   34.6024   -1.8638  H     
51   H         1.0693   37.8479   -2.2021  H     
52   H        -0.1552   38.0583   -3.4504  H     
53   H        -0.3390   39.7835   -1.7164  H     
54   H        -1.8219   38.8231   -1.8864  H     
55   H         0.2731   38.4998    0.1712  H     
56   H        -2.4914   39.4838    0.5286  H     
57   H        -0.9995   40.4478    0.5991  H     
58   H        -1.2959   39.2052    1.8144  H     
59   H        -1.0077   36.7988    1.2178  H     
60   H        -2.2201   36.9280   -0.0696  H     
61   H        -0.6269   35.0457   -0.4540  H     
62   H         0.7220   36.1401   -0.4064  H     
63   H         0.3467   36.1005   -4.6723  H     
64   H        -0.5741   34.6905   -6.3237  H     
65   H        -3.8544   31.6554   -5.0164  H     
66   H        -7.3696   30.4157   -6.9867  H     
67   H        -7.1996   28.6644   -6.7693  H     
68   H        -8.3569   29.7158   -4.8045  H     
69   H        -6.9865   30.8026   -4.5678  H     
@<TRIPOS>BOND
     1    1    2 1
     2    2    3 2
     3    2   36 1
     4    3    4 1
     5    4    5 1
     6    4   35 2
     7    5    6 1
     8    6    7 1
     9    6   34 1
    10    7    8 1
    11    8    9 1
    12    9   10 1
    13    9   33 1
    14   10   11 1
    15   10   32 2
    16   11   12 1
    17   11   13 2
    18   13   14 1
    19   14   15 2
    20   15   16 1
    21   15   32 1
    22   16   17 2
    23   17   18 1
    24   17   31 1
    25   18   19 1
    26   18   30 2
    27   19   20 2
    28   20   21 1
    29   21   22 1
    30   21   29 2
    31   22   23 1
    32   22   28 1
    33   23   24 1
    34   24   25 1
    35   25   26 1
    36   25   27 1
    37   27   28 1
    38   29   30 1
    39   31   32 1
    40   33   34 1
    41   35   36 1
    42    1   37 1
    43    1   38 1
    44    1   39 1
    45    3   40 1
    46    5   41 1
    47    5   42 1
    48    6   43 1
    49    7   44 1
    50    7   45 1
    51    8   46 1
    52    8   47 1
    53   13   48 1
    54   19   49 1
    55   20   50 1
    56   23   51 1
    57   23   52 1
    58   24   53 1
    59   24   54 1
    60   25   55 1
    61   26   56 1
    62   26   57 1
    63   26   58 1
    64   27   59 1
    65   27   60 1
    66   28   61 1
    67   28   62 1
    68   29   63 1
    69   30   64 1
    70   31   65 1
    71   33   66 1
    72   33   67 1
    73   34   68 1
    74   34   69 1
@<TRIPOS>PROPERTY_DATA
  Total_Score	| 8.1813
  Crash		| -2.1025
  Polar		| 1.0216
  FragIndex	| 1
  FragRMSD	| 0.914

