@<TRIPOS>MOLECULE
BindingDB_50318582
 56 60 0 0 0
SMALL
NO_CHARGES


@<TRIPOS>ATOM
1    C        -5.8791   25.9680   -3.3841  C     
2    C        -6.6824   26.5789   -4.4003  C     
3    C        -7.5459   25.6830   -5.1015  C     
4    C        -7.5768   24.2976   -4.8491  C     
5    C        -6.7732   23.7528   -3.8366  C     
6    C        -5.9391   24.5941   -3.0947  C     
7    C        -4.8849   30.4073   -8.9291  C     
8    C        -4.3969   31.4380   -9.7605  C     
9    N        -3.7186   32.4900   -9.2480  N     
10   C        -4.7437   30.4872   -7.5037  C     
11   N        -3.6233   32.0297   -5.7937  N     
12   C        -3.9998   31.6087   -7.0267  C     
13   C        -3.5168   32.5663   -7.9198  C     
14   N        -2.8669   33.4994   -7.2311  N     
15   C        -2.9031   33.1670   -5.9330  C     
16   N        -5.2868   29.5409   -6.6595  N     
17   C        -6.5705   28.9024   -6.9388  C     
18   C        -7.4193   28.6231   -5.6705  C     
19   N        -6.5870   27.9329   -4.6952  N     
20   C        -5.4755   28.7960   -4.2857  C     
21   C        -4.5544   29.0000   -5.5188  C     
22   Br       -5.4502   28.8992   -9.8723  Br    
23   C        -2.2581   33.9244   -4.9303  C     
24   C        -1.2343   34.8397   -5.2661  C     
25   C        -0.6117   35.6178   -4.2809  C     
26   C        -1.0037   35.5747   -2.9198  C     
27   C        -2.0274   34.6341   -2.6082  C     
28   C        -2.6263   33.8124   -3.5760  C     
29   N        -0.4244   36.4064   -1.9708  N     
30   C         0.4930   37.4741   -2.3314  C     
31   C        -0.7576   36.2933   -0.5519  C     
32   H        -5.2093   26.4993   -2.8386  H     
33   H        -8.1997   26.0144   -5.8021  H     
34   H        -8.2041   23.6920   -5.3843  H     
35   H        -6.8080   22.7477   -3.6336  H     
36   H        -5.3718   24.2123   -2.3350  H     
37   H        -4.4990   31.3807  -10.7710  H     
38   H        -2.4681   34.3061   -7.5932  H     
39   H        -7.1791   29.5215   -7.6060  H     
40   H        -6.3928   27.9286   -7.4101  H     
41   H        -7.7725   29.5669   -5.2528  H     
42   H        -8.3128   28.0962   -5.9906  H     
43   H        -5.8520   29.7750   -3.9637  H     
44   H        -4.8830   28.4369   -3.4486  H     
45   H        -4.1705   28.0229   -5.8128  H     
46   H        -3.6870   29.5954   -5.2218  H     
47   H        -0.9149   34.9269   -6.2360  H     
48   H         0.1311   36.2382   -4.6009  H     
49   H        -2.3489   34.5162   -1.6488  H     
50   H        -3.3630   33.1581   -3.2911  H     
51   H         1.3369   37.0435   -2.8766  H     
52   H         0.9138   38.0266   -1.4877  H     
53   H        -0.0125   38.2018   -2.9801  H     
54   H        -1.8460   36.4333   -0.4347  H     
55   H        -0.2727   37.0310    0.0884  H     
56   H        -0.4754   35.2982   -0.1679  H     
@<TRIPOS>BOND
     1    1    2 2
     2    1    6 1
     3    2    3 1
     4    2   19 1
     5    3    4 2
     6    4    5 1
     7    5    6 2
     8    7    8 2
     9    7   10 1
    10    7   22 1
    11    8    9 1
    12    9   13 2
    13   10   12 2
    14   10   16 1
    15   11   12 1
    16   11   15 2
    17   12   13 1
    18   13   14 1
    19   14   15 1
    20   15   23 1
    21   16   17 1
    22   16   21 1
    23   17   18 1
    24   18   19 1
    25   19   20 1
    26   20   21 1
    27   23   24 2
    28   23   28 1
    29   24   25 1
    30   25   26 2
    31   26   27 1
    32   26   29 1
    33   27   28 2
    34   29   30 1
    35   29   31 1
    36    1   32 1
    37    3   33 1
    38    4   34 1
    39    5   35 1
    40    6   36 1
    41    8   37 1
    42   14   38 1
    43   17   39 1
    44   17   40 1
    45   18   41 1
    46   18   42 1
    47   20   43 1
    48   20   44 1
    49   21   45 1
    50   21   46 1
    51   24   47 1
    52   25   48 1
    53   27   49 1
    54   28   50 1
    55   30   51 1
    56   30   52 1
    57   30   53 1
    58   31   54 1
    59   31   55 1
    60   31   56 1
@<TRIPOS>PROPERTY_DATA
  Total_Score	| 7.2353
  Crash		| -2.1898
  Polar		| 1.9305
  FragIndex	| 1
  FragRMSD	| 0.931

