@<TRIPOS>MOLECULE
BindingDB_50335608
 66 71 0 0 0
SMALL
NO_CHARGES


@<TRIPOS>ATOM
1    N        -0.2214   36.3411   -2.0119  N     
2    C         0.4062   37.6275   -2.3231  C     
3    C        -0.2126   38.7652   -1.4615  C     
4    N        -0.2127   38.4145   -0.0245  N     
5    C        -0.8155   37.0946    0.2671  C     
6    C        -0.1302   35.9951   -0.5936  C     
7    C        -5.0888   30.2936   -8.6108  C     
8    C        -4.3430   31.0267   -9.5678  C     
9    N        -3.4615   31.9868   -9.1814  N     
10   C        -4.8940   30.5265   -7.2191  C     
11   N        -5.6029   29.8620   -6.2428  N     
12   C        -4.9276   29.1236   -5.1970  C     
13   C        -5.8012   27.9885   -4.5710  C     
14   N        -6.9089   27.5430   -5.4837  N     
15   C        -7.7760   28.6902   -5.9065  C     
16   C        -7.0238   30.0431   -6.0732  C     
17   C        -3.9289   31.5069   -6.8797  C     
18   C        -3.2557   32.2226   -7.8706  C     
19   N        -2.4731   33.1216   -7.2731  N     
20   C        -2.6560   33.0133   -5.9422  C     
21   N        -3.5475   32.0236   -5.7020  N     
22   Br       -6.1486   28.9137   -9.2807  Br    
23   C        -7.6976   26.3733   -4.9598  C     
24   C        -6.9237   25.1110   -4.8750  C     
25   N        -5.7039   24.9331   -4.3196  N     
26   O        -5.3373   23.7035   -4.4417  O     
27   C        -6.3004   22.9796   -5.0616  C     
28   C        -7.3315   23.8613   -5.3350  C     
29   C        -6.2232   21.5512   -5.3793  C     
30   C        -2.0469   33.8331   -4.9641  C     
31   C        -1.0362   34.7577   -5.3147  C     
32   C        -0.4342   35.5730   -4.3355  C     
33   C        -0.8184   35.5293   -2.9632  C     
34   C        -1.8374   34.5864   -2.6427  C     
35   C        -2.4267   33.7496   -3.6092  C     
36   H         1.4865   37.5556   -2.1151  H     
37   H         0.2847   37.9659   -3.3561  H     
38   H         0.3706   39.6797   -1.5968  H     
39   H        -1.2400   38.9602   -1.7828  H     
40   H         0.7578   38.3953    0.2935  H     
41   H        -0.7229   39.1372    0.4912  H     
42   H        -0.6801   36.8694    1.3284  H     
43   H        -1.8880   37.1230    0.0527  H     
44   H        -0.5655   35.0378   -0.3073  H     
45   H         0.9323   35.9355   -0.3203  H     
46   H        -4.4527   30.8399  -10.5664  H     
47   H        -4.0151   28.6591   -5.6037  H     
48   H        -4.6253   29.8119   -4.3971  H     
49   H        -5.1423   27.1548   -4.3260  H     
50   H        -6.2331   28.3522   -3.6282  H     
51   H        -6.4537   27.2182   -6.3407  H     
52   H        -8.2437   28.4284   -6.8608  H     
53   H        -8.5828   28.8370   -5.1820  H     
54   H        -7.1574   30.6192   -5.1510  H     
55   H        -7.4842   30.6372   -6.8690  H     
56   H        -1.8917   33.7573   -7.7290  H     
57   H        -8.0920   26.5975   -3.9666  H     
58   H        -8.5643   26.1886   -5.5994  H     
59   H        -8.2214   23.6292   -5.7842  H     
60   H        -5.3584   21.3724   -6.0193  H     
61   H        -7.1301   21.2272   -5.8873  H     
62   H        -6.1081   20.9961   -4.4502  H     
63   H        -0.7048   34.8376   -6.2858  H     
64   H         0.3408   36.1557   -4.6486  H     
65   H        -2.2282   34.5295   -1.7037  H     
66   H        -3.1602   33.0943   -3.3152  H     
@<TRIPOS>BOND
     1    1    2 1
     2    1    6 1
     3    1   33 1
     4    2    3 1
     5    3    4 1
     6    4    5 1
     7    5    6 1
     8    7    8 2
     9    7   10 1
    10    7   22 1
    11    8    9 1
    12    9   18 2
    13   10   11 1
    14   10   17 2
    15   11   12 1
    16   11   16 1
    17   12   13 1
    18   13   14 1
    19   14   15 1
    20   14   23 1
    21   15   16 1
    22   17   18 1
    23   17   21 1
    24   18   19 1
    25   19   20 1
    26   20   21 2
    27   20   30 1
    28   23   24 1
    29   24   25 2
    30   24   28 1
    31   25   26 1
    32   26   27 1
    33   27   28 2
    34   27   29 1
    35   30   31 2
    36   30   35 1
    37   31   32 1
    38   32   33 2
    39   33   34 1
    40   34   35 2
    41    2   36 1
    42    2   37 1
    43    3   38 1
    44    3   39 1
    45    4   40 1
    46    4   41 1
    47    5   42 1
    48    5   43 1
    49    6   44 1
    50    6   45 1
    51    8   46 1
    52   12   47 1
    53   12   48 1
    54   13   49 1
    55   13   50 1
    56   14   51 1
    57   15   52 1
    58   15   53 1
    59   16   54 1
    60   16   55 1
    61   19   56 1
    62   23   57 1
    63   23   58 1
    64   28   59 1
    65   29   60 1
    66   29   61 1
    67   29   62 1
    68   31   63 1
    69   32   64 1
    70   34   65 1
    71   35   66 1
@<TRIPOS>PROPERTY_DATA
  Total_Score	| 8.5137
  Crash		| -1.3310
  Polar		| 0.9778
  FragIndex	| 1
  FragRMSD	| 0.563

