@<TRIPOS>MOLECULE
BindingDB_50335611
 61 66 0 0 0
SMALL
NO_CHARGES


@<TRIPOS>ATOM
1    N        -1.1619   37.3224   -1.2976  N     
2    N        -2.4115   37.3416   -0.9285  N     
3    C        -2.8031   38.6199   -0.7607  C     
4    C        -1.7206   39.4399   -1.0278  C     
5    C        -0.6924   38.5850   -1.3836  C     
6    C        -4.7589   30.3319   -8.8630  C     
7    C        -4.2792   31.3767   -9.6895  C     
8    N        -3.6448   32.4492   -9.1781  N     
9    C        -4.6130   30.3904   -7.4220  C     
10   N        -5.1340   29.4573   -6.5175  N     
11   C        -4.5402   29.1893   -5.1964  C     
12   C        -5.4887   28.5813   -4.1257  C     
13   N        -6.1755   27.3837   -4.6741  N     
14   C        -6.9930   27.7953   -5.8534  C     
15   C        -6.1070   28.4589   -6.9376  C     
16   C        -3.8761   31.5344   -6.9719  C     
17   C        -3.4383   32.5242   -7.8529  C     
18   N        -2.8160   33.4847   -7.1708  N     
19   C        -2.8222   33.1435   -5.8734  C     
20   N        -3.4861   31.9738   -5.7576  N     
21   Br       -5.4273   28.9411   -9.9200  Br    
22   C        -6.9231   26.5761   -3.6569  C     
23   C        -7.0651   25.1763   -4.1075  C     
24   N        -8.2196   24.5010   -4.2454  N     
25   O        -7.9691   23.2923   -4.6796  O     
26   C        -6.6361   23.1295   -4.8446  C     
27   C        -6.0334   24.3238   -4.4839  C     
28   C        -5.9948   21.8910   -5.3114  C     
29   C        -2.2192   33.8727   -4.8120  C     
30   C        -1.3703   34.9786   -5.0652  C     
31   C        -0.7892   35.7020   -4.0084  C     
32   C        -1.0295   35.3391   -2.6637  C     
33   C        -1.8575   34.2220   -2.4048  C     
34   C        -2.4457   33.5042   -3.4634  C     
35   C        -0.4233   36.1224   -1.5518  C     
36   H        -3.7300   38.9230   -0.4572  H     
37   H        -1.6886   40.4651   -0.9858  H     
38   H         0.2584   38.8686   -1.6295  H     
39   H        -4.3856   31.3345  -10.7054  H     
40   H        -3.7117   28.4904   -5.3465  H     
41   H        -4.1299   30.0545   -4.7000  H     
42   H        -4.8828   28.3008   -3.2562  H     
43   H        -6.2151   29.3406   -3.8066  H     
44   H        -5.4297   26.7750   -5.0214  H     
45   H        -7.4795   26.9220   -6.3006  H     
46   H        -7.7784   28.4972   -5.5444  H     
47   H        -6.8236   28.9047   -7.6256  H     
48   H        -5.5602   27.6503   -7.4435  H     
49   H        -2.4421   34.2985   -7.5493  H     
50   H        -6.3842   26.5527   -2.7057  H     
51   H        -7.9100   27.0142   -3.4663  H     
52   H        -5.0354   24.5350   -4.4896  H     
53   H        -6.1856   21.0881   -4.5913  H     
54   H        -4.9172   22.0301   -5.4213  H     
55   H        -6.4141   21.6006   -6.2789  H     
56   H        -1.1670   35.2813   -6.0232  H     
57   H        -0.1796   36.4977   -4.2244  H     
58   H        -2.0350   33.9208   -1.4449  H     
59   H        -3.0452   32.7098   -3.2340  H     
60   H         0.6167   36.3469   -1.8194  H     
61   H        -0.4012   35.5444   -0.6239  H     
@<TRIPOS>BOND
     1    1    2 1
     2    1    5 1
     3    1   35 1
     4    2    3 2
     5    3    4 1
     6    4    5 2
     7    6    7 2
     8    6    9 1
     9    6   21 1
    10    7    8 1
    11    8   17 2
    12    9   10 1
    13    9   16 2
    14   10   11 1
    15   10   15 1
    16   11   12 1
    17   12   13 1
    18   13   14 1
    19   13   22 1
    20   14   15 1
    21   16   17 1
    22   16   20 1
    23   17   18 1
    24   18   19 1
    25   19   20 2
    26   19   29 1
    27   22   23 1
    28   23   24 2
    29   23   27 1
    30   24   25 1
    31   25   26 1
    32   26   27 2
    33   26   28 1
    34   29   30 2
    35   29   34 1
    36   30   31 1
    37   31   32 2
    38   32   33 1
    39   32   35 1
    40   33   34 2
    41    3   36 1
    42    4   37 1
    43    5   38 1
    44    7   39 1
    45   11   40 1
    46   11   41 1
    47   12   42 1
    48   12   43 1
    49   13   44 1
    50   14   45 1
    51   14   46 1
    52   15   47 1
    53   15   48 1
    54   18   49 1
    55   22   50 1
    56   22   51 1
    57   27   52 1
    58   28   53 1
    59   28   54 1
    60   28   55 1
    61   30   56 1
    62   31   57 1
    63   33   58 1
    64   34   59 1
    65   35   60 1
    66   35   61 1
@<TRIPOS>PROPERTY_DATA
  Total_Score	| 8.5939
  Crash		| -2.0977
  Polar		| 1.9588
  FragIndex	| 1
  FragRMSD	| 0.928

