@<TRIPOS>MOLECULE
BindingDB_50335610
 69 74 0 0 0
SMALL
NO_CHARGES


@<TRIPOS>ATOM
1    N        -0.4703   36.4861   -1.8534  N     
2    C        -1.2780   36.9366   -0.7248  C     
3    C        -0.5611   36.6168    0.6150  C     
4    N         0.8193   37.1892    0.6684  N     
5    C         1.6143   36.8319   -0.5502  C     
6    C         0.8640   37.0732   -1.8892  C     
7    C         0.8650   38.6373    1.0224  C     
8    C        -4.6194   30.1380   -8.7076  C     
9    C        -3.7771   30.8589   -9.5968  C     
10   N        -3.0038   31.8827   -9.1469  N     
11   C        -4.7005   30.5042   -7.3260  C     
12   N        -5.5951   29.9385   -6.4418  N     
13   C        -5.2491   29.6396   -5.0580  C     
14   C        -5.6994   28.1876   -4.6812  C     
15   N        -7.1481   27.9963   -4.9867  N     
16   C        -7.4415   28.2711   -6.4347  C     
17   C        -6.9970   29.7195   -6.7823  C     
18   C        -3.8125   31.5361   -6.9135  C     
19   C        -3.0051   32.1950   -7.8338  C     
20   N        -2.3016   33.1255   -7.1930  N     
21   C        -2.6357   33.0931   -5.8895  C     
22   N        -3.5758   32.1291   -5.7216  N     
23   Cl       -5.3153   28.7344   -9.3762  Cl    
24   C        -7.7526   26.7431   -4.4472  C     
25   C        -6.9099   25.5485   -4.5686  C     
26   N        -5.6972   25.4473   -4.0086  N     
27   O        -5.2018   24.2466   -4.2589  O     
28   C        -6.0961   23.5316   -4.9893  C     
29   C        -7.2066   24.3360   -5.2011  C     
30   C        -5.8980   22.1421   -5.4469  C     
31   C        -2.0784   33.9252   -4.8781  C     
32   C        -2.4440   33.7777   -3.5197  C     
33   C        -1.8970   34.6062   -2.5247  C     
34   C        -0.9578   35.6335   -2.8240  C     
35   C        -0.5733   35.7446   -4.1861  C     
36   C        -1.1265   34.9299   -5.1869  C     
37   H        -1.4208   38.0161   -0.8039  H     
38   H        -2.2815   36.5183   -0.6922  H     
39   H        -1.1663   36.9815    1.4483  H     
40   H        -0.4850   35.5298    0.7274  H     
41   H         1.2815   36.7182    1.4497  H     
42   H         2.5646   37.3730   -0.5652  H     
43   H         1.8571   35.7676   -0.4830  H     
44   H         1.4939   36.6553   -2.6779  H     
45   H         0.7777   38.1495   -2.0772  H     
46   H         0.3991   39.2592    0.2543  H     
47   H         1.8970   38.9645    1.1549  H     
48   H         0.3494   38.8113    1.9713  H     
49   H        -3.7101   30.6094  -10.5894  H     
50   H        -4.1701   29.6999   -4.8781  H     
51   H        -5.7380   30.3669   -4.3975  H     
52   H        -5.0783   27.4981   -5.2366  H     
53   H        -5.5190   28.0102   -3.6302  H     
54   H        -7.6312   28.7480   -4.4879  H     
55   H        -6.9225   27.5477   -7.0767  H     
56   H        -8.5155   28.1818   -6.6363  H     
57   H        -7.6059   30.4118   -6.1954  H     
58   H        -7.2389   29.9384   -7.8264  H     
59   H        -1.6478   33.7179   -7.6035  H     
60   H        -7.9365   26.8864   -3.3819  H     
61   H        -8.7286   26.5594   -4.9143  H     
62   H        -8.0675   24.0970   -5.6999  H     
63   H        -4.9961   22.1028   -6.0686  H     
64   H        -6.7568   21.7891   -6.0325  H     
65   H        -5.7727   21.4950   -4.5689  H     
66   H        -3.1224   33.0643   -3.2399  H     
67   H        -2.1670   34.4152   -1.5629  H     
68   H         0.0801   36.4708   -4.4862  H     
69   H        -0.8040   35.0660   -6.1479  H     
@<TRIPOS>BOND
     1    1    2 1
     2    1    6 1
     3    1   34 1
     4    2    3 1
     5    3    4 1
     6    4    5 1
     7    4    7 1
     8    5    6 1
     9    8    9 2
    10    8   11 1
    11    8   23 1
    12    9   10 1
    13   10   19 2
    14   11   12 1
    15   11   18 2
    16   12   13 1
    17   12   17 1
    18   13   14 1
    19   14   15 1
    20   15   16 1
    21   15   24 1
    22   16   17 1
    23   18   19 1
    24   18   22 1
    25   19   20 1
    26   20   21 1
    27   21   22 2
    28   21   31 1
    29   24   25 1
    30   25   26 2
    31   25   29 1
    32   26   27 1
    33   27   28 1
    34   28   29 2
    35   28   30 1
    36   31   32 2
    37   31   36 1
    38   32   33 1
    39   33   34 2
    40   34   35 1
    41   35   36 2
    42    2   37 1
    43    2   38 1
    44    3   39 1
    45    3   40 1
    46    4   41 1
    47    5   42 1
    48    5   43 1
    49    6   44 1
    50    6   45 1
    51    7   46 1
    52    7   47 1
    53    7   48 1
    54    9   49 1
    55   13   50 1
    56   13   51 1
    57   14   52 1
    58   14   53 1
    59   15   54 1
    60   16   55 1
    61   16   56 1
    62   17   57 1
    63   17   58 1
    64   20   59 1
    65   24   60 1
    66   24   61 1
    67   29   62 1
    68   30   63 1
    69   30   64 1
    70   30   65 1
    71   32   66 1
    72   33   67 1
    73   35   68 1
    74   36   69 1
@<TRIPOS>PROPERTY_DATA
  Total_Score	| 9.0549
  Crash		| -1.5172
  Polar		| 1.5192
  FragIndex	| 1
  FragRMSD	| 0.414

