@<TRIPOS>MOLECULE
BindingDB_50302473
 51 53 0 0 0
SMALL
NO_CHARGES


@<TRIPOS>ATOM
1    C        74.9133   -9.3657   69.8641  C     
2    C        75.7823   -8.2576   70.0408  C     
3    C        76.1070   -7.7907   71.3290  C     
4    C        75.5648   -8.4166   72.4612  C     
5    C        74.6921   -9.5107   72.3134  C     
6    C        74.3846   -9.9902   71.0255  C     
7    C        74.5907   -9.9651   68.5197  C     
8    C        74.7067   -9.0194   67.2772  C     
9    C        73.8857   -9.5014   66.0483  C     
10   N        74.0296   -8.7042   64.8607  N     
11   C        75.0856   -8.6503   64.0550  C     
12   C        75.0491   -7.9239   62.8516  C     
13   C        75.3416  -11.2410   68.2863  C     
14   C        74.6426  -12.4122   67.8756  C     
15   C        75.3222  -13.6069   67.6209  C     
16   C        76.7291  -13.6848   67.7763  C     
17   C        77.4450  -12.5352   68.1723  C     
18   C        76.7631  -11.3281   68.4084  C     
19   O        76.0804   -9.3053   64.3412  O     
20   C        74.0537   -6.9556   62.5635  C     
21   C        74.0240   -6.2780   61.3314  C     
22   C        74.9901   -6.5718   60.3512  C     
23   N        75.9378   -7.5006   60.6427  N     
24   C        76.0040   -8.1556   61.8267  C     
25   O        74.8686   -5.9563   59.1238  O     
26   C        75.8384   -6.2061   58.0703  C     
27   C        77.1217   -5.3413   58.1685  C     
28   F        78.0103   -5.7273   57.1885  F     
29   F        76.8429   -4.0142   57.9987  F     
30   F        77.7464   -5.5002   59.3817  F     
31   H        76.2197   -7.8017   69.2398  H     
32   H        76.7260   -6.9844   71.4417  H     
33   H        75.7799   -8.0533   73.3966  H     
34   H        74.2971   -9.9637   73.1405  H     
35   H        73.7766  -10.8049   70.9412  H     
36   H        73.5303  -10.2118   68.5968  H     
37   H        74.3273   -8.0378   67.5568  H     
38   H        75.7508   -8.9121   66.9839  H     
39   H        74.1661  -10.5369   65.8326  H     
40   H        72.8165   -9.4809   66.2937  H     
41   H        73.2338   -8.2366   64.5747  H     
42   H        73.6252  -12.3668   67.7206  H     
43   H        74.8092  -14.4406   67.3258  H     
44   H        77.2285  -14.5576   67.6012  H     
45   H        78.4736  -12.5758   68.2905  H     
46   H        77.3179  -10.4998   68.6627  H     
47   H        73.3379   -6.7212   63.2527  H     
48   H        73.2916   -5.5938   61.1398  H     
49   H        76.7463   -8.8527   61.9343  H     
50   H        76.1104   -7.2588   58.0216  H     
51   H        75.3438   -5.9658   57.1194  H     
@<TRIPOS>BOND
     1    1    2 2
     2    1    6 1
     3    1    7 1
     4    2    3 1
     5    3    4 2
     6    4    5 1
     7    5    6 2
     8    7    8 1
     9    7   13 1
    10    8    9 1
    11    9   10 1
    12   10   11 am
    13   11   12 1
    14   11   19 2
    15   12   20 2
    16   12   24 1
    17   13   14 2
    18   13   18 1
    19   14   15 1
    20   15   16 2
    21   16   17 1
    22   17   18 2
    23   20   21 1
    24   21   22 2
    25   22   23 1
    26   22   25 1
    27   23   24 2
    28   25   26 1
    29   26   27 1
    30   27   28 1
    31   27   29 1
    32   27   30 1
    33    2   31 1
    34    3   32 1
    35    4   33 1
    36    5   34 1
    37    6   35 1
    38    7   36 1
    39    8   37 1
    40    8   38 1
    41    9   39 1
    42    9   40 1
    43   10   41 1
    44   14   42 1
    45   15   43 1
    46   16   44 1
    47   17   45 1
    48   18   46 1
    49   20   47 1
    50   21   48 1
    51   24   49 1
    52   26   50 1
    53   26   51 1
@<TRIPOS>PROPERTY_DATA
  Total_Score	| 11.9088
  Crash		| -1.6208
  Polar		| 2.8195
  FragIndex	| 1
  FragRMSD	| 1.034

