@<TRIPOS>MOLECULE
BindingDB_50302479
 46 48 0 0 0
SMALL
NO_CHARGES


@<TRIPOS>ATOM
1    C        74.8747   -9.3744   70.0654  C     
2    C        75.7166   -8.2405   70.2042  C     
3    C        76.1048   -7.7757   71.4829  C     
4    C        75.6469   -8.4274   72.6463  C     
5    C        74.7967   -9.5441   72.5303  C     
6    C        74.4257  -10.0172   71.2586  C     
7    C        74.4728   -9.9810   68.7452  C     
8    C        74.5411   -9.0690   67.4619  C     
9    C        74.3314   -9.8093   66.1011  C     
10   N        74.2592   -8.8654   65.0119  N     
11   C        75.1467   -8.7298   64.0222  C     
12   C        74.9325   -7.9006   62.9166  C     
13   C        75.1605  -11.3101   68.5907  C     
14   C        74.4018  -12.5132   68.5767  C     
15   C        75.0209  -13.7590   68.3764  C     
16   C        76.4164  -13.8354   68.2067  C     
17   C        77.1917  -12.6597   68.2224  C     
18   C        76.5683  -11.4053   68.4296  C     
19   O        76.1679   -9.4142   64.0521  O     
20   C        75.8261   -7.9231   61.8145  C     
21   C        75.5926   -7.1694   60.6587  C     
22   C        74.4265   -6.3918   60.5886  C     
23   N        73.5878   -6.3353   61.6562  N     
24   C        73.8130   -7.0336   62.7976  C     
25   N        74.1143   -5.7534   59.4503  N     
26   H        76.0686   -7.7369   69.3834  H     
27   H        76.7237   -6.9664   71.5642  H     
28   H        75.9491   -8.0904   73.5717  H     
29   H        74.4659  -10.0171   73.3787  H     
30   H        73.8309  -10.8570   71.2040  H     
31   H        73.3925  -10.1847   68.8537  H     
32   H        73.7471   -8.3137   67.5638  H     
33   H        75.5189   -8.5625   67.4185  H     
34   H        75.1574  -10.5229   65.9701  H     
35   H        73.3798  -10.3827   66.1048  H     
36   H        73.4813   -8.2764   65.0037  H     
37   H        73.3793  -12.4833   68.6895  H     
38   H        74.4567  -14.6118   68.3701  H     
39   H        76.8620  -14.7386   68.0520  H     
40   H        78.2068  -12.7143   68.1059  H     
41   H        77.1481  -10.5643   68.4286  H     
42   H        76.6620   -8.5135   61.8299  H     
43   H        76.2337   -7.2249   59.8674  H     
44   H        73.1269   -6.9383   63.5458  H     
45   H        73.2715   -5.2810   59.3861  H     
46   H        74.6946   -5.8230   58.6801  H     
@<TRIPOS>BOND
     1    1    2 2
     2    1    6 1
     3    1    7 1
     4    2    3 1
     5    3    4 2
     6    4    5 1
     7    5    6 2
     8    7    8 1
     9    7   13 1
    10    8    9 1
    11    9   10 1
    12   10   11 am
    13   11   12 1
    14   11   19 2
    15   12   20 2
    16   12   24 1
    17   13   14 2
    18   13   18 1
    19   14   15 1
    20   15   16 2
    21   16   17 1
    22   17   18 2
    23   20   21 1
    24   21   22 2
    25   22   23 1
    26   22   25 1
    27   23   24 2
    28    2   26 1
    29    3   27 1
    30    4   28 1
    31    5   29 1
    32    6   30 1
    33    7   31 1
    34    8   32 1
    35    8   33 1
    36    9   34 1
    37    9   35 1
    38   10   36 1
    39   14   37 1
    40   15   38 1
    41   16   39 1
    42   17   40 1
    43   18   41 1
    44   20   42 1
    45   21   43 1
    46   24   44 1
    47   25   45 1
    48   25   46 1
@<TRIPOS>PROPERTY_DATA
  Total_Score	| 12.0642
  Crash		| -1.6957
  Polar		| 3.6920
  FragIndex	| 1
  FragRMSD	| 0.186

