@<TRIPOS>MOLECULE
BindingDB_50297407
 47 49 0 0 0
SMALL
NO_CHARGES


@<TRIPOS>ATOM
1    C        74.6267   -9.9628   68.6554  C     
2    C        74.9623   -9.4287   70.0095  C     
3    C        74.8581   -9.0251   67.4317  C     
4    C        74.4454  -10.0913   71.1409  C     
5    C        74.7249   -9.6517   72.4406  C     
6    C        75.5424   -8.5308   72.6358  C     
7    C        76.0868   -7.8580   71.5335  C     
8    C        75.7945   -8.3029   70.2316  C     
9    C        74.5206   -9.7100   66.0730  C     
10   N        74.1530   -8.7938   65.0458  N     
11   C        74.8625   -8.4144   63.9735  C     
12   C        74.4965   -7.2409   63.2091  C     
13   O        75.9545   -8.9442   63.7547  O     
14   C        74.9329   -7.1147   61.7862  C     
15   C        76.1414   -7.6699   61.2960  C     
16   C        76.5489   -7.4842   59.9671  C     
17   C        75.7605   -6.6764   59.1168  C     
18   N        74.6120   -6.1165   59.5842  N     
19   C        74.2007   -6.3087   60.8656  C     
20   C        75.2870  -11.2914   68.4507  C     
21   C        74.5083  -12.4539   68.2611  C     
22   C        75.1179  -13.7036   68.0568  C     
23   C        76.5219  -13.8056   68.0465  C     
24   C        77.3158  -12.6598   68.2460  C     
25   C        76.7041  -11.4103   68.4263  C     
26   H        73.5364  -10.0941   68.6644  H     
27   H        74.2273   -8.1398   67.5190  H     
28   H        75.9016   -8.6990   67.4078  H     
29   H        73.8558  -10.9203   71.0352  H     
30   H        74.3429  -10.1604   73.2501  H     
31   H        75.7634   -8.2265   73.5892  H     
32   H        76.6979   -7.0583   71.6767  H     
33   H        76.2144   -7.8040   69.4459  H     
34   H        75.3663  -10.3230   65.7306  H     
35   H        73.6693  -10.3867   66.2229  H     
36   H        73.3104   -8.3323   65.1742  H     
37   H        73.3952   -7.1605   63.2219  H     
38   H        74.8692   -6.3508   63.7352  H     
39   H        76.7523   -8.2024   61.9065  H     
40   H        77.4212   -7.9042   59.6243  H     
41   H        76.0498   -6.5202   58.1419  H     
42   H        73.3279   -5.8511   61.1369  H     
43   H        73.4884  -12.4036   68.2648  H     
44   H        74.5421  -14.5389   67.9332  H     
45   H        76.9660  -14.7155   67.8936  H     
46   H        78.3287  -12.7387   68.2566  H     
47   H        77.2984  -10.5843   68.5479  H     
@<TRIPOS>BOND
     1    1    2 1
     2    1    3 1
     3    1   20 1
     4    2    4 2
     5    2    8 1
     6    3    9 1
     7    4    5 1
     8    5    6 2
     9    6    7 1
    10    7    8 2
    11    9   10 1
    12   10   11 am
    13   11   12 1
    14   11   13 2
    15   12   14 1
    16   14   15 2
    17   14   19 1
    18   15   16 1
    19   16   17 2
    20   17   18 1
    21   18   19 2
    22   20   21 1
    23   20   25 2
    24   21   22 2
    25   22   23 1
    26   23   24 2
    27   24   25 1
    28    1   26 1
    29    3   27 1
    30    3   28 1
    31    4   29 1
    32    5   30 1
    33    6   31 1
    34    7   32 1
    35    8   33 1
    36    9   34 1
    37    9   35 1
    38   10   36 1
    39   12   37 1
    40   12   38 1
    41   15   39 1
    42   16   40 1
    43   17   41 1
    44   19   42 1
    45   21   43 1
    46   22   44 1
    47   23   45 1
    48   24   46 1
    49   25   47 1
@<TRIPOS>PROPERTY_DATA
  Total_Score	| 11.2554
  Crash		| -1.3036
  Polar		| 3.4268
  FragIndex	| 1
  FragRMSD	| 0.703

