@<TRIPOS>MOLECULE
BindingDB_50297396
 45 47 0 0 0
SMALL
NO_CHARGES


@<TRIPOS>ATOM
1    C        74.4587  -10.0022   68.6249  C     
2    C        74.8457   -9.4164   69.9584  C     
3    C        74.4744   -9.0530   67.3833  C     
4    C        75.2303  -11.2779   68.4239  C     
5    C        75.7048   -8.2971   70.1278  C     
6    C        76.0644   -7.8531   71.4151  C     
7    C        75.5738   -8.5053   72.5588  C     
8    C        74.7265   -9.6207   72.4107  C     
9    C        74.3736  -10.0721   71.1240  C     
10   C        76.6425  -11.3277   68.5155  C     
11   C        77.3504  -12.5234   68.2680  C     
12   C        76.6547  -13.6958   67.9197  C     
13   C        75.2549  -13.6727   67.8295  C     
14   C        74.5509  -12.4838   68.1038  C     
15   C        74.3794   -9.7769   65.9997  C     
16   C        74.8447   -7.7570   62.8491  C     
17   C        73.8229   -6.7687   62.8778  C     
18   C        73.5725   -5.9406   61.7646  C     
19   C        74.3157   -6.0973   60.5826  C     
20   C        75.3388   -7.0512   60.5287  C     
21   C        75.6008   -7.8667   61.6486  C     
22   O        76.1554   -9.2477   63.9274  O     
23   C        75.0999   -8.6181   63.9285  C     
24   N        74.2442   -8.8133   64.9376  N     
25   H        73.3924  -10.2703   68.7263  H     
26   H        73.5890   -8.3991   67.4696  H     
27   H        75.3900   -8.4428   67.3685  H     
28   H        76.0959   -7.8030   69.3222  H     
29   H        76.6800   -7.0382   71.5235  H     
30   H        75.8239   -8.1665   73.5001  H     
31   H        74.3663  -10.1010   73.2441  H     
32   H        73.7715  -10.9064   71.0530  H     
33   H        77.1773  -10.4846   68.7523  H     
34   H        78.3719  -12.5496   68.3590  H     
35   H        77.1643  -14.5523   67.7123  H     
36   H        74.7402  -14.5277   67.5882  H     
37   H        73.5318  -12.4986   68.0305  H     
38   H        75.2702  -10.4211   65.8763  H     
39   H        73.4862  -10.4274   65.9674  H     
40   H        73.2530   -6.6249   63.7119  H     
41   H        72.8419   -5.2251   61.8069  H     
42   H        74.1082   -5.5231   59.7576  H     
43   H        75.8780   -7.1798   59.6643  H     
44   H        76.3401   -8.5684   61.5560  H     
45   H        73.4394   -8.2630   64.9708  H     
@<TRIPOS>BOND
     1    1    2 1
     2    1    3 1
     3    1    4 1
     4    2    5 2
     5    2    9 1
     6    3   15 1
     7    4   10 2
     8    4   14 1
     9    5    6 1
    10    6    7 2
    11    7    8 1
    12    8    9 2
    13   10   11 1
    14   11   12 2
    15   12   13 1
    16   13   14 2
    17   15   24 1
    18   16   17 2
    19   16   21 1
    20   16   23 1
    21   17   18 1
    22   18   19 2
    23   19   20 1
    24   20   21 2
    25   22   23 2
    26   23   24 am
    27    1   25 1
    28    3   26 1
    29    3   27 1
    30    5   28 1
    31    6   29 1
    32    7   30 1
    33    8   31 1
    34    9   32 1
    35   10   33 1
    36   11   34 1
    37   12   35 1
    38   13   36 1
    39   14   37 1
    40   15   38 1
    41   15   39 1
    42   17   40 1
    43   18   41 1
    44   19   42 1
    45   20   43 1
    46   21   44 1
    47   24   45 1
@<TRIPOS>PROPERTY_DATA
  Total_Score	| 12.8510
  Crash		| -1.2510
  Polar		| 3.7988
  FragIndex	| 1
  FragRMSD	| 0.160

