@<TRIPOS>MOLECULE
BindingDB_50297402
 45 47 0 0 0
SMALL
NO_CHARGES


@<TRIPOS>ATOM
1    C        74.3993  -10.0231   68.6458  C     
2    C        74.7826   -9.4282   69.9757  C     
3    C        74.3965   -9.0622   67.4007  C     
4    C        75.2019  -11.2768   68.4371  C     
5    C        74.3631  -10.0964   71.1621  C     
6    C        74.7487   -9.6225   72.4358  C     
7    C        75.5928   -8.4952   72.5466  C     
8    C        76.0233   -7.8349   71.3744  C     
9    C        75.6071   -8.2853   70.1091  C     
10   C        74.5418  -12.4766   68.0670  C     
11   C        75.2682  -13.6525   67.7778  C     
12   C        76.6709  -13.6483   67.8961  C     
13   C        77.3460  -12.4718   68.2744  C     
14   C        76.6179  -11.2969   68.5502  C     
15   C        74.2793   -9.7825   66.0184  C     
16   N        74.1973   -8.8244   64.9478  N     
17   C        75.1018   -8.6605   63.9731  C     
18   C        74.8940   -7.8204   62.8671  C     
19   O        76.1326   -9.3305   64.0143  O     
20   C        73.9267   -6.7821   62.8379  C     
21   C        73.7173   -6.0128   61.6813  C     
22   C        74.4605   -6.2986   60.5262  C     
23   N        75.4143   -7.2557   60.5770  N     
24   C        75.6537   -7.9971   61.6862  C     
25   F        75.9611   -8.0564   73.7234  F     
26   F        77.3419  -14.7206   67.5906  F     
27   O        74.2559   -5.6699   59.3478  O     
28   H        73.3344  -10.2985   68.7601  H     
29   H        73.5109   -8.4128   67.5076  H     
30   H        75.3207   -8.4369   67.3885  H     
31   H        73.7674  -10.9421   71.1141  H     
32   H        74.4223  -10.1117   73.2709  H     
33   H        76.6245   -7.0172   71.4401  H     
34   H        75.9250   -7.7683   69.2846  H     
35   H        73.5220  -12.5047   67.9818  H     
36   H        74.7653  -14.5093   67.5053  H     
37   H        78.3684  -12.4770   68.3712  H     
38   H        77.1253  -10.4492   68.8243  H     
39   H        75.1433  -10.4464   65.8979  H     
40   H        73.3658  -10.4031   65.9840  H     
41   H        73.4222   -8.2306   64.9661  H     
42   H        73.3550   -6.5680   63.6607  H     
43   H        73.0256   -5.2536   61.6767  H     
44   H        76.3793   -8.7093   61.6186  H     
45   H        73.2908   -5.4830   59.3139  H     
@<TRIPOS>BOND
     1    1    2 1
     2    1    3 1
     3    1    4 1
     4    2    5 2
     5    2    9 1
     6    3   15 1
     7    4   10 2
     8    4   14 1
     9    5    6 1
    10    6    7 2
    11    7    8 1
    12    7   25 1
    13    8    9 2
    14   10   11 1
    15   11   12 2
    16   12   13 1
    17   12   26 1
    18   13   14 2
    19   15   16 1
    20   16   17 am
    21   17   18 1
    22   17   19 2
    23   18   20 2
    24   18   24 1
    25   20   21 1
    26   21   22 2
    27   22   23 1
    28   22   27 1
    29   23   24 2
    30    1   28 1
    31    3   29 1
    32    3   30 1
    33    5   31 1
    34    6   32 1
    35    8   33 1
    36    9   34 1
    37   10   35 1
    38   11   36 1
    39   13   37 1
    40   14   38 1
    41   15   39 1
    42   15   40 1
    43   16   41 1
    44   20   42 1
    45   21   43 1
    46   24   44 1
    47   27   45 1
@<TRIPOS>PROPERTY_DATA
  Total_Score	| 12.2201
  Crash		| -1.9111
  Polar		| 3.7328
  FragIndex	| 1
  FragRMSD	| 0.988

