@<TRIPOS>MOLECULE
BindingDB_50297398
 44 46 0 0 0
SMALL
NO_CHARGES


@<TRIPOS>ATOM
1    C        74.4821  -10.0119   68.6095  C     
2    C        74.8365   -9.4297   69.9487  C     
3    C        74.5427   -9.0300   67.3769  C     
4    C        75.2654  -11.2808   68.4057  C     
5    C        74.3970  -10.0964   71.1199  C     
6    C        74.7571   -9.6270   72.3999  C     
7    C        75.6018   -8.5036   72.5347  C     
8    C        76.0553   -7.8441   71.3746  C     
9    C        75.6539   -8.2838   70.0962  C     
10   C        74.5871  -12.4900   68.0988  C     
11   C        75.2979  -13.6745   67.8230  C     
12   C        76.7046  -13.6835   67.9063  C     
13   C        77.3983  -12.5028   68.2375  C     
14   C        76.6832  -11.3113   68.4893  C     
15   C        74.3953   -9.7122   65.9760  C     
16   N        74.2840   -8.7464   64.9114  N     
17   C        75.1404   -8.5712   63.8987  C     
18   C        74.8630   -7.7327   62.8116  C     
19   O        76.1953   -9.2089   63.9012  O     
20   C        73.8766   -6.7114   62.8372  C     
21   C        73.6259   -5.9088   61.7072  C     
22   C        74.3443   -6.1421   60.5280  C     
23   N        75.2946   -7.1049   60.5139  N     
24   C        75.5714   -7.8826   61.5905  C     
25   F        75.9713   -8.0846   73.7187  F     
26   F        77.3654  -14.7618   67.5941  F     
27   H        73.4135  -10.2700   68.6771  H     
28   H        73.7055   -8.3202   67.4940  H     
29   H        75.5120   -8.4736   67.3884  H     
30   H        73.7936  -10.9386   71.0582  H     
31   H        74.4203  -10.1179   73.2336  H     
32   H        76.6676   -7.0245   71.4527  H     
33   H        75.9734   -7.7462   69.2780  H     
34   H        73.5645  -12.5145   68.0510  H     
35   H        74.7858  -14.5362   67.5943  H     
36   H        78.4221  -12.5123   68.3191  H     
37   H        77.2088  -10.4618   68.7300  H     
38   H        75.2515  -10.3826   65.8284  H     
39   H        73.4767  -10.3251   65.9529  H     
40   H        73.4809   -8.1916   64.9262  H     
41   H        73.3342   -6.5206   63.6877  H     
42   H        72.9233   -5.1619   61.7406  H     
43   H        74.1704   -5.5981   59.6885  H     
44   H        76.2859   -8.6011   61.4821  H     
@<TRIPOS>BOND
     1    1    2 1
     2    1    3 1
     3    1    4 1
     4    2    5 2
     5    2    9 1
     6    3   15 1
     7    4   10 2
     8    4   14 1
     9    5    6 1
    10    6    7 2
    11    7    8 1
    12    7   25 1
    13    8    9 2
    14   10   11 1
    15   11   12 2
    16   12   13 1
    17   12   26 1
    18   13   14 2
    19   15   16 1
    20   16   17 am
    21   17   18 1
    22   17   19 2
    23   18   20 2
    24   18   24 1
    25   20   21 1
    26   21   22 2
    27   22   23 1
    28   23   24 2
    29    1   27 1
    30    3   28 1
    31    3   29 1
    32    5   30 1
    33    6   31 1
    34    8   32 1
    35    9   33 1
    36   10   34 1
    37   11   35 1
    38   13   36 1
    39   14   37 1
    40   15   38 1
    41   15   39 1
    42   16   40 1
    43   20   41 1
    44   21   42 1
    45   22   43 1
    46   24   44 1
@<TRIPOS>PROPERTY_DATA
  Total_Score	| 12.6536
  Crash		| -1.4181
  Polar		| 3.7015
  FragIndex	| 1
  FragRMSD	| 0.983

