@<TRIPOS>MOLECULE
BindingDB_50297408
 44 46 0 0 0
SMALL
NO_CHARGES


@<TRIPOS>ATOM
1    C        74.5541   -9.9368   68.6037  C     
2    C        74.9111   -9.3596   69.9454  C     
3    C        74.7214   -9.0026   67.3496  C     
4    C        75.2473  -11.2597   68.4158  C     
5    C        74.3915   -9.9902   71.1036  C     
6    C        74.6941   -9.5151   72.3906  C     
7    C        75.5386   -8.4082   72.5603  C     
8    C        76.0867   -7.7826   71.4276  C     
9    C        75.7754   -8.2511   70.1367  C     
10   C        74.4914  -12.4417   68.1956  C     
11   C        75.1203  -13.6791   67.9678  C     
12   C        76.5260  -13.7500   67.9654  C     
13   C        77.2981  -12.5980   68.2120  C     
14   C        76.6645  -11.3573   68.4202  C     
15   C        74.3419   -9.6921   66.0055  C     
16   C        75.0088   -7.8770   62.8036  C     
17   C        73.9569   -6.9334   62.6958  C     
18   C        73.8144   -6.1751   61.5162  C     
19   C        74.7105   -6.3443   60.4461  C     
20   C        75.7579   -7.2595   60.5960  C     
21   N        75.8640   -7.9804   61.7441  N     
22   N        74.3266   -8.7669   64.9099  N     
23   C        75.2048   -8.7052   63.9084  C     
24   O        76.1990   -9.4251   63.9291  O     
25   H        73.4748  -10.1131   68.6551  H     
26   H        74.0464   -8.1443   67.4701  H     
27   H        75.7492   -8.6187   67.2560  H     
28   H        73.7824  -10.8108   71.0229  H     
29   H        74.3041   -9.9834   73.2087  H     
30   H        75.7638   -8.0746   73.5059  H     
31   H        76.6934   -6.9720   71.5442  H     
32   H        76.1962   -7.7636   69.3497  H     
33   H        73.4655  -12.4099   68.1823  H     
34   H        74.5636  -14.5229   67.7963  H     
35   H        76.9810  -14.6431   67.7803  H     
36   H        78.3200  -12.6628   68.2320  H     
37   H        77.2320  -10.5210   68.5757  H     
38   H        75.0494  -10.5083   65.8459  H     
39   H        73.3416  -10.1288   66.0772  H     
40   H        73.2932   -6.7729   63.4635  H     
41   H        73.0653   -5.4837   61.4545  H     
42   H        74.5988   -5.8138   59.5743  H     
43   H        76.4309   -7.3942   59.8445  H     
44   H        73.5789   -8.1446   64.9020  H     
@<TRIPOS>BOND
     1    1    2 1
     2    1    3 1
     3    1    4 1
     4    2    5 2
     5    2    9 1
     6    3   15 1
     7    4   10 2
     8    4   14 1
     9    5    6 1
    10    6    7 2
    11    7    8 1
    12    8    9 2
    13   10   11 1
    14   11   12 2
    15   12   13 1
    16   13   14 2
    17   15   22 1
    18   16   17 2
    19   16   21 1
    20   16   23 1
    21   17   18 1
    22   18   19 2
    23   19   20 1
    24   20   21 2
    25   22   23 am
    26   23   24 2
    27    1   25 1
    28    3   26 1
    29    3   27 1
    30    5   28 1
    31    6   29 1
    32    7   30 1
    33    8   31 1
    34    9   32 1
    35   10   33 1
    36   11   34 1
    37   12   35 1
    38   13   36 1
    39   14   37 1
    40   15   38 1
    41   15   39 1
    42   17   40 1
    43   18   41 1
    44   19   42 1
    45   20   43 1
    46   22   44 1
@<TRIPOS>PROPERTY_DATA
  Total_Score	| 11.9329
  Crash		| -0.9726
  Polar		| 3.4989
  FragIndex	| 1
  FragRMSD	| 0.646

