@<TRIPOS>MOLECULE
BindingDB_50297406
 47 49 0 0 0
SMALL
NO_CHARGES


@<TRIPOS>ATOM
1    C        75.4406   -9.0043   68.3712  C     
2    C        74.4735   -8.6730   67.1824  C     
3    C        74.3023   -9.6969   66.0231  C     
4    N        74.0885   -9.0207   64.7535  N     
5    C        75.0276   -8.7221   63.8518  C     
6    C        74.7888   -7.8417   62.7847  C     
7    O        76.1466   -9.2371   63.9334  O     
8    C        75.6379   -7.7754   61.6532  C     
9    C        75.3436   -6.9163   60.5719  C     
10   C        74.1943   -6.1182   60.6244  C     
11   N        73.4131   -6.1535   61.7268  N     
12   C        73.6743   -6.9604   62.7863  C     
13   C        74.9572  -10.1128   69.3570  C     
14   C        75.3272  -11.4622   68.8627  C     
15   C        75.2510   -9.9966   70.8342  C     
16   C        75.0271  -11.1113   71.6951  C     
17   C        75.0888  -10.9913   73.0949  C     
18   C        75.3996   -9.7488   73.6755  C     
19   C        75.6051   -8.6176   72.8542  C     
20   C        75.5603   -8.7499   71.4501  C     
21   C        76.6609  -11.8437   68.5313  C     
22   C        77.0016  -13.1787   68.2894  C     
23   C        76.0042  -14.1730   68.3621  C     
24   C        74.6670  -13.8127   68.6354  C     
25   C        74.3247  -12.4728   68.8269  C     
26   H        76.4292   -9.2646   67.9813  H     
27   H        75.5513   -8.0622   68.9449  H     
28   H        73.4612   -8.4526   67.5420  H     
29   H        74.8627   -7.7467   66.7538  H     
30   H        75.1803  -10.3449   65.9725  H     
31   H        73.4345  -10.3475   66.2143  H     
32   H        73.2110   -8.6028   64.6201  H     
33   H        76.4675   -8.3742   61.5905  H     
34   H        75.9394   -6.8970   59.7436  H     
35   H        73.9408   -5.5136   59.8440  H     
36   H        73.0444   -6.9035   63.5889  H     
37   H        73.8675   -9.9996   69.3375  H     
38   H        74.7936  -12.0192   71.2995  H     
39   H        74.8709  -11.8169   73.6823  H     
40   H        75.4235   -9.6596   74.6975  H     
41   H        75.7528   -7.7011   73.2869  H     
42   H        75.7403   -7.9021   70.9004  H     
43   H        77.4134  -11.1562   68.4677  H     
44   H        77.9774  -13.4317   68.0731  H     
45   H        76.2466  -15.1524   68.2488  H     
46   H        73.9427  -14.5389   68.6758  H     
47   H        73.3278  -12.2353   68.9763  H     
@<TRIPOS>BOND
     1    1    2 1
     2    1   13 1
     3    2    3 1
     4    3    4 1
     5    4    5 am
     6    5    6 1
     7    5    7 2
     8    6    8 2
     9    6   12 1
    10    8    9 1
    11    9   10 2
    12   10   11 1
    13   11   12 2
    14   13   14 1
    15   13   15 1
    16   14   21 2
    17   14   25 1
    18   15   16 2
    19   15   20 1
    20   16   17 1
    21   17   18 2
    22   18   19 1
    23   19   20 2
    24   21   22 1
    25   22   23 2
    26   23   24 1
    27   24   25 2
    28    1   26 1
    29    1   27 1
    30    2   28 1
    31    2   29 1
    32    3   30 1
    33    3   31 1
    34    4   32 1
    35    8   33 1
    36    9   34 1
    37   10   35 1
    38   12   36 1
    39   13   37 1
    40   16   38 1
    41   17   39 1
    42   18   40 1
    43   19   41 1
    44   20   42 1
    45   21   43 1
    46   22   44 1
    47   23   45 1
    48   24   46 1
    49   25   47 1
@<TRIPOS>PROPERTY_DATA
  Total_Score	| 11.4813
  Crash		| -1.0700
  Polar		| 3.3369
  FragIndex	| 1
  FragRMSD	| 0.744

