@<TRIPOS>MOLECULE
BindingDB_50297413
 44 46 0 0 0
SMALL
NO_CHARGES


@<TRIPOS>ATOM
1    C        75.3809   -6.8546   60.5711  C     
2    C        74.1820   -6.1380   60.5800  C     
3    N        73.3714   -6.1982   61.6705  N     
4    C        73.6662   -6.9604   62.7587  C     
5    C        74.8360   -7.7521   62.8116  C     
6    C        75.7032   -7.6575   61.6836  C     
7    C        75.1295   -8.6070   63.8859  C     
8    N        74.3000   -8.7729   64.9203  N     
9    O        76.1604   -9.2712   63.8575  O     
10   C        74.4107   -9.7157   65.9942  C     
11   C        74.6358   -9.0077   67.3694  C     
12   C        74.5117   -9.9622   68.6090  C     
13   C        75.2426  -11.2544   68.3971  C     
14   C        74.8851   -9.3851   69.9448  C     
15   C        75.7374   -8.2581   70.1021  C     
16   C        76.0960   -7.8049   71.3907  C     
17   C        75.5635   -8.4298   72.5367  C     
18   C        74.7075   -9.5399   72.3979  C     
19   C        74.3855  -10.0205   71.1146  C     
20   C        76.6535  -11.3192   68.4709  C     
21   C        77.3390  -12.5289   68.2398  C     
22   C        76.6273  -13.6883   67.8928  C     
23   C        75.2256  -13.6496   67.8244  C     
24   C        74.5383  -12.4464   68.0817  C     
25   H        76.0087   -6.8043   59.7632  H     
26   H        73.9028   -5.5689   59.7746  H     
27   H        72.9969   -6.9471   63.5261  H     
28   H        76.5825   -8.1768   61.6481  H     
29   H        73.5218   -8.1940   64.9764  H     
30   H        73.4707  -10.2839   66.0092  H     
31   H        75.2223  -10.4362   65.8180  H     
32   H        75.6195   -8.5125   67.3835  H     
33   H        73.8667   -8.2326   67.4748  H     
34   H        73.4314  -10.1671   68.6788  H     
35   H        76.1081   -7.7795   69.2741  H     
36   H        76.7100   -7.0059   71.5004  H     
37   H        75.7981   -8.0717   73.4701  H     
38   H        74.3093   -9.9887   73.2292  H     
39   H        73.7821  -10.8513   71.0290  H     
40   H        77.2000  -10.4845   68.7045  H     
41   H        78.3580  -12.5666   68.3185  H     
42   H        77.1243  -14.5615   67.7100  H     
43   H        74.6995  -14.4957   67.5857  H     
44   H        73.5182  -12.4453   68.0237  H     
@<TRIPOS>BOND
     1    1    2 2
     2    1    6 1
     3    2    3 1
     4    3    4 2
     5    4    5 1
     6    5    6 2
     7    5    7 1
     8    7    8 am
     9    7    9 2
    10    8   10 1
    11   10   11 1
    12   11   12 1
    13   12   13 1
    14   12   14 1
    15   13   20 2
    16   13   24 1
    17   14   15 2
    18   14   19 1
    19   15   16 1
    20   16   17 2
    21   17   18 1
    22   18   19 2
    23   20   21 1
    24   21   22 2
    25   22   23 1
    26   23   24 2
    27    1   25 1
    28    2   26 1
    29    4   27 1
    30    6   28 1
    31    8   29 1
    32   10   30 1
    33   10   31 1
    34   11   32 1
    35   11   33 1
    36   12   34 1
    37   15   35 1
    38   16   36 1
    39   17   37 1
    40   18   38 1
    41   19   39 1
    42   20   40 1
    43   21   41 1
    44   22   42 1
    45   23   43 1
    46   24   44 1
@<TRIPOS>PROPERTY_DATA
  Total_Score	| 12.6148
  Crash		| -1.0682
  Polar		| 3.7765
  FragIndex	| 1
  FragRMSD	| 0.126

