@<TRIPOS>MOLECULE
BindingDB_50297409
 34 35 0 0 0
SMALL
NO_CHARGES


@<TRIPOS>ATOM
1    C        74.3110   -9.6019   68.6247  C     
2    C        74.8005   -9.1661   69.9679  C     
3    C        74.8463   -8.8809   67.3424  C     
4    C        75.7007   -8.0870   70.1755  C     
5    C        76.1211   -7.7504   71.4784  C     
6    C        75.6363   -8.4634   72.5902  C     
7    C        74.7193   -9.5106   72.4049  C     
8    C        74.3149   -9.8709   71.1054  C     
9    C        74.4800   -9.6261   66.0303  C     
10   N        74.3568   -8.7158   64.9316  N     
11   C        75.1570   -8.6060   63.8741  C     
12   C        74.8605   -7.7533   62.7941  C     
13   O        76.1879   -9.2654   63.8352  O     
14   C        75.7156   -7.6575   61.6563  C     
15   C        75.3777   -6.8574   60.5433  C     
16   C        74.1738   -6.1407   60.5702  C     
17   N        73.3739   -6.2011   61.6614  N     
18   C        73.6819   -6.9579   62.7475  C     
19   H        74.5300  -10.6771   68.5274  H     
20   H        73.2130   -9.4818   68.6099  H     
21   H        74.4356   -7.8668   67.3245  H     
22   H        75.9400   -8.8074   67.4011  H     
23   H        76.0695   -7.5542   69.3904  H     
24   H        76.7753   -6.9846   71.6214  H     
25   H        75.9356   -8.2045   73.5438  H     
26   H        74.3533  -10.0261   73.2105  H     
27   H        73.6541  -10.6547   70.9857  H     
28   H        75.2351  -10.4025   65.8471  H     
29   H        73.5029  -10.1226   66.1371  H     
30   H        73.5721   -8.1452   64.9526  H     
31   H        76.5982   -8.1805   61.6166  H     
32   H        75.9946   -6.8132   59.7303  H     
33   H        73.8884   -5.5771   59.7674  H     
34   H        73.0184   -6.9475   63.5242  H     
@<TRIPOS>BOND
     1    1    2 1
     2    1    3 1
     3    2    4 2
     4    2    8 1
     5    3    9 1
     6    4    5 1
     7    5    6 2
     8    6    7 1
     9    7    8 2
    10    9   10 1
    11   10   11 am
    12   11   12 1
    13   11   13 2
    14   12   14 2
    15   12   18 1
    16   14   15 1
    17   15   16 2
    18   16   17 1
    19   17   18 2
    20    1   19 1
    21    1   20 1
    22    3   21 1
    23    3   22 1
    24    4   23 1
    25    5   24 1
    26    6   25 1
    27    7   26 1
    28    8   27 1
    29    9   28 1
    30    9   29 1
    31   10   30 1
    32   14   31 1
    33   15   32 1
    34   16   33 1
    35   18   34 1
@<TRIPOS>PROPERTY_DATA
  Total_Score	| 10.1423
  Crash		| -0.7602
  Polar		| 3.6597
  FragIndex	| 1
  FragRMSD	| 0.174

