@<TRIPOS>MOLECULE
BindingDB_50302477
 63 66 0 0 0
SMALL
NO_CHARGES


@<TRIPOS>ATOM
1    C        74.8188   -9.4362   69.7164  C     
2    C        75.6693   -8.3084   69.8091  C     
3    C        76.0016   -7.7446   71.0585  C     
4    C        75.4914   -8.3071   72.2365  C     
5    C        74.6653   -9.4448   72.1705  C     
6    C        74.3490  -10.0132   70.9294  C     
7    C        74.4394  -10.0874   68.4158  C     
8    C        74.5136   -9.1711   67.1504  C     
9    C        73.5983   -9.6109   65.9676  C     
10   N        73.8093   -8.8513   64.7717  N     
11   C        74.9206   -8.8436   64.0344  C     
12   C        75.0271   -8.1558   62.8292  C     
13   C        75.2217  -11.3570   68.2086  C     
14   C        74.5513  -12.5674   67.8754  C     
15   C        75.2680  -13.7581   67.6684  C     
16   C        76.6639  -13.7809   67.8163  C     
17   C        77.3491  -12.5998   68.1489  C     
18   C        76.6348  -11.3938   68.3115  C     
19   O        75.9031   -9.4798   64.4051  O     
20   C        74.1857   -7.0726   62.4591  C     
21   C        74.3777   -6.3901   61.2387  C     
22   C        75.4122   -6.8047   60.3674  C     
23   N        76.1626   -7.8736   60.7357  N     
24   C        76.0062   -8.5437   61.8939  C     
25   C        75.7972   -6.1133   59.1220  C     
26   C        77.2778   -5.6378   59.1018  C     
27   N        77.6804   -4.4812   59.9785  N     
28   C        79.1488   -4.3063   60.0259  C     
29   C        79.3842   -3.2685   61.1366  C     
30   C        78.1436   -3.3563   62.0443  C     
31   C        77.2674   -4.4520   61.3997  C     
32   H        76.0794   -7.8804   68.9778  H     
33   H        76.6007   -6.9211   71.1024  H     
34   H        75.7114   -7.8837   73.1406  H     
35   H        74.2975   -9.8571   73.0318  H     
36   H        73.7691  -10.8534   70.9043  H     
37   H        73.3728  -10.3199   68.5170  H     
38   H        74.1956   -8.1576   67.4013  H     
39   H        75.5613   -9.1143   66.8446  H     
40   H        73.7283  -10.6724   65.7467  H     
41   H        72.5551   -9.4625   66.2724  H     
42   H        73.0322   -8.3812   64.4328  H     
43   H        73.5373  -12.5783   67.7625  H     
44   H        74.7700  -14.6165   67.4234  H     
45   H        77.1827  -14.6518   67.6842  H     
46   H        78.3631  -12.6199   68.2684  H     
47   H        77.1625  -10.5442   68.5389  H     
48   H        73.4401   -6.7549   63.0812  H     
49   H        73.7884   -5.5863   61.0032  H     
50   H        76.6256   -9.3365   62.0568  H     
51   H        75.6653   -6.8283   58.3068  H     
52   H        75.1263   -5.2799   58.9155  H     
53   H        77.9268   -6.5000   59.3003  H     
54   H        77.5007   -5.3233   58.0807  H     
55   H        77.3009   -3.6349   59.5421  H     
56   H        79.6581   -5.2440   60.2964  H     
57   H        79.5459   -3.9639   59.0636  H     
58   H        80.3008   -3.4916   61.6862  H     
59   H        79.4688   -2.2672   60.7050  H     
60   H        78.3912   -3.6273   63.0709  H     
61   H        77.6047   -2.4065   62.0452  H     
62   H        76.2183   -4.1891   61.5117  H     
63   H        77.4662   -5.4085   61.8911  H     
@<TRIPOS>BOND
     1    1    2 2
     2    1    6 1
     3    1    7 1
     4    2    3 1
     5    3    4 2
     6    4    5 1
     7    5    6 2
     8    7    8 1
     9    7   13 1
    10    8    9 1
    11    9   10 1
    12   10   11 am
    13   11   12 1
    14   11   19 2
    15   12   20 2
    16   12   24 1
    17   13   14 2
    18   13   18 1
    19   14   15 1
    20   15   16 2
    21   16   17 1
    22   17   18 2
    23   20   21 1
    24   21   22 2
    25   22   23 1
    26   22   25 1
    27   23   24 2
    28   25   26 1
    29   26   27 1
    30   27   28 1
    31   27   31 1
    32   28   29 1
    33   29   30 1
    34   30   31 1
    35    2   32 1
    36    3   33 1
    37    4   34 1
    38    5   35 1
    39    6   36 1
    40    7   37 1
    41    8   38 1
    42    8   39 1
    43    9   40 1
    44    9   41 1
    45   10   42 1
    46   14   43 1
    47   15   44 1
    48   16   45 1
    49   17   46 1
    50   18   47 1
    51   20   48 1
    52   21   49 1
    53   24   50 1
    54   25   51 1
    55   25   52 1
    56   26   53 1
    57   26   54 1
    58   27   55 1
    59   28   56 1
    60   28   57 1
    61   29   58 1
    62   29   59 1
    63   30   60 1
    64   30   61 1
    65   31   62 1
    66   31   63 1
@<TRIPOS>PROPERTY_DATA
  Total_Score	| 11.5365
  Crash		| -3.0609
  Polar		| 2.6837
  FragIndex	| 1
  FragRMSD	| 1.099

