@<TRIPOS>MOLECULE
BindingDB_50302481
 45 47 0 0 0
SMALL
NO_CHARGES


@<TRIPOS>ATOM
1    C        74.8515   -9.4249   69.8031  C     
2    C        74.3416   -9.9917   71.0049  C     
3    C        74.6710   -9.4571   72.2642  C     
4    C        75.5196   -8.3374   72.3506  C     
5    C        76.0109   -7.7419   71.1798  C     
6    C        75.6766   -8.2774   69.9158  C     
7    C        74.4711  -10.0407   68.4889  C     
8    C        74.5815   -9.1509   67.2020  C     
9    C        73.7854   -9.7303   65.9920  C     
10   N        73.8789   -8.8959   64.8372  N     
11   C        74.9328   -8.7337   64.0425  C     
12   C        74.8454   -7.9040   62.9499  C     
13   C        75.2265  -11.3195   68.2985  C     
14   C        76.6366  -11.3495   68.4160  C     
15   C        77.3517  -12.5353   68.1890  C     
16   C        76.6796  -13.7112   67.8017  C     
17   C        75.2772  -13.6959   67.6784  C     
18   C        74.5589  -12.5165   67.9273  C     
19   O        75.9705   -9.3464   64.2603  O     
20   C        73.8967   -6.8941   62.8912  C     
21   C        73.7003   -6.1742   61.7637  C     
22   C        74.4816   -6.4121   60.6775  C     
23   N        75.4592   -7.3186   60.7570  N     
24   C        75.6408   -8.0690   61.8638  C     
25   O        74.2909   -5.8226   59.6183  O     
26   H        73.7357  -10.8151   70.9617  H     
27   H        74.2981   -9.8864   73.1169  H     
28   H        75.7554   -7.9492   73.2620  H     
29   H        76.6173   -6.9201   71.2372  H     
30   H        76.0632   -7.8170   69.0922  H     
31   H        73.3994  -10.2652   68.5803  H     
32   H        74.1865   -8.1628   67.4459  H     
33   H        75.6335   -9.0319   66.9017  H     
34   H        74.1199  -10.7489   65.7699  H     
35   H        72.7312   -9.7800   66.2627  H     
36   H        73.0642   -8.4299   64.5837  H     
37   H        77.1606  -10.4986   68.6572  H     
38   H        78.3666  -12.5439   68.2976  H     
39   H        77.2027  -14.5595   67.6075  H     
40   H        74.7811  -14.5411   67.3795  H     
41   H        73.5394  -12.5230   67.8307  H     
42   H        73.3480   -6.6702   63.6898  H     
43   H        73.0016   -5.4635   61.7374  H     
44   H        76.0275   -7.4676   59.9832  H     
45   H        76.3418   -8.7772   61.8365  H     
@<TRIPOS>BOND
     1    1    2 2
     2    1    6 1
     3    1    7 1
     4    2    3 1
     5    3    4 2
     6    4    5 1
     7    5    6 2
     8    7    8 1
     9    7   13 1
    10    8    9 1
    11    9   10 1
    12   10   11 am
    13   11   12 1
    14   11   19 2
    15   12   20 1
    16   12   24 2
    17   13   14 2
    18   13   18 1
    19   14   15 1
    20   15   16 2
    21   16   17 1
    22   17   18 2
    23   20   21 2
    24   21   22 1
    25   22   23 1
    26   22   25 2
    27   23   24 1
    28    2   26 1
    29    3   27 1
    30    4   28 1
    31    5   29 1
    32    6   30 1
    33    7   31 1
    34    8   32 1
    35    8   33 1
    36    9   34 1
    37    9   35 1
    38   10   36 1
    39   14   37 1
    40   15   38 1
    41   16   39 1
    42   17   40 1
    43   18   41 1
    44   20   42 1
    45   21   43 1
    46   23   44 1
    47   24   45 1
@<TRIPOS>PROPERTY_DATA
  Total_Score	| 12.6550
  Crash		| -1.3885
  Polar		| 3.1431
  FragIndex	| 1
  FragRMSD	| 1.037

