@<TRIPOS>MOLECULE
BindingDB_50297410
 41 43 0 0 0
SMALL
NO_CHARGES


@<TRIPOS>ATOM
1    C        74.3253   -9.5754   70.1920  C     
2    C        74.9892   -8.7864   69.2144  C     
3    C        75.8838   -7.7813   69.6786  C     
4    C        76.0821   -7.5573   71.0614  C     
5    C        75.4063   -8.3479   72.0049  C     
6    C        74.5315   -9.3573   71.5684  C     
7    C        74.8332   -9.1357   67.7530  C     
8    C        75.5214   -8.1703   66.7311  C     
9    N        74.8952   -8.0598   65.4388  N     
10   C        75.4471   -8.2764   64.2404  C     
11   C        74.9548   -7.6431   63.0868  C     
12   O        76.4507   -8.9831   64.1604  O     
13   C        75.6351   -7.7314   61.8338  C     
14   C        75.2055   -7.0134   60.6984  C     
15   C        74.0547   -6.2195   60.7951  C     
16   N        73.3990   -6.1408   61.9814  N     
17   C        73.8069   -6.8098   63.0947  C     
18   C        75.3078  -10.5422   67.5570  C     
19   C        74.5419  -11.4815   66.8080  C     
20   C        74.9812  -12.8034   66.6374  C     
21   C        76.1627  -13.2555   67.2683  C     
22   C        76.9220  -12.3552   68.0376  C     
23   C        76.5083  -11.0165   68.1558  C     
24   H        73.7195  -10.3456   69.9055  H     
25   H        76.4161   -7.2079   68.9996  H     
26   H        76.7444   -6.8592   71.3864  H     
27   H        75.5591   -8.2118   73.0085  H     
28   H        74.0524   -9.9461   72.2549  H     
29   H        73.7569   -9.0742   67.5475  H     
30   H        75.4498   -7.1551   67.1944  H     
31   H        76.5968   -8.4109   66.6592  H     
32   H        74.0486   -7.5936   65.4474  H     
33   H        76.4793   -8.3025   61.7460  H     
34   H        75.7178   -7.0879   59.8164  H     
35   H        73.7197   -5.6945   59.9850  H     
36   H        73.2513   -6.6669   63.9337  H     
37   H        73.6687  -11.1978   66.3656  H     
38   H        74.4539  -13.4603   66.0610  H     
39   H        76.4816  -14.2144   67.1536  H     
40   H        77.7990  -12.6569   68.4667  H     
41   H        77.0863  -10.3709   68.7063  H     
@<TRIPOS>BOND
     1    1    2 2
     2    1    6 1
     3    2    3 1
     4    2    7 1
     5    3    4 2
     6    4    5 1
     7    5    6 2
     8    7    8 1
     9    7   18 1
    10    8    9 1
    11    9   10 am
    12   10   11 1
    13   10   12 2
    14   11   13 2
    15   11   17 1
    16   13   14 1
    17   14   15 2
    18   15   16 1
    19   16   17 2
    20   18   19 2
    21   18   23 1
    22   19   20 1
    23   20   21 2
    24   21   22 1
    25   22   23 2
    26    1   24 1
    27    3   25 1
    28    4   26 1
    29    5   27 1
    30    6   28 1
    31    7   29 1
    32    8   30 1
    33    8   31 1
    34    9   32 1
    35   13   33 1
    36   14   34 1
    37   15   35 1
    38   17   36 1
    39   19   37 1
    40   20   38 1
    41   21   39 1
    42   22   40 1
    43   23   41 1
@<TRIPOS>PROPERTY_DATA
  Total_Score	| 10.4077
  Crash		| -2.1268
  Polar		| 3.1960
  FragIndex	| 1
  FragRMSD	| 1.100

