@<TRIPOS>MOLECULE
BindingDB_50297397
 44 46 0 0 0
SMALL
NO_CHARGES


@<TRIPOS>ATOM
1    C        74.5146   -9.9413   68.5889  C     
2    C        74.8940   -9.3492   69.9172  C     
3    C        74.6292   -9.0135   67.3348  C     
4    C        75.2486  -11.2395   68.3819  C     
5    C        75.7458   -8.2228   70.0667  C     
6    C        76.0802   -7.7480   71.3531  C     
7    C        75.5707   -8.3800   72.5049  C     
8    C        74.7164   -9.4855   72.3736  C     
9    C        74.3893   -9.9688   71.0911  C     
10   C        76.6607  -11.3241   68.5013  C     
11   C        77.3399  -12.5339   68.2508  C     
12   C        76.6195  -13.6824   67.8875  C     
13   C        75.2192  -13.6226   67.7746  C     
14   C        74.5414  -12.4166   68.0274  C     
15   C        74.3897   -9.7525   65.9796  C     
16   C        74.8202   -7.7456   62.8403  C     
17   C        73.7844   -6.7793   62.9469  C     
18   C        73.5849   -5.8330   61.9249  C     
19   N        74.3708   -5.8480   60.8213  N     
20   C        75.3678   -6.7544   60.6613  C     
21   C        75.6156   -7.7143   61.6615  C     
22   N        74.2519   -8.8282   64.8951  N     
23   C        75.0711   -8.6732   63.8572  C     
24   O        76.0996   -9.3408   63.8114  O     
25   H        73.4367  -10.1491   68.6692  H     
26   H        73.8820   -8.2192   67.4366  H     
27   H        75.6230   -8.5393   67.3123  H     
28   H        76.1347   -7.7533   69.2455  H     
29   H        76.6916   -6.9350   71.4560  H     
30   H        75.8214   -8.0262   73.4342  H     
31   H        74.3395   -9.9473   73.2088  H     
32   H        73.7759  -10.7931   71.0168  H     
33   H        77.2066  -10.4990   68.7565  H     
34   H        78.3574  -12.5759   68.3350  H     
35   H        77.1099  -14.5579   67.6936  H     
36   H        74.6930  -14.4551   67.5120  H     
37   H        73.5235  -12.3953   67.9299  H     
38   H        75.2127  -10.4536   65.8269  H     
39   H        73.4547  -10.3364   66.0222  H     
40   H        73.1809   -6.7265   63.7689  H     
41   H        72.8545   -5.1206   62.0110  H     
42   H        75.9399   -6.7252   59.8140  H     
43   H        76.3799   -8.3800   61.5177  H     
44   H        73.4672   -8.2560   64.9486  H     
@<TRIPOS>BOND
     1    1    2 1
     2    1    3 1
     3    1    4 1
     4    2    5 2
     5    2    9 1
     6    3   15 1
     7    4   10 2
     8    4   14 1
     9    5    6 1
    10    6    7 2
    11    7    8 1
    12    8    9 2
    13   10   11 1
    14   11   12 2
    15   12   13 1
    16   13   14 2
    17   15   22 1
    18   16   17 2
    19   16   21 1
    20   16   23 1
    21   17   18 1
    22   18   19 2
    23   19   20 1
    24   20   21 2
    25   22   23 am
    26   23   24 2
    27    1   25 1
    28    3   26 1
    29    3   27 1
    30    5   28 1
    31    6   29 1
    32    7   30 1
    33    8   31 1
    34    9   32 1
    35   10   33 1
    36   11   34 1
    37   12   35 1
    38   13   36 1
    39   14   37 1
    40   15   38 1
    41   15   39 1
    42   17   40 1
    43   18   41 1
    44   20   42 1
    45   21   43 1
    46   22   44 1
@<TRIPOS>PROPERTY_DATA
  Total_Score	| 12.2560
  Crash		| -1.1028
  Polar		| 3.7202
  FragIndex	| 1
  FragRMSD	| 0.155

