@<TRIPOS>MOLECULE
BindingDB_14798
 36 37 0 0 0
SMALL
NO_CHARGES


@<TRIPOS>ATOM
1    C        15.4796    5.4476   11.9567  C     
2    C        14.4715    5.9192   11.1216  C     
3    N        14.9339    5.2362   13.1602  N     
4    N        13.6768    5.5686   13.1782  N     
5    C        16.9041    5.2232   11.6636  C     
6    C        14.5842    6.1783    9.7379  C     
7    O        15.7872    6.4727    9.1929  O     
8    O        13.4950    6.0391    8.9334  O     
9    C        13.4421    6.2402    7.5164  C     
10   C        12.0039    6.6013    7.0974  C     
11   C        12.9331    5.4653   14.3453  C     
12   C        13.5717    5.1699   15.5788  C     
13   C        12.8486    5.0778   16.7761  C     
14   C        11.4680    5.3170   16.7792  C     
15   C        10.7764    5.6139   15.5801  C     
16   C        11.5238    5.6223   14.3734  C     
17   C        13.3443    6.0419   11.9425  C     
18   C        12.0937    6.7340   11.5455  C     
19   N         9.4376    5.8808   15.5918  N     
20   O         8.8276    6.1911   14.6036  O     
21   O         8.7428    5.9149   16.6944  O     
22   H        17.0118    4.5709   10.7992  H     
23   H        17.4038    4.7622   12.5199  H     
24   H        17.3880    6.1775   11.4513  H     
25   H        14.1170    7.0545    7.2426  H     
26   H        13.7556    5.3305    6.9928  H     
27   H        11.3330    5.7681    7.3208  H     
28   H        11.9648    6.8033    6.0246  H     
29   H        11.6646    7.4901    7.6358  H     
30   H        14.5825    5.0199   15.6184  H     
31   H        13.3330    4.8576   17.6487  H     
32   H        10.9732    5.2797   17.6730  H     
33   H        11.0174    5.7200   13.4963  H     
34   H        11.7077    7.3170   12.3804  H     
35   H        11.3466    6.0021   11.2475  H     
36   H        12.2581    7.4248   10.7164  H     
@<TRIPOS>BOND
     1    1    2 1
     2    1    3 2
     3    1    5 1
     4    2    6 1
     5    2   17 2
     6    3    4 1
     7    4   11 1
     8    4   17 1
     9    6    7 2
    10    6    8 1
    11    8    9 1
    12    9   10 1
    13   11   12 2
    14   11   16 1
    15   12   13 1
    16   13   14 2
    17   14   15 1
    18   15   16 2
    19   15   19 am
    20   17   18 1
    21   19   20 2
    22   19   21 1
    23    5   22 1
    24    5   23 1
    25    5   24 1
    26    9   25 1
    27    9   26 1
    28   10   27 1
    29   10   28 1
    30   10   29 1
    31   12   30 1
    32   13   31 1
    33   14   32 1
    34   16   33 1
    35   18   34 1
    36   18   35 1
    37   18   36 1
@<TRIPOS>PROPERTY_DATA
  Total_Score	| 6.3513
  Crash		| -1.1404
  Polar		| 2.0547
  FragIndex	| 1
  FragRMSD	| 0.723

