@<TRIPOS>MOLECULE
BindingDB_50142326
 71 77 0 0 0
SMALL
NO_CHARGES


@<TRIPOS>ATOM
1    N        39.8327   46.2435   53.9188  N     
2    N        40.8395   45.6767   53.3623  N     
3    P        35.0070   50.3403   47.2239  P     
4    C        34.6060   49.9861   48.8065  C     
5    N        41.4056   44.8188   54.1006  N     
6    C        36.0305   40.6789   50.3051  C     
7    C        39.0398   47.2405   53.2053  C     
8    C        39.7011   45.7066   55.1584  C     
9    N        36.1918   41.8360   49.6430  N     
10   N        36.4939   41.5517   48.4564  N     
11   N        36.2698   39.7299   49.3881  N     
12   N        36.5345   40.3310   48.3178  N     
13   C        35.6716   40.4644   51.6681  C     
14   C        40.7466   44.7884   55.2639  C     
15   C        38.3207   46.6447   51.9127  C     
16   C        35.8781   41.4256   52.7121  C     
17   C        35.6754   49.2030   49.5116  C     
18   O        33.8993   50.9301   46.5217  O     
19   C        36.4735   42.7005   52.5058  C     
20   C        37.6510   45.3013   52.1722  C     
21   C        37.5064   47.5890   51.0396  C     
22   C        38.3068   48.1579   54.1572  C     
23   F        33.4279   49.2640   48.8251  F     
24   F        34.3163   51.1871   49.4290  F     
25   O        36.1573   51.3607   47.1333  O     
26   O        35.4554   49.1040   46.4206  O     
27   C        35.9835   47.8738   49.1221  C     
28   C        36.3986   49.7455   50.6019  C     
29   C        35.6573   43.8407   52.3330  C     
30   C        37.8769   42.8567   52.5049  C     
31   C        36.8917   47.0902   49.8618  C     
32   C        37.3264   48.9676   51.3233  C     
33   C        38.4505   44.1301   52.3205  C     
34   C        36.2418   45.1182   52.1757  C     
35   C        38.8076   45.8706   56.2427  C     
36   C        35.0436   39.2368   52.0010  C     
37   C        35.4545   41.1243   54.0305  C     
38   C        40.9741   44.0333   56.4349  C     
39   C        39.0509   49.1042   54.9230  C     
40   C        36.8942   48.1685   54.2847  C     
41   C        39.0063   45.1168   57.4279  C     
42   C        34.8362   39.8967   54.3276  C     
43   C        34.6326   38.9531   53.3140  C     
44   C        40.0849   44.2057   57.5251  C     
45   C        36.2445   49.0915   55.1296  C     
46   C        38.4019   50.0142   55.7858  C     
47   C        36.9960   50.0044   55.8956  C     
48   H        39.7875   47.9079   52.7601  H     
49   H        36.7430   39.8993   47.5146  H     
50   H        39.1501   46.4150   51.2316  H     
51   H        35.5027   47.4335   48.3325  H     
52   H        36.2564   50.7219   50.8791  H     
53   H        34.6385   43.7482   52.2938  H     
54   H        38.4977   42.0496   52.6287  H     
55   H        37.0717   46.1260   49.5532  H     
56   H        37.8456   49.4111   52.0831  H     
57   H        39.4693   44.1937   52.2715  H     
58   H        35.6131   45.9028   52.0128  H     
59   H        38.0228   46.5309   56.1886  H     
60   H        34.8551   38.5321   51.2866  H     
61   H        35.5856   41.7987   54.7944  H     
62   H        41.7604   43.3766   56.4953  H     
63   H        40.0791   49.1350   54.8527  H     
64   H        36.3181   47.5121   53.7488  H     
65   H        38.3581   45.2354   58.2165  H     
66   H        34.5236   39.6960   55.2838  H     
67   H        34.1773   38.0630   53.5239  H     
68   H        40.2213   43.6600   58.3875  H     
69   H        35.2208   49.0872   55.1949  H     
70   H        38.9485   50.6885   56.3281  H     
71   H        36.5200   50.6726   56.5166  H     
@<TRIPOS>BOND
     1    1    2 1
     2    1    7 1
     3    1    8 1
     4    2    5 2
     5    3    4 1
     6    3   18 2
     7    3   25 1
     8    3   26 1
     9    4   17 1
    10    4   23 1
    11    4   24 1
    12    5   14 1
    13    6    9 1
    14    6   11 2
    15    6   13 1
    16    7   15 1
    17    7   22 1
    18    8   14 2
    19    8   35 1
    20    9   10 2
    21   10   12 1
    22   11   12 1
    23   13   16 2
    24   13   36 1
    25   14   38 1
    26   15   20 1
    27   15   21 1
    28   16   19 1
    29   16   37 1
    30   17   27 2
    31   17   28 1
    32   19   29 1
    33   19   30 2
    34   20   33 2
    35   20   34 1
    36   21   31 2
    37   21   32 1
    38   22   39 2
    39   22   40 1
    40   27   31 1
    41   28   32 2
    42   29   34 2
    43   30   33 1
    44   35   41 2
    45   36   43 2
    46   37   42 2
    47   38   44 2
    48   39   46 1
    49   40   45 2
    50   41   44 1
    51   42   43 1
    52   45   47 1
    53   46   47 2
    54    7   48 1
    55   12   49 1
    56   15   50 1
    57   27   51 1
    58   28   52 1
    59   29   53 1
    60   30   54 1
    61   31   55 1
    62   32   56 1
    63   33   57 1
    64   34   58 1
    65   35   59 1
    66   36   60 1
    67   37   61 1
    68   38   62 1
    69   39   63 1
    70   40   64 1
    71   41   65 1
    72   42   66 1
    73   43   67 1
    74   44   68 1
    75   45   69 1
    76   46   70 1
    77   47   71 1
@<TRIPOS>PROPERTY_DATA
  Total_Score	| 12.1197
  Crash		| -1.5489
  Polar		| 7.6144
  FragIndex	| 1
  FragRMSD	| 0.746

