@<TRIPOS>MOLECULE
BindingDB_13600
 76 81 0 0 0
SMALL
NO_CHARGES


@<TRIPOS>ATOM
1    C        37.9944   50.3544   55.8520  C     
2    C        39.2500   49.8635   55.4639  C     
3    C        39.3358   48.7118   54.6673  C     
4    C        38.1839   47.9939   54.2343  C     
5    C        36.9256   48.5137   54.6643  C     
6    C        36.8316   49.6773   55.4465  C     
7    C        37.0843   45.8177   53.2450  C     
8    C        37.1151   44.5894   52.3786  C     
9    C        36.1276   44.3705   51.3881  C     
10   C        36.0997   43.1829   50.6282  C     
11   C        37.0708   42.1596   50.7924  C     
12   C        38.0657   42.3935   51.7768  C     
13   C        38.0584   43.5529   52.5739  C     
14   C        37.0365   40.9340   50.0310  C     
15   C        36.5904   40.9132   48.6847  C     
16   C        36.5412   39.7167   47.9513  C     
17   C        36.9544   38.4998   48.5197  C     
18   C        37.4758   38.4953   49.8397  C     
19   C        37.4577   39.6989   50.5846  C     
20   C        38.3597   46.7601   53.3548  C     
21   C        38.7455   47.2570   51.8962  C     
22   C        37.6963   47.9604   51.0935  C     
23   C        37.3763   49.3194   51.3255  C     
24   C        36.3752   49.9658   50.5803  C     
25   C        35.6568   49.2837   49.5666  C     
26   C        36.0135   47.9372   49.3059  C     
27   C        37.0249   47.2975   50.0396  C     
28   C        34.5693   49.9502   48.7813  C     
29   F        33.4633   49.1312   48.7116  F     
30   F        34.1140   51.1159   49.3606  F     
31   P        35.0430   50.3257   47.2297  P     
32   O        36.1430   51.2591   47.1746  O     
33   O        35.4816   49.0877   46.4281  O     
34   O        33.8886   50.9568   46.4331  O     
35   N        39.4478   45.9773   53.9510  N     
36   N        40.4995   45.6016   53.3189  N     
37   N        41.2961   44.9063   54.0069  N     
38   C        40.7689   44.7915   55.2247  C     
39   C        39.5734   45.5044   55.2117  C     
40   C        39.2540   44.9255   57.5586  C     
41   C        38.8035   45.5869   56.3933  C     
42   C        41.2290   44.1144   56.3658  C     
43   C        40.4544   44.1832   57.5401  C     
44   P        38.1249   37.1681   50.4683  P     
45   O        39.3201   36.8012   49.7397  O     
46   O        38.5408   37.3032   51.9588  O     
47   O        37.1645   35.9584   50.4060  O     
48   O        36.9201   37.3943   47.7099  O     
49   C        35.5763   36.9996   47.3478  C     
50   H        37.9253   51.1966   56.4215  H     
51   H        40.1027   50.3461   55.7639  H     
52   H        40.2672   48.3841   54.4120  H     
53   H        36.0477   48.0620   54.4025  H     
54   H        35.9143   50.0337   55.7259  H     
55   H        36.2543   46.4332   52.8984  H     
56   H        36.8066   45.4833   54.2443  H     
57   H        35.3998   45.0665   51.2221  H     
58   H        35.3335   43.0730   49.9580  H     
59   H        38.8220   41.7256   51.9405  H     
60   H        38.7559   43.6093   53.3178  H     
61   H        36.3076   41.7715   48.2078  H     
62   H        36.2012   39.7354   46.9833  H     
63   H        37.7461   39.6743   51.5616  H     
64   H        39.6165   47.9172   51.9445  H     
65   H        39.0884   46.3899   51.3248  H     
66   H        37.8830   49.8563   52.0336  H     
67   H        36.1800   50.9480   50.7847  H     
68   H        35.5314   47.4066   48.5766  H     
69   H        37.2625   46.3319   49.8062  H     
70   H        38.7039   44.9819   58.4187  H     
71   H        37.9321   46.1194   56.4146  H     
72   H        42.1037   43.5832   56.3392  H     
73   H        40.7678   43.6982   58.3833  H     
74   H        35.0021   36.6735   48.2404  H     
75   H        35.6414   36.1442   46.6536  H     
76   H        35.0220   37.8108   46.8394  H     
@<TRIPOS>BOND
     1    1    2 2
     2    1    6 1
     3    2    3 1
     4    3    4 2
     5    4    5 1
     6    4   20 1
     7    5    6 2
     8    7    8 1
     9    7   20 1
    10    8    9 1
    11    8   13 2
    12    9   10 2
    13   10   11 1
    14   11   12 2
    15   11   14 1
    16   12   13 1
    17   14   15 2
    18   14   19 1
    19   15   16 1
    20   16   17 2
    21   17   18 1
    22   17   48 1
    23   18   19 2
    24   18   44 1
    25   20   21 1
    26   20   35 1
    27   21   22 1
    28   22   23 1
    29   22   27 2
    30   23   24 2
    31   24   25 1
    32   25   26 2
    33   25   28 1
    34   26   27 1
    35   28   29 1
    36   28   30 1
    37   28   31 1
    38   31   32 2
    39   31   33 1
    40   31   34 1
    41   35   36 1
    42   35   39 1
    43   36   37 2
    44   37   38 1
    45   38   39 2
    46   38   42 1
    47   39   41 1
    48   40   41 2
    49   40   43 1
    50   42   43 2
    51   44   45 2
    52   44   46 1
    53   44   47 1
    54   48   49 1
    55    1   50 1
    56    2   51 1
    57    3   52 1
    58    5   53 1
    59    6   54 1
    60    7   55 1
    61    7   56 1
    62    9   57 1
    63   10   58 1
    64   12   59 1
    65   13   60 1
    66   15   61 1
    67   16   62 1
    68   19   63 1
    69   21   64 1
    70   21   65 1
    71   23   66 1
    72   24   67 1
    73   26   68 1
    74   27   69 1
    75   40   70 1
    76   41   71 1
    77   42   72 1
    78   43   73 1
    79   49   74 1
    80   49   75 1
    81   49   76 1
@<TRIPOS>PROPERTY_DATA
  Total_Score	| 14.3481
  Crash		| -1.2342
  Polar		| 7.7202
  FragIndex	| 1
  FragRMSD	| 0.094

