@<TRIPOS>MOLECULE
BindingDB_13601
 88 93 0 0 0
SMALL
NO_CHARGES


@<TRIPOS>ATOM
1    C        37.5281   50.0982   56.2094  C     
2    C        38.8541   49.7156   55.9352  C     
3    C        39.1022   48.6395   55.0554  C     
4    C        38.0496   47.8842   54.4561  C     
5    C        36.7261   48.3613   54.6969  C     
6    C        36.4623   49.4237   55.5869  C     
7    C        37.1749   45.6598   53.3552  C     
8    C        37.1583   44.6271   52.2774  C     
9    C        35.9996   44.3705   51.5099  C     
10   C        35.9120   43.2123   50.7101  C     
11   C        36.9658   42.2644   50.6786  C     
12   C        38.1532   42.5652   51.3910  C     
13   C        38.2405   43.7251   52.1847  C     
14   C        36.8077   41.0061   50.0250  C     
15   C        35.9704   40.8831   48.9013  C     
16   C        35.8120   39.6414   48.2713  C     
17   C        36.4471   38.4834   48.7625  C     
18   C        37.2890   38.5843   49.8980  C     
19   C        37.4483   39.8403   50.5290  C     
20   C        38.3441   46.7467   53.4675  C     
21   C        38.7414   47.4323   52.0824  C     
22   C        37.6707   48.0544   51.2344  C     
23   C        37.0284   47.3468   50.1993  C     
24   C        36.0568   47.9705   49.3903  C     
25   C        35.7001   49.3274   49.5840  C     
26   C        36.4088   50.0611   50.5644  C     
27   C        37.3762   49.4348   51.3673  C     
28   C        34.6096   49.9607   48.7706  C     
29   F        33.5010   49.1457   48.7404  F     
30   F        34.1581   51.1467   49.3175  F     
31   P        35.0715   50.2933   47.2003  P     
32   O        35.4756   49.1128   46.4816  O     
33   O        33.9213   50.9308   46.4013  O     
34   O        36.2368   51.2901   47.0932  O     
35   N        39.5048   45.9944   53.9866  N     
36   N        40.6021   45.7708   53.3503  N     
37   N        41.4841   45.1663   54.0304  N     
38   C        40.9629   44.9338   55.2377  C     
39   C        39.6703   45.4497   55.2155  C     
40   C        39.3447   44.6817   57.4951  C     
41   C        38.8496   45.3428   56.3559  C     
42   C        41.4896   44.3052   56.3760  C     
43   C        40.6659   44.1726   57.5183  C     
44   P        38.0733   37.2832   50.4576  P     
45   O        39.5068   37.3711   50.3690  O     
46   O        37.7453   37.0404   51.9459  O     
47   O        37.6558   36.0210   49.6753  O     
48   O        36.2963   37.3304   48.0274  O     
49   C        35.0298   36.6606   48.1476  C     
50   C        34.8648   35.5339   47.0902  C     
51   C        36.1837   35.0501   46.4048  C     
52   C        36.0824   33.5502   46.0122  C     
53   C        36.5523   35.8865   45.1464  C     
54   H        37.3439   50.8729   56.8440  H     
55   H        39.6328   50.2353   56.3528  H     
56   H        40.0810   48.4176   54.8532  H     
57   H        35.9288   47.9540   54.2107  H     
58   H        35.4938   49.7143   55.7627  H     
59   H        36.1828   46.1190   53.4218  H     
60   H        37.1584   45.0303   54.2616  H     
61   H        35.1932   44.9989   51.5554  H     
62   H        35.0268   43.0207   50.2220  H     
63   H        38.9348   41.9153   51.3812  H     
64   H        39.0929   43.8712   52.7388  H     
65   H        35.4961   41.7087   48.5164  H     
66   H        35.2183   39.5816   47.4389  H     
67   H        38.0333   39.9265   51.3713  H     
68   H        39.4376   48.2392   52.2967  H     
69   H        39.3082   46.7153   51.4842  H     
70   H        37.2567   46.3682   50.0283  H     
71   H        35.5877   47.4048   48.6732  H     
72   H        36.2240   51.0610   50.7069  H     
73   H        37.8711   50.0065   52.0558  H     
74   H        38.7496   44.5820   58.3194  H     
75   H        37.8948   45.7135   56.3443  H     
76   H        42.4464   43.9364   56.3817  H     
77   H        41.0278   43.7217   58.3636  H     
78   H        34.9315   36.2227   49.1448  H     
79   H        34.2071   37.3677   48.0108  H     
80   H        34.4082   34.6948   47.6215  H     
81   H        34.1407   35.8601   46.3381  H     
82   H        37.0015   35.1442   47.1292  H     
83   H        35.8930   32.9355   46.8913  H     
84   H        37.0115   33.2049   45.5638  H     
85   H        35.2690   33.3969   45.2981  H     
86   H        35.7570   35.8512   44.3981  H     
87   H        37.4630   35.4934   44.6954  H     
88   H        36.7358   36.9232   45.4084  H     
@<TRIPOS>BOND
     1    1    2 2
     2    1    6 1
     3    2    3 1
     4    3    4 2
     5    4    5 1
     6    4   20 1
     7    5    6 2
     8    7    8 1
     9    7   20 1
    10    8    9 1
    11    8   13 2
    12    9   10 2
    13   10   11 1
    14   11   12 2
    15   11   14 1
    16   12   13 1
    17   14   15 2
    18   14   19 1
    19   15   16 1
    20   16   17 2
    21   17   18 1
    22   17   48 1
    23   18   19 2
    24   18   44 1
    25   20   21 1
    26   20   35 1
    27   21   22 1
    28   22   23 1
    29   22   27 2
    30   23   24 2
    31   24   25 1
    32   25   26 2
    33   25   28 1
    34   26   27 1
    35   28   29 1
    36   28   30 1
    37   28   31 1
    38   31   32 2
    39   31   33 1
    40   31   34 1
    41   35   36 1
    42   35   39 1
    43   36   37 2
    44   37   38 1
    45   38   39 2
    46   38   42 1
    47   39   41 1
    48   40   41 2
    49   40   43 1
    50   42   43 2
    51   44   45 2
    52   44   46 1
    53   44   47 1
    54   48   49 1
    55   49   50 1
    56   50   51 1
    57   51   52 1
    58   51   53 1
    59    1   54 1
    60    2   55 1
    61    3   56 1
    62    5   57 1
    63    6   58 1
    64    7   59 1
    65    7   60 1
    66    9   61 1
    67   10   62 1
    68   12   63 1
    69   13   64 1
    70   15   65 1
    71   16   66 1
    72   19   67 1
    73   21   68 1
    74   21   69 1
    75   23   70 1
    76   24   71 1
    77   26   72 1
    78   27   73 1
    79   40   74 1
    80   41   75 1
    81   42   76 1
    82   43   77 1
    83   49   78 1
    84   49   79 1
    85   50   80 1
    86   50   81 1
    87   51   82 1
    88   52   83 1
    89   52   84 1
    90   52   85 1
    91   53   86 1
    92   53   87 1
    93   53   88 1
@<TRIPOS>PROPERTY_DATA
  Total_Score	| 14.5687
  Crash		| -2.1361
  Polar		| 7.6199
  FragIndex	| 1
  FragRMSD	| 0.634

