@<TRIPOS>MOLECULE
BindingDB_13598
 69 74 0 0 0
SMALL
NO_CHARGES


@<TRIPOS>ATOM
1    C        37.4017   50.2885   55.7451  C     
2    C        38.7388   49.9435   55.4883  C     
3    C        39.0358   48.8120   54.7114  C     
4    C        38.0161   47.9644   54.1894  C     
5    C        36.6750   48.3550   54.4600  C     
6    C        36.3673   49.4920   55.2275  C     
7    C        37.1518   45.7680   53.1411  C     
8    C        37.2210   44.5419   52.2894  C     
9    C        38.2173   43.5471   52.4137  C     
10   C        38.1881   42.3737   51.6460  C     
11   C        37.1454   42.1528   50.7103  C     
12   C        36.1892   43.1797   50.5201  C     
13   C        36.2326   44.3531   51.2893  C     
14   C        37.0287   40.9070   50.0215  C     
15   C        37.3338   39.6813   50.6791  C     
16   C        37.2570   38.4499   50.0039  C     
17   C        36.8808   38.4183   48.6464  C     
18   C        36.5725   39.6155   47.9736  C     
19   C        36.6430   40.8437   48.6581  C     
20   C        38.3669   46.7822   53.2902  C     
21   C        38.7965   47.4253   51.8990  C     
22   C        37.7354   48.0902   51.0928  C     
23   C        37.0546   47.3898   50.0676  C     
24   C        36.0344   48.0100   49.3240  C     
25   C        35.6700   49.3598   49.5565  C     
26   C        36.3970   50.0715   50.5444  C     
27   C        37.4061   49.4476   51.2985  C     
28   C        34.5807   50.0132   48.7627  C     
29   F        33.4570   49.2194   48.7391  F     
30   F        34.1607   51.2036   49.3173  F     
31   P        35.0504   50.3327   47.1981  P     
32   O        36.1453   51.2658   47.1265  O     
33   O        35.4904   49.0702   46.4367  O     
34   O        33.8953   50.9573   46.3942  O     
35   N        39.4729   46.0256   53.8994  N     
36   N        40.5456   45.6939   53.2715  N     
37   N        41.3409   44.9877   53.9448  N     
38   C        40.7955   44.8222   55.1481  C     
39   C        39.5886   45.5077   55.1483  C     
40   C        39.2343   44.8007   57.4518  C     
41   C        38.7979   45.5202   56.3173  C     
42   C        41.2636   44.1134   56.2656  C     
43   C        40.4618   44.1007   57.4284  C     
44   H        37.1823   51.1199   56.3016  H     
45   H        39.4977   50.5222   55.8621  H     
46   H        40.0200   48.6209   54.5180  H     
47   H        35.8883   47.8269   54.0810  H     
48   H        35.3918   49.7460   55.4046  H     
49   H        36.2599   46.3002   52.8239  H     
50   H        36.9187   45.4171   54.1522  H     
51   H        38.9708   43.6457   53.0808  H     
52   H        38.9063   41.6618   51.8097  H     
53   H        35.4418   43.0787   49.8233  H     
54   H        35.5091   45.0617   51.1393  H     
55   H        37.6419   39.6742   51.6575  H     
56   H        37.4807   37.5783   50.4951  H     
57   H        36.8347   37.5224   48.1508  H     
58   H        36.2970   39.5908   46.9893  H     
59   H        36.3983   41.6967   48.1507  H     
60   H        39.5883   48.1609   52.0810  H     
61   H        39.2680   46.6852   51.2508  H     
62   H        37.2857   46.4109   49.8716  H     
63   H        35.5471   47.4554   48.6088  H     
64   H        36.1922   51.0581   50.7309  H     
65   H        37.9003   49.9944   52.0099  H     
66   H        38.6631   44.7869   58.3027  H     
67   H        37.9159   46.0318   56.3587  H     
68   H        42.1645   43.6279   56.2404  H     
69   H        40.7742   43.5870   58.2565  H     
@<TRIPOS>BOND
     1    1    2 2
     2    1    6 1
     3    2    3 1
     4    3    4 2
     5    4    5 1
     6    4   20 1
     7    5    6 2
     8    7    8 1
     9    7   20 1
    10    8    9 1
    11    8   13 2
    12    9   10 2
    13   10   11 1
    14   11   12 2
    15   11   14 1
    16   12   13 1
    17   14   15 2
    18   14   19 1
    19   15   16 1
    20   16   17 2
    21   17   18 1
    22   18   19 2
    23   20   21 1
    24   20   35 1
    25   21   22 1
    26   22   23 1
    27   22   27 2
    28   23   24 2
    29   24   25 1
    30   25   26 2
    31   25   28 1
    32   26   27 1
    33   28   29 1
    34   28   30 1
    35   28   31 1
    36   31   32 2
    37   31   33 1
    38   31   34 1
    39   35   36 1
    40   35   39 1
    41   36   37 2
    42   37   38 1
    43   38   39 2
    44   38   42 1
    45   39   41 1
    46   40   41 2
    47   40   43 1
    48   42   43 2
    49    1   44 1
    50    2   45 1
    51    3   46 1
    52    5   47 1
    53    6   48 1
    54    7   49 1
    55    7   50 1
    56    9   51 1
    57   10   52 1
    58   12   53 1
    59   13   54 1
    60   15   55 1
    61   16   56 1
    62   17   57 1
    63   18   58 1
    64   19   59 1
    65   21   60 1
    66   21   61 1
    67   23   62 1
    68   24   63 1
    69   26   64 1
    70   27   65 1
    71   40   66 1
    72   41   67 1
    73   42   68 1
    74   43   69 1
@<TRIPOS>PROPERTY_DATA
  Total_Score	| 14.6383
  Crash		| -1.2754
  Polar		| 7.6953
  FragIndex	| 1
  FragRMSD	| 0.185

