@<TRIPOS>MOLECULE
BindingDB_13593
 46 49 0 0 0
SMALL
NO_CHARGES


@<TRIPOS>ATOM
1    C        38.8315   45.6242   56.4133  C     
2    C        39.2984   44.9180   57.5422  C     
3    C        40.4908   44.1592   57.4694  C     
4    C        41.2305   44.1059   56.2635  C     
5    C        39.5753   45.5841   55.2067  C     
6    C        40.7461   44.8281   55.1602  C     
7    N        41.2406   44.9405   53.9215  N     
8    N        40.4507   45.6799   53.2746  N     
9    N        39.4548   46.1192   53.9621  N     
10   C        38.3848   46.8905   53.3417  C     
11   C        38.0288   48.1529   54.0742  C     
12   C        36.6726   48.4747   54.3579  C     
13   C        36.3400   49.6774   55.0158  C     
14   C        37.3559   50.5696   55.4239  C     
15   C        38.7045   50.2559   55.1561  C     
16   C        39.0395   49.0587   54.4948  C     
17   C        38.6839   47.2195   51.8357  C     
18   C        37.5913   47.9116   51.0958  C     
19   C        36.8428   47.2310   50.1121  C     
20   C        35.8497   47.8932   49.3691  C     
21   C        35.5468   49.2586   49.5996  C     
22   C        36.2983   49.9376   50.5885  C     
23   C        37.2986   49.2776   51.3258  C     
24   C        34.4781   49.9567   48.8094  C     
25   F        33.3304   49.2099   48.7429  F     
26   F        34.0995   51.1316   49.4108  F     
27   P        34.9630   50.3101   47.2594  P     
28   O        33.9146   50.9271   46.4864  O     
29   O        36.1546   51.2733   47.1938  O     
30   O        35.4058   49.0669   46.4751  O     
31   H        37.9711   46.1650   56.4960  H     
32   H        38.7705   44.9561   58.4224  H     
33   H        40.8176   43.6420   58.2902  H     
34   H        42.0876   43.5474   56.1897  H     
35   H        37.5181   46.2182   53.3505  H     
36   H        35.9152   47.8455   54.0723  H     
37   H        35.3567   49.9114   55.1962  H     
38   H        37.1171   51.4488   55.8963  H     
39   H        39.4470   50.8999   55.4548  H     
40   H        40.0293   48.8484   54.3320  H     
41   H        39.6001   47.8092   51.7704  H     
42   H        38.8993   46.2901   51.3057  H     
43   H        37.0371   46.2467   49.9044  H     
44   H        35.3527   47.3685   48.6443  H     
45   H        36.1262   50.9287   50.7782  H     
46   H        37.8229   49.8100   52.0224  H     
@<TRIPOS>BOND
     1    1    2 2
     2    1    5 1
     3    2    3 1
     4    3    4 2
     5    4    6 1
     6    5    6 2
     7    5    9 1
     8    6    7 1
     9    7    8 2
    10    8    9 1
    11    9   10 1
    12   10   11 1
    13   10   17 1
    14   11   12 1
    15   11   16 2
    16   12   13 2
    17   13   14 1
    18   14   15 2
    19   15   16 1
    20   17   18 1
    21   18   19 2
    22   18   23 1
    23   19   20 1
    24   20   21 2
    25   21   22 1
    26   21   24 1
    27   22   23 2
    28   24   25 1
    29   24   26 1
    30   24   27 1
    31   27   28 2
    32   27   29 1
    33   27   30 1
    34    1   31 1
    35    2   32 1
    36    3   33 1
    37    4   34 1
    38   10   35 1
    39   12   36 1
    40   13   37 1
    41   14   38 1
    42   15   39 1
    43   16   40 1
    44   17   41 1
    45   17   42 1
    46   19   43 1
    47   20   44 1
    48   22   45 1
    49   23   46 1
@<TRIPOS>PROPERTY_DATA
  Total_Score	| 11.6716
  Crash		| -0.7938
  Polar		| 7.6794
  FragIndex	| 1
  FragRMSD	| 0.657

