@<TRIPOS>MOLECULE
BindingDB_13596
 65 69 0 0 0
SMALL
NO_CHARGES


@<TRIPOS>ATOM
1    C        38.6204   45.3110   56.3213  C     
2    C        39.0767   44.6170   57.4633  C     
3    C        40.3556   44.0136   57.4681  C     
4    C        41.1951   44.1197   56.3418  C     
5    C        39.4487   45.3809   55.1811  C     
6    C        40.7138   44.8085   55.2196  C     
7    N        41.2930   45.0555   54.0476  N     
8    N        40.4675   45.7115   53.3563  N     
9    N        39.3449   45.9238   53.9441  N     
10   C        37.9814   47.9026   54.1753  C     
11   C        39.0725   48.7289   54.5659  C     
12   C        38.8826   49.9086   55.3073  C     
13   C        37.5856   50.3136   55.6697  C     
14   C        36.4869   49.5268   55.2870  C     
15   C        36.6827   48.3378   54.5551  C     
16   C        38.6268   47.1473   51.8646  C     
17   C        37.5944   47.8891   51.0764  C     
18   C        37.3246   49.2572   51.3114  C     
19   C        36.3507   49.9470   50.5605  C     
20   C        35.6218   49.2947   49.5366  C     
21   C        35.9296   47.9369   49.2756  C     
22   C        36.8979   47.2488   50.0284  C     
23   C        34.5563   49.9970   48.7520  C     
24   F        33.4254   49.2150   48.6983  F     
25   F        34.1485   51.1737   49.3365  F     
26   P        35.0345   50.3597   47.1989  P     
27   O        36.1273   51.2971   47.1482  O     
28   O        35.4760   49.1143   46.4098  O     
29   O        33.8734   50.9833   46.4027  O     
30   C        38.2363   46.6600   53.3242  C     
31   C        36.9793   45.6982   53.2164  C     
32   C        36.9620   44.3968   52.4703  C     
33   C        35.7069   43.7887   52.2172  C     
34   C        35.6092   42.5518   51.5572  C     
35   C        38.0197   42.4380   51.4200  C     
36   C        38.1161   43.6875   52.0637  C     
37   C        36.7640   41.8504   51.1344  C     
38   P        36.1920   40.7494   48.8152  P     
39   O        34.8606   41.2938   48.7236  O     
40   O        37.1396   41.7252   48.0826  O     
41   O        36.1965   39.4121   48.0428  O     
42   C        36.6378   40.5454   50.4119  C     
43   F        37.8041   39.8149   50.4225  F     
44   F        35.7072   39.7501   51.0422  F     
45   F        37.4242   51.4168   56.3540  F     
46   F        35.2765   49.9020   55.5990  F     
47   H        37.7014   45.7548   56.3343  H     
48   H        38.4833   44.5465   58.2943  H     
49   H        40.6791   43.5053   58.2964  H     
50   H        42.1283   43.7042   56.3404  H     
51   H        40.0321   48.4845   54.3052  H     
52   H        39.6917   50.4764   55.5765  H     
53   H        35.8579   47.8092   54.2777  H     
54   H        38.9419   46.2710   51.2933  H     
55   H        39.5134   47.7850   51.9095  H     
56   H        37.8478   49.7735   52.0240  H     
57   H        36.1892   50.9371   50.7624  H     
58   H        35.4427   47.4317   48.5306  H     
59   H        37.0879   46.2676   49.8047  H     
60   H        36.6511   45.4488   54.2254  H     
61   H        36.1789   46.2940   52.7767  H     
62   H        34.8370   44.2489   52.5057  H     
63   H        34.6766   42.1571   51.3908  H     
64   H        38.8849   41.9625   51.1581  H     
65   H        39.0454   44.0633   52.2364  H     
@<TRIPOS>BOND
     1    1    2 2
     2    1    5 1
     3    2    3 1
     4    3    4 2
     5    4    6 1
     6    5    6 2
     7    5    9 1
     8    6    7 1
     9    7    8 2
    10    8    9 1
    11    9   30 1
    12   10   11 1
    13   10   15 2
    14   30   10 1
    15   11   12 2
    16   12   13 1
    17   13   14 2
    18   13   45 1
    19   14   15 1
    20   14   46 1
    21   16   17 1
    22   16   30 1
    23   17   18 2
    24   17   22 1
    25   18   19 1
    26   19   20 2
    27   20   21 1
    28   20   23 1
    29   21   22 2
    30   23   24 1
    31   23   25 1
    32   23   26 1
    33   26   27 2
    34   26   28 1
    35   26   29 1
    36   30   31 1
    37   31   32 1
    38   32   33 1
    39   32   36 2
    40   33   34 2
    41   34   37 1
    42   35   36 1
    43   35   37 2
    44   37   42 1
    45   38   39 2
    46   38   40 1
    47   38   41 1
    48   38   42 1
    49   42   43 1
    50   42   44 1
    51    1   47 1
    52    2   48 1
    53    3   49 1
    54    4   50 1
    55   11   51 1
    56   12   52 1
    57   15   53 1
    58   16   54 1
    59   16   55 1
    60   18   56 1
    61   19   57 1
    62   21   58 1
    63   22   59 1
    64   31   60 1
    65   31   61 1
    66   33   62 1
    67   34   63 1
    68   35   64 1
    69   36   65 1
@<TRIPOS>PROPERTY_DATA
  Total_Score	| 13.8307
  Crash		| -1.0801
  Polar		| 8.6907
  FragIndex	| 1
  FragRMSD	| 0.309

