@<TRIPOS>MOLECULE
BindingDB_13595
 65 69 0 0 0
SMALL
NO_CHARGES


@<TRIPOS>ATOM
1    C        38.6489   45.4189   56.2581  C     
2    C        39.0711   44.7053   57.4059  C     
3    C        40.3239   44.0466   57.4182  C     
4    C        41.1623   44.0911   56.2854  C     
5    C        39.4839   45.4478   55.1257  C     
6    C        40.7189   44.8087   55.1591  C     
7    N        41.3230   45.0379   53.9967  N     
8    N        40.5305   45.7610   53.3162  N     
9    N        39.4118   46.0081   53.8930  N     
10   C        38.0921   47.9905   54.1869  C     
11   C        39.2116   48.7598   54.6325  C     
12   C        39.0585   49.8771   55.4724  C     
13   C        37.7794   50.2576   55.9145  C     
14   C        36.6515   49.5306   55.4879  C     
15   C        36.8121   48.4184   54.6410  C     
16   C        38.7201   47.3752   51.8539  C     
17   C        37.6382   48.0541   51.0822  C     
18   C        37.2654   49.3880   51.3703  C     
19   C        36.2300   50.0139   50.6538  C     
20   C        35.5518   49.3452   49.6034  C     
21   C        35.9360   48.0102   49.3179  C     
22   C        36.9675   47.3770   50.0407  C     
23   C        34.4671   50.0088   48.8091  C     
24   F        33.3446   49.2083   48.7788  F     
25   F        34.0432   51.2065   49.3469  F     
26   P        34.9628   50.3223   47.2466  P     
27   O        33.9264   50.9180   46.4478  O     
28   O        36.1466   51.3024   47.1853  O     
29   O        35.4292   49.0604   46.4970  O     
30   C        38.3301   46.7826   53.2768  C     
31   C        37.0953   45.7941   53.1270  C     
32   C        37.1039   44.4492   52.4548  C     
33   C        38.2536   43.7424   52.0289  C     
34   C        38.1608   42.4996   51.3796  C     
35   C        35.7480   42.5851   51.5677  C     
36   C        35.8454   43.8360   52.2163  C     
37   C        36.9075   41.8900   51.1404  C     
38   P        36.3205   40.7952   48.8258  P     
39   O        37.1480   41.7749   48.1621  O     
40   O        36.4437   39.4771   48.0281  O     
41   O        34.8588   41.2897   48.7447  O     
42   C        36.8090   40.5814   50.4122  C     
43   F        38.0127   39.8969   50.3999  F     
44   F        35.9199   39.7280   51.0417  F     
45   H        37.7625   45.9173   56.2705  H     
46   H        38.4638   44.6609   58.2274  H     
47   H        40.6252   43.5448   58.2557  H     
48   H        42.0795   43.6415   56.2921  H     
49   H        40.1585   48.5043   54.3429  H     
50   H        39.8801   50.4096   55.7772  H     
51   H        37.6639   51.0639   56.5353  H     
52   H        35.7163   49.8120   55.8045  H     
53   H        35.9498   47.9476   54.3569  H     
54   H        39.1101   46.5806   51.2160  H     
55   H        39.5565   48.0750   51.9576  H     
56   H        37.7543   49.9175   52.0936  H     
57   H        35.9902   50.9752   50.8992  H     
58   H        35.4707   47.4850   48.5728  H     
59   H        37.2173   46.4130   49.7937  H     
60   H        36.7144   45.6042   54.1299  H     
61   H        36.3092   46.3386   52.6069  H     
62   H        39.1822   44.0980   52.1789  H     
63   H        39.0269   42.0384   51.0833  H     
64   H        34.8158   42.1926   51.4015  H     
65   H        34.9727   44.3107   52.4992  H     
@<TRIPOS>BOND
     1    1    2 2
     2    1    5 1
     3    2    3 1
     4    3    4 2
     5    4    6 1
     6    5    6 2
     7    5    9 1
     8    6    7 1
     9    7    8 2
    10    8    9 1
    11    9   30 1
    12   10   11 1
    13   10   15 2
    14   30   10 1
    15   11   12 2
    16   12   13 1
    17   13   14 2
    18   14   15 1
    19   16   17 1
    20   16   30 1
    21   17   18 2
    22   17   22 1
    23   18   19 1
    24   19   20 2
    25   20   21 1
    26   20   23 1
    27   21   22 2
    28   23   24 1
    29   23   25 1
    30   23   26 1
    31   26   27 2
    32   26   28 1
    33   26   29 1
    34   30   31 1
    35   31   32 1
    36   32   33 1
    37   32   36 2
    38   33   34 2
    39   34   37 1
    40   35   36 1
    41   35   37 2
    42   37   42 1
    43   38   39 2
    44   38   40 1
    45   38   41 1
    46   38   42 1
    47   42   43 1
    48   42   44 1
    49    1   45 1
    50    2   46 1
    51    3   47 1
    52    4   48 1
    53   11   49 1
    54   12   50 1
    55   13   51 1
    56   14   52 1
    57   15   53 1
    58   16   54 1
    59   16   55 1
    60   18   56 1
    61   19   57 1
    62   21   58 1
    63   22   59 1
    64   31   60 1
    65   31   61 1
    66   33   62 1
    67   34   63 1
    68   35   64 1
    69   36   65 1
@<TRIPOS>PROPERTY_DATA
  Total_Score	| 13.6367
  Crash		| -1.3180
  Polar		| 8.6425
  FragIndex	| 1
  FragRMSD	| 0.351

