@<TRIPOS>MOLECULE
BindingDB_13602
 80 86 0 0 0
SMALL
NO_CHARGES


@<TRIPOS>ATOM
1    C        38.1633   50.6100   55.4580  C     
2    C        39.3952   49.9532   55.3042  C     
3    C        39.4543   48.7136   54.6435  C     
4    C        38.2917   48.0561   54.1381  C     
5    C        37.0559   48.7480   54.3282  C     
6    C        36.9907   50.0031   54.9710  C     
7    C        37.1408   45.8689   53.2713  C     
8    C        37.0875   44.5791   52.4981  C     
9    C        35.8511   44.1980   51.9087  C     
10   C        35.6819   42.9559   51.2715  C     
11   C        36.7651   42.0567   51.1987  C     
12   C        38.0156   42.4167   51.7422  C     
13   C        38.1686   43.6650   52.3803  C     
14   C        36.5454   40.7532   50.7210  C     
15   C        36.5976   40.4591   49.3447  C     
16   C        35.9024   38.4061   51.1918  C     
17   C        36.1925   39.7260   51.6255  C     
18   C        38.4457   46.7700   53.3297  C     
19   C        38.8279   47.1943   51.8497  C     
20   C        37.7830   47.9045   51.0455  C     
21   C        37.0408   47.2227   50.0541  C     
22   C        36.0362   47.8818   49.3271  C     
23   C        35.7257   49.2480   49.5584  C     
24   C        36.5025   49.9327   50.5271  C     
25   C        37.5106   49.2757   51.2515  C     
26   C        34.6186   49.9232   48.7986  C     
27   F        33.5098   49.1122   48.7734  F     
28   F        34.1985   51.0869   49.3980  F     
29   P        35.0580   50.2937   47.2386  P     
30   O        36.1371   51.2475   47.1742  O     
31   O        35.5092   49.0706   46.4228  O     
32   O        33.8862   50.9186   46.4659  O     
33   N        39.4962   45.9585   53.9611  N     
34   N        40.6164   45.6823   53.4011  N     
35   N        41.3972   44.9978   54.1212  N     
36   C        40.7836   44.8024   55.2907  C     
37   C        39.5524   45.4467   55.2124  C     
38   C        39.1181   44.8180   57.5242  C     
39   C        38.7092   45.4772   56.3445  C     
40   C        41.2124   44.1375   56.4520  C     
41   C        40.3545   44.1360   57.5733  C     
42   P        35.4529   37.3135   52.2911  P     
43   O        35.7512   35.9530   51.9012  O     
44   O        36.1575   37.5183   53.6444  O     
45   O        33.9374   37.4413   52.5357  O     
46   C        36.3154   39.1537   48.8740  C     
47   C        35.9585   38.1290   49.7981  C     
48   C        36.3656   38.8539   47.4925  C     
49   C        36.0775   37.5519   47.0387  C     
50   C        35.7376   36.5567   47.9739  C     
51   N        35.6884   36.8875   49.2929  N     
52   C        35.4461   35.1754   47.5500  C     
53   H        38.1166   51.5218   55.9129  H     
54   H        40.2515   50.3793   55.6672  H     
55   H        40.3814   48.2986   54.5241  H     
56   H        36.1681   48.3766   53.9788  H     
57   H        36.0899   50.4908   55.0589  H     
58   H        36.3459   46.4941   52.8644  H     
59   H        36.8316   45.6269   54.2894  H     
60   H        35.0347   44.8058   51.9905  H     
61   H        34.7572   42.6939   50.9018  H     
62   H        38.8063   41.7531   51.7008  H     
63   H        39.0771   43.8661   52.7971  H     
64   H        36.8375   41.2050   48.6778  H     
65   H        36.1308   39.9641   52.6199  H     
66   H        39.7207   47.8244   51.8685  H     
67   H        39.1285   46.2959   51.3035  H     
68   H        37.2188   46.2309   49.8637  H     
69   H        35.5163   47.3489   48.6238  H     
70   H        36.3362   50.9247   50.7178  H     
71   H        38.0514   49.8112   51.9376  H     
72   H        38.5056   44.8187   58.3470  H     
73   H        37.8273   45.9962   56.3362  H     
74   H        42.1276   43.6872   56.4874  H     
75   H        40.6579   43.6848   58.4440  H     
76   H        36.6247   39.5748   46.8112  H     
77   H        36.1220   37.3398   46.0407  H     
78   H        34.5960   35.1628   46.8707  H     
79   H        35.2069   34.5385   48.4084  H     
80   H        36.3098   34.7468   47.0438  H     
@<TRIPOS>BOND
     1    1    2 2
     2    1    6 1
     3    2    3 1
     4    3    4 2
     5    4    5 1
     6    4   18 1
     7    5    6 2
     8    7    8 1
     9    7   18 1
    10    8    9 1
    11    8   13 2
    12    9   10 2
    13   10   11 1
    14   11   12 2
    15   11   14 1
    16   12   13 1
    17   14   15 2
    18   14   17 1
    19   15   46 1
    20   16   17 2
    21   16   42 1
    22   16   47 1
    23   18   19 1
    24   18   33 1
    25   19   20 1
    26   20   21 1
    27   20   25 2
    28   21   22 2
    29   22   23 1
    30   23   24 2
    31   23   26 1
    32   24   25 1
    33   26   27 1
    34   26   28 1
    35   26   29 1
    36   29   30 2
    37   29   31 1
    38   29   32 1
    39   33   34 1
    40   33   37 1
    41   34   35 2
    42   35   36 1
    43   36   37 2
    44   36   40 1
    45   37   39 1
    46   38   39 2
    47   38   41 1
    48   40   41 2
    49   42   43 2
    50   42   44 1
    51   42   45 1
    52   46   47 2
    53   46   48 1
    54   47   51 1
    55   48   49 2
    56   49   50 1
    57   50   51 2
    58   50   52 1
    59    1   53 1
    60    2   54 1
    61    3   55 1
    62    5   56 1
    63    6   57 1
    64    7   58 1
    65    7   59 1
    66    9   60 1
    67   10   61 1
    68   12   62 1
    69   13   63 1
    70   15   64 1
    71   17   65 1
    72   19   66 1
    73   19   67 1
    74   21   68 1
    75   22   69 1
    76   24   70 1
    77   25   71 1
    78   38   72 1
    79   39   73 1
    80   40   74 1
    81   41   75 1
    82   48   76 1
    83   49   77 1
    84   52   78 1
    85   52   79 1
    86   52   80 1
@<TRIPOS>PROPERTY_DATA
  Total_Score	| 14.7689
  Crash		| -1.4475
  Polar		| 9.0752
  FragIndex	| 1
  FragRMSD	| 0.391

