@<TRIPOS>MOLECULE
BindingDB_50142328
 71 75 0 0 0
SMALL
NO_CHARGES


@<TRIPOS>ATOM
1    N        39.4096   45.9854   53.9819  N     
2    N        40.4853   45.6670   53.3499  N     
3    C        38.2945   46.7183   53.3671  C     
4    P        35.5092   40.1958   49.9607  P     
5    P        35.0492   50.3570   47.1891  P     
6    C        34.5837   49.9917   48.7511  C     
7    C        36.9719   40.9868   49.8935  C     
8    N        41.3314   45.0231   54.0403  N     
9    C        39.5721   45.5305   55.2500  C     
10   C        40.8177   44.9025   55.2621  C     
11   C        37.5592   51.6424   56.4248  C     
12   C        38.0761   47.9566   54.2289  C     
13   C        35.6419   49.2847   49.5440  C     
14   C        37.0337   42.2166   50.7413  C     
15   C        38.6569   47.1617   51.8798  C     
16   C        37.0356   45.7567   53.2935  C     
17   O        34.4051   41.0495   49.5969  O     
18   O        36.1401   51.2913   47.1220  O     
19   C        37.7361   50.4112   55.7352  C     
20   F        37.2518   41.3187   48.5918  F     
21   F        33.4637   49.1987   48.6864  F     
22   F        37.9155   40.0540   50.2451  F     
23   F        34.1711   51.1754   49.3228  F     
24   O        36.4036   51.9058   57.0900  O     
25   O        35.5058   38.9955   48.9928  O     
26   O        35.4796   49.1245   46.3774  O     
27   O        33.8912   50.9855   46.4031  O     
28   O        35.2714   39.6460   51.3752  O     
29   C        39.1856   48.7561   54.6301  C     
30   C        36.7971   48.3941   54.6916  C     
31   C        36.6302   49.5786   55.4276  C     
32   C        39.0208   49.9770   55.3147  C     
33   C        36.3361   49.9230   50.5988  C     
34   C        36.1465   43.2934   50.5030  C     
35   C        35.9687   47.9327   49.2714  C     
36   C        37.9324   42.3341   51.8335  C     
37   C        37.0617   44.5546   52.4037  C     
38   C        37.6190   47.8923   51.0821  C     
39   O        38.5281   52.6050   56.3854  O     
40   C        36.1402   44.4225   51.3370  C     
41   C        36.9621   47.2624   50.0008  C     
42   C        37.3079   49.2433   51.3501  C     
43   C        37.9409   43.4749   52.6535  C     
44   C        38.8013   45.5509   56.4294  C     
45   C        41.3429   44.2666   56.4076  C     
46   C        38.4748   53.9068   56.9705  C     
47   C        39.3015   44.9211   57.5938  C     
48   C        40.5669   44.2813   57.5839  C     
49   H        39.5544   47.7821   51.8659  H     
50   H        38.9505   46.2598   51.3430  H     
51   H        36.7798   45.3965   54.2919  H     
52   H        36.1867   46.3771   52.9951  H     
53   H        40.1328   48.4705   54.3803  H     
54   H        35.9520   47.8597   54.4962  H     
55   H        35.6814   49.8429   55.7192  H     
56   H        39.8445   50.5457   55.5301  H     
57   H        36.1421   50.8972   50.8357  H     
58   H        35.4750   43.2524   49.7325  H     
59   H        35.4910   47.4177   48.5315  H     
60   H        38.5915   41.5873   52.0524  H     
61   H        35.4659   45.1670   51.1469  H     
62   H        37.2040   46.3022   49.7351  H     
63   H        37.8129   49.7676   52.0672  H     
64   H        38.5865   43.5043   53.4377  H     
65   H        37.8918   46.0160   56.4512  H     
66   H        42.2556   43.8026   56.3814  H     
67   H        37.6535   54.4843   56.5387  H     
68   H        39.4125   54.4331   56.7722  H     
69   H        38.3339   53.8331   58.0503  H     
70   H        38.7453   44.9262   58.4515  H     
71   H        40.9104   43.8174   58.4322  H     
@<TRIPOS>BOND
     1    1    2 1
     2    1    3 1
     3    1    9 1
     4    2    8 2
     5    3   12 1
     6    3   15 1
     7    3   16 1
     8    4    7 1
     9    4   17 2
    10    4   25 1
    11    4   28 1
    12    5    6 1
    13    5   18 2
    14    5   26 1
    15    5   27 1
    16    6   13 1
    17    6   21 1
    18    6   23 1
    19    7   14 1
    20    7   20 1
    21    7   22 1
    22    8   10 1
    23    9   10 2
    24    9   44 1
    25   10   45 1
    26   11   19 1
    27   11   24 2
    28   11   39 1
    29   12   29 2
    30   12   30 1
    31   13   33 2
    32   13   35 1
    33   14   34 1
    34   14   36 2
    35   15   38 1
    36   16   37 1
    37   19   31 1
    38   19   32 2
    39   29   32 1
    40   30   31 2
    41   33   42 1
    42   34   40 2
    43   35   41 2
    44   36   43 1
    45   37   40 1
    46   37   43 2
    47   38   41 1
    48   38   42 2
    49   39   46 1
    50   44   47 2
    51   45   48 2
    52   47   48 1
    53   15   49 1
    54   15   50 1
    55   16   51 1
    56   16   52 1
    57   29   53 1
    58   30   54 1
    59   31   55 1
    60   32   56 1
    61   33   57 1
    62   34   58 1
    63   35   59 1
    64   36   60 1
    65   40   61 1
    66   41   62 1
    67   42   63 1
    68   43   64 1
    69   44   65 1
    70   45   66 1
    71   46   67 1
    72   46   68 1
    73   46   69 1
    74   47   70 1
    75   48   71 1
@<TRIPOS>PROPERTY_DATA
  Total_Score	| 13.6330
  Crash		| -1.4038
  Polar		| 9.2708
  FragIndex	| 1
  FragRMSD	| 0.115

