@<TRIPOS>MOLECULE
BindingDB_5534
 45 48 0 0 0
SMALL
NO_CHARGES


@<TRIPOS>ATOM
1    C         7.4768   45.4201   51.5171  C     
2    C         8.1440   43.7850   49.8886  C     
3    N         9.4532   44.1578   50.0142  N     
4    N         7.1945   44.4238   50.6340  N     
5    C         8.8275   45.7788   51.6656  C     
6    C         9.7937   45.1441   50.8870  C     
7    C        10.7363   46.6485   52.1416  C     
8    N         9.4266   46.6998   52.4391  N     
9    N        10.9665   45.7116   51.2025  N     
10   O         6.5309   46.0430   52.2901  O     
11   N         7.8269   42.8001   49.0171  N     
12   C         5.2294   46.2990   51.7138  C     
13   C         4.1774   45.1836   52.0031  C     
14   C         2.3082   46.0422   54.2362  C     
15   C         3.7529   45.5597   54.5337  C     
16   C         4.2598   44.5820   53.4402  C     
17   C         2.7220   45.6703   51.7188  C     
18   C         2.1641   46.6319   52.8080  C     
19   C         6.6083   42.2219   48.7998  C     
20   C         5.0784   41.1191   47.2350  C     
21   C         4.0833   41.0735   48.2282  C     
22   C         4.3550   41.5655   49.5187  C     
23   C         5.6196   42.1174   49.8057  C     
24   C         6.3328   41.6851   47.5254  C     
25   Cl        3.1493   41.5063   50.7068  Cl    
26   Cl        4.7734   40.5002   45.6841  Cl    
27   H        11.4424   47.2578   52.5480  H     
28   H        11.8334   45.5053   50.8172  H     
29   H         8.5401   42.5073   48.4246  H     
30   H         4.8911   47.2277   52.1674  H     
31   H         5.2855   46.4811   50.6346  H     
32   H         4.3935   44.3688   51.3056  H     
33   H         1.6163   45.2017   54.3465  H     
34   H         2.0281   46.8032   54.9692  H     
35   H         4.4246   46.4201   54.5899  H     
36   H         3.7698   45.0557   55.5054  H     
37   H         3.6493   43.6751   53.4795  H     
38   H         5.2850   44.2794   53.6659  H     
39   H         2.6809   46.1716   50.7470  H     
40   H         2.0647   44.7959   51.6647  H     
41   H         1.1082   46.8201   52.6076  H     
42   H         2.6786   47.5943   52.7593  H     
43   H         3.1695   40.6648   48.0159  H     
44   H         5.8200   42.4284   50.7565  H     
45   H         7.0408   41.7292   46.7928  H     
@<TRIPOS>BOND
     1    1    4 1
     2    1    5 2
     3    1   10 1
     4    2    3 1
     5    2    4 2
     6    2   11 1
     7    3    6 2
     8    5    6 1
     9    5    8 1
    10    6    9 1
    11    7    8 2
    12    7    9 1
    13   10   12 1
    14   11   19 1
    15   12   13 1
    16   13   16 1
    17   13   17 1
    18   14   15 1
    19   14   18 1
    20   15   16 1
    21   17   18 1
    22   19   23 1
    23   19   24 2
    24   20   21 2
    25   20   24 1
    26   20   26 1
    27   21   22 1
    28   22   23 2
    29   22   25 1
    30    7   27 1
    31    9   28 1
    32   11   29 1
    33   12   30 1
    34   12   31 1
    35   13   32 1
    36   14   33 1
    37   14   34 1
    38   15   35 1
    39   15   36 1
    40   16   37 1
    41   16   38 1
    42   17   39 1
    43   17   40 1
    44   18   41 1
    45   18   42 1
    46   21   43 1
    47   23   44 1
    48   24   45 1
@<TRIPOS>PROPERTY_DATA
  Total_Score	| 8.5147
  Crash		| -0.6687
  Polar		| 2.8857
  FragIndex	| 1
  FragRMSD	| 0.518

