@<TRIPOS>MOLECULE
BindingDB_5530
 45 48 0 0 0
SMALL
NO_CHARGES


@<TRIPOS>ATOM
1    C         7.4298   45.4782   51.4234  C     
2    C         8.0695   43.7741   49.8520  C     
3    N         9.3809   44.1415   49.9494  N     
4    N         7.1309   44.4474   50.5803  N     
5    C         8.7873   45.8256   51.5425  C     
6    C         9.7416   45.1461   50.7852  C     
7    C        10.7279   46.6313   52.0221  C     
8    N         9.4176   46.7379   52.3074  N     
9    N        10.9335   45.6783   51.0995  N     
10   O         6.4930   46.1341   52.1854  O     
11   N         7.7413   42.7575   49.0163  N     
12   C         5.1540   46.3124   51.6718  C     
13   C         4.1705   45.1659   52.0602  C     
14   C         2.3656   46.0195   54.3464  C     
15   C         3.8518   45.6453   54.5888  C     
16   C         4.3534   44.6423   53.5179  C     
17   C         2.6804   45.5758   51.8239  C     
18   C         2.1248   46.5461   52.9064  C     
19   C         6.5163   42.1766   48.8516  C     
20   C         4.3617   41.3374   49.6812  C     
21   C         3.9773   41.0218   48.3650  C     
22   C         4.8722   41.2286   47.3025  C     
23   C         6.1396   41.7852   47.5485  C     
24   C         5.6264   41.9130   49.9250  C     
25   H        11.4635   47.2015   52.4383  H     
26   H        11.8004   45.4282   50.7384  H     
27   H         8.4408   42.4564   48.4132  H     
28   H         4.7832   47.2422   52.0905  H     
29   H         5.1559   46.4445   50.5855  H     
30   H         4.3968   44.3283   51.3918  H     
31   H         1.7370   45.1415   54.5112  H     
32   H         2.0666   46.7842   55.0669  H     
33   H         4.4703   46.5487   54.5670  H     
34   H         3.9543   45.1976   55.5808  H     
35   H         3.7963   43.7087   53.6318  H     
36   H         5.4034   44.4026   53.6993  H     
37   H         2.5752   46.0454   50.8413  H     
38   H         2.0647   44.6699   51.8188  H     
39   H         1.0535   46.6816   52.7481  H     
40   H         2.5910   47.5310   52.8060  H     
41   H         3.7307   41.1374   50.4638  H     
42   H         3.0529   40.6211   48.1827  H     
43   H         4.6070   40.9692   46.3526  H     
44   H         6.7684   41.9493   46.7621  H     
45   H         5.8911   42.1320   50.8876  H     
@<TRIPOS>BOND
     1    1    4 1
     2    1    5 2
     3    1   10 1
     4    2    3 1
     5    2    4 2
     6    2   11 1
     7    3    6 2
     8    5    6 1
     9    5    8 1
    10    6    9 1
    11    7    8 2
    12    7    9 1
    13   10   12 1
    14   11   19 1
    15   12   13 1
    16   13   16 1
    17   13   17 1
    18   14   15 1
    19   14   18 1
    20   15   16 1
    21   17   18 1
    22   19   23 1
    23   19   24 2
    24   20   21 2
    25   20   24 1
    26   21   22 1
    27   22   23 2
    28    7   25 1
    29    9   26 1
    30   11   27 1
    31   12   28 1
    32   12   29 1
    33   13   30 1
    34   14   31 1
    35   14   32 1
    36   15   33 1
    37   15   34 1
    38   16   35 1
    39   16   36 1
    40   17   37 1
    41   17   38 1
    42   18   39 1
    43   18   40 1
    44   20   41 1
    45   21   42 1
    46   22   43 1
    47   23   44 1
    48   24   45 1
@<TRIPOS>PROPERTY_DATA
  Total_Score	| 8.6780
  Crash		| -0.5567
  Polar		| 2.8642
  FragIndex	| 1
  FragRMSD	| 0.529

