@<TRIPOS>MOLECULE
BindingDB_5533
 45 48 0 0 0
SMALL
NO_CHARGES


@<TRIPOS>ATOM
1    C         7.4882   45.5314   51.3605  C     
2    C         8.1481   43.7968   49.8409  C     
3    N         9.4591   44.1533   49.9700  N     
4    N         7.1942   44.4851   50.5338  N     
5    C         8.8463   45.8672   51.5216  C     
6    C         9.8033   45.1603   50.8028  C     
7    C        10.7886   46.6182   52.0632  C     
8    N         9.4692   46.7646   52.2995  N     
9    N        10.9989   45.6520   51.1527  N     
10   O         6.5459   46.2061   52.0927  O     
11   N         7.8543   42.7697   49.0167  N     
12   C         5.2158   46.3657   51.5543  C     
13   C         4.2305   45.2198   51.9454  C     
14   C         2.4686   46.0857   54.2574  C     
15   C         3.9517   45.6903   54.4716  C     
16   C         4.4288   44.6813   53.3969  C     
17   C         2.7357   45.6253   51.7332  C     
18   C         2.1879   46.5949   52.8187  C     
19   C         6.6342   42.2081   48.7916  C     
20   C         5.0658   41.2312   47.1864  C     
21   C         4.0888   41.1209   48.1916  C     
22   C         4.3966   41.5159   49.5088  C     
23   C         5.6681   42.0468   49.8110  C     
24   C         6.3340   41.7528   47.4889  C     
25   Br        3.1198   41.3685   50.8540  Br    
26   H        11.5252   47.1531   52.5302  H     
27   H        11.8630   45.3492   50.8248  H     
28   H         8.5822   42.4433   48.4676  H     
29   H         4.8502   47.3000   51.9721  H     
30   H         5.2325   46.4894   50.4678  H     
31   H         4.4353   44.3852   51.2676  H     
32   H         1.8328   45.2200   54.4631  H     
33   H         2.2011   46.8688   54.9699  H     
34   H         4.5798   46.5830   54.4331  H     
35   H         4.0674   45.2465   55.4638  H     
36   H         3.8557   43.7539   53.5142  H     
37   H         5.4808   44.4336   53.5651  H     
38   H         2.6132   46.0843   50.7487  H     
39   H         2.1205   44.7212   51.7448  H     
40   H         1.1090   46.7085   52.6863  H     
41   H         2.6350   47.5823   52.6854  H     
42   H         4.8558   40.9367   46.2277  H     
43   H         3.1624   40.7520   47.9618  H     
44   H         5.8905   42.3111   50.7747  H     
45   H         7.0346   41.8374   46.7432  H     
@<TRIPOS>BOND
     1    1    4 1
     2    1    5 2
     3    1   10 1
     4    2    3 1
     5    2    4 2
     6    2   11 1
     7    3    6 2
     8    5    6 1
     9    5    8 1
    10    6    9 1
    11    7    8 2
    12    7    9 1
    13   10   12 1
    14   11   19 1
    15   12   13 1
    16   13   16 1
    17   13   17 1
    18   14   15 1
    19   14   18 1
    20   15   16 1
    21   17   18 1
    22   19   23 1
    23   19   24 2
    24   20   21 2
    25   20   24 1
    26   21   22 1
    27   22   23 2
    28   22   25 1
    29    7   26 1
    30    9   27 1
    31   11   28 1
    32   12   29 1
    33   12   30 1
    34   13   31 1
    35   14   32 1
    36   14   33 1
    37   15   34 1
    38   15   35 1
    39   16   36 1
    40   16   37 1
    41   17   38 1
    42   17   39 1
    43   18   40 1
    44   18   41 1
    45   20   42 1
    46   21   43 1
    47   23   44 1
    48   24   45 1
@<TRIPOS>PROPERTY_DATA
  Total_Score	| 9.0890
  Crash		| -0.9576
  Polar		| 2.8660
  FragIndex	| 1
  FragRMSD	| 0.555

