@<TRIPOS>MOLECULE
BindingDB_5538
 49 52 0 0 0
SMALL
NO_CHARGES


@<TRIPOS>ATOM
1    C         7.5036   45.3576   51.5789  C     
2    C         8.1019   43.8018   49.8518  C     
3    N         9.4127   44.1818   49.9402  N     
4    N         7.1763   44.3969   50.6688  N     
5    C         8.8524   45.7311   51.6739  C     
6    C         9.7831   45.1204   50.8391  C     
7    C        10.7947   46.5168   52.1428  C     
8    N         9.4894   46.5896   52.4798  N     
9    N        10.9780   45.6337   51.1489  N     
10   O         6.6334   45.9237   52.4659  O     
11   N         7.8199   42.8395   48.9432  N     
12   C         5.3273   46.3306   52.0242  C     
13   C         4.2382   45.2253   52.1855  C     
14   C         2.2838   45.9502   54.4031  C     
15   C         3.7103   45.4241   54.7130  C     
16   C         4.2411   44.5141   53.5766  C     
17   C         2.7990   45.7544   51.8823  C     
18   C         2.2187   46.6512   53.0156  C     
19   C         6.6437   42.1925   48.6857  C     
20   C         5.2818   41.0155   47.0249  C     
21   C         4.3110   40.7396   47.9995  C     
22   C         4.5106   41.1542   49.3308  C     
23   C         5.6795   41.8693   49.6743  C     
24   C         6.4457   41.7271   47.3671  C     
25   C         2.4661   42.2470   50.6284  C     
26   S         3.3777   40.6898   50.5660  S     
27   H        11.5425   47.0456   52.5920  H     
28   H        11.8240   45.3806   50.7505  H     
29   H         8.5642   42.5732   48.3737  H     
30   H         5.0690   47.1824   52.6570  H     
31   H         5.3455   46.7048   50.9970  H     
32   H         4.4789   44.4627   51.4312  H     
33   H         1.5712   45.1125   54.4227  H     
34   H         1.9949   46.6617   55.1833  H     
35   H         4.3888   46.2694   54.8498  H     
36   H         3.6926   44.8583   55.6556  H     
37   H         3.6087   43.6188   53.5285  H     
38   H         5.2480   44.1784   53.8347  H     
39   H         2.8049   46.3191   50.9404  H     
40   H         2.1202   44.9079   51.7460  H     
41   H         1.1758   46.8910   52.7843  H     
42   H         2.7691   47.5952   53.0591  H     
43   H         5.1455   40.6872   46.0671  H     
44   H         3.4788   40.2002   47.7452  H     
45   H         5.8408   42.1136   50.6558  H     
46   H         7.1446   41.9042   46.6398  H     
47   H         3.1223   43.0494   50.9663  H     
48   H         1.6423   42.1462   51.3344  H     
49   H         2.0681   42.4963   49.6482  H     
@<TRIPOS>BOND
     1    1    4 1
     2    1    5 2
     3    1   10 1
     4    2    3 1
     5    2    4 2
     6    2   11 1
     7    3    6 2
     8    5    6 1
     9    5    8 1
    10    6    9 1
    11    7    8 2
    12    7    9 1
    13   10   12 1
    14   11   19 1
    15   12   13 1
    16   13   16 1
    17   13   17 1
    18   14   15 1
    19   14   18 1
    20   15   16 1
    21   17   18 1
    22   19   23 1
    23   19   24 2
    24   20   21 2
    25   20   24 1
    26   21   22 1
    27   22   23 2
    28   22   26 1
    29   25   26 1
    30    7   27 1
    31    9   28 1
    32   11   29 1
    33   12   30 1
    34   12   31 1
    35   13   32 1
    36   14   33 1
    37   14   34 1
    38   15   35 1
    39   15   36 1
    40   16   37 1
    41   16   38 1
    42   17   39 1
    43   17   40 1
    44   18   41 1
    45   18   42 1
    46   20   43 1
    47   21   44 1
    48   23   45 1
    49   24   46 1
    50   25   47 1
    51   25   48 1
    52   25   49 1
@<TRIPOS>PROPERTY_DATA
  Total_Score	| 8.9680
  Crash		| -0.9804
  Polar		| 2.8152
  FragIndex	| 1
  FragRMSD	| 0.479

