@<TRIPOS>MOLECULE
BindingDB_5536
 49 52 0 0 0
SMALL
NO_CHARGES


@<TRIPOS>ATOM
1    C         7.5878   45.4908   51.5430  C     
2    C         8.1330   43.8922   49.8492  C     
3    N         9.4618   44.1740   49.9638  N     
4    N         7.2019   44.5450   50.6195  N     
5    C         8.9593   45.7569   51.6896  C     
6    C         9.8715   45.0919   50.8742  C     
7    C        10.9477   46.4066   52.2127  C     
8    N         9.6448   46.5591   52.5108  N     
9    N        11.0889   45.5234   51.2115  N     
10   O         6.7316   46.0984   52.4142  O     
11   N         7.8119   42.8882   48.9970  N     
12   C         5.3240   46.0617   52.1235  C     
13   C         4.5680   46.8614   53.2250  C     
14   C         1.9686   45.5790   54.1210  C     
15   C         2.0676   46.3022   52.7480  C     
16   C         3.1725   47.3891   52.7533  C     
17   C         4.4334   46.0972   54.5861  C     
18   C         3.3359   45.0041   54.5711  C     
19   C         6.5973   42.2965   48.7809  C     
20   C         5.2032   40.9793   47.2567  C     
21   C         4.1375   41.0258   48.1722  C     
22   C         4.2877   41.6899   49.4110  C     
23   C         5.5434   42.2756   49.7256  C     
24   C         6.4176   41.6150   47.5573  C     
25   C         3.1462   41.7529   50.3599  C     
26   O         1.9249   42.0734   49.6786  O     
27   H        11.7113   46.8837   52.6795  H     
28   H        11.9330   45.2427   50.8213  H     
29   H         8.5420   42.5278   48.4715  H     
30   H         5.1387   46.5311   51.1515  H     
31   H         4.9537   45.0274   52.0818  H     
32   H         5.1757   47.7419   53.4264  H     
33   H         1.6126   46.2971   54.8741  H     
34   H         1.2329   44.7712   54.0565  H     
35   H         2.2728   45.5649   51.9663  H     
36   H         1.1067   46.7676   52.5231  H     
37   H         2.8618   48.1871   53.4270  H     
38   H         3.2547   47.8224   51.7550  H     
39   H         5.3856   45.6400   54.8615  H     
40   H         4.1875   46.8174   55.3704  H     
41   H         3.2308   44.5767   55.5739  H     
42   H         3.6294   44.1917   53.8946  H     
43   H         5.0750   40.4945   46.3589  H     
44   H         3.2420   40.5952   47.9197  H     
45   H         5.7209   42.6857   50.6542  H     
46   H         7.1643   41.5817   46.8535  H     
47   H         3.0329   40.7731   50.8484  H     
48   H         3.3201   42.5070   51.1460  H     
49   H         1.8069   43.0442   49.7892  H     
@<TRIPOS>BOND
     1    1    4 1
     2    1    5 2
     3    1   10 1
     4    2    3 1
     5    2    4 2
     6    2   11 1
     7    3    6 2
     8    5    6 1
     9    5    8 1
    10    6    9 1
    11    7    8 2
    12    7    9 1
    13   10   12 1
    14   11   19 1
    15   12   13 1
    16   13   16 1
    17   13   17 1
    18   14   15 1
    19   14   18 1
    20   15   16 1
    21   17   18 1
    22   19   23 1
    23   19   24 2
    24   20   21 2
    25   20   24 1
    26   21   22 1
    27   22   23 2
    28   22   25 1
    29   25   26 1
    30    7   27 1
    31    9   28 1
    32   11   29 1
    33   12   30 1
    34   12   31 1
    35   13   32 1
    36   14   33 1
    37   14   34 1
    38   15   35 1
    39   15   36 1
    40   16   37 1
    41   16   38 1
    42   17   39 1
    43   17   40 1
    44   18   41 1
    45   18   42 1
    46   20   43 1
    47   21   44 1
    48   23   45 1
    49   24   46 1
    50   25   47 1
    51   25   48 1
    52   26   49 1
@<TRIPOS>PROPERTY_DATA
  Total_Score	| 10.0647
  Crash		| -0.6888
  Polar		| 4.1868
  FragIndex	| 1
  FragRMSD	| 0.474

