@<TRIPOS>MOLECULE
BindingDB_5541
 46 49 0 0 0
SMALL
NO_CHARGES


@<TRIPOS>ATOM
1    C         7.5767   45.5515   51.4994  C     
2    C         8.1918   43.8594   49.9220  C     
3    N         9.5048   44.2186   50.0005  N     
4    N         7.2630   44.5366   50.6573  N     
5    C         8.9317   45.9113   51.6107  C     
6    C         9.8692   45.2243   50.8301  C     
7    C        10.8804   46.6436   52.1236  C     
8    N         9.5721   46.7728   52.4084  N     
9    N        11.0665   45.7148   51.1650  N     
10   O         6.6779   46.1882   52.3129  O     
11   N         7.8674   42.8216   49.1116  N     
12   C         5.2507   46.0978   52.0375  C     
13   C         4.5269   46.8745   53.1810  C     
14   C         1.9713   45.6109   54.2520  C     
15   C         1.9936   46.3253   52.8743  C     
16   C         3.1068   47.4052   52.8213  C     
17   C         4.5030   46.0441   54.5111  C     
18   C         3.3519   44.9945   54.5931  C     
19   C         6.6340   42.2554   48.9067  C     
20   C         5.1663   41.0959   47.3361  C     
21   C         4.1870   40.9470   48.3328  C     
22   C         4.4466   41.3996   49.6379  C     
23   C         5.6796   42.0280   49.9270  C     
24   C         6.3913   41.7071   47.6324  C     
25   O         2.9930   40.3737   48.0371  O     
26   H        11.6219   47.1421   52.6076  H     
27   H        11.9268   45.4465   50.8031  H     
28   H         8.6134   42.4617   48.5737  H     
29   H         5.0490   46.5500   51.0517  H     
30   H         4.8867   45.0524   52.0184  H     
31   H         5.1154   47.7688   53.3825  H     
32   H         1.6891   46.3292   55.0321  H     
33   H         1.2135   44.8189   54.2358  H     
34   H         2.1472   45.5930   52.0801  H     
35   H         1.0180   46.7989   52.7077  H     
36   H         2.8357   48.1926   53.5417  H     
37   H         3.1061   47.8602   51.8287  H     
38   H         5.4579   45.5175   54.6491  H     
39   H         4.3906   46.7400   55.3591  H     
40   H         3.3132   44.5886   55.6091  H     
41   H         3.5557   44.1642   53.9161  H     
42   H         4.9715   40.7475   46.4004  H     
43   H         3.7576   41.2718   50.3952  H     
44   H         5.8294   42.3475   50.8916  H     
45   H         7.0664   41.8285   46.8907  H     
46   H         2.8046   39.7474   48.7904  H     
@<TRIPOS>BOND
     1    1    4 1
     2    1    5 2
     3    1   10 1
     4    2    3 1
     5    2    4 2
     6    2   11 1
     7    3    6 2
     8    5    6 1
     9    5    8 1
    10    6    9 1
    11    7    8 2
    12    7    9 1
    13   10   12 1
    14   11   19 1
    15   12   13 1
    16   13   16 1
    17   13   17 1
    18   14   15 1
    19   14   18 1
    20   15   16 1
    21   17   18 1
    22   19   23 1
    23   19   24 2
    24   20   21 2
    25   20   24 1
    26   21   22 1
    27   21   25 1
    28   22   23 2
    29    7   26 1
    30    9   27 1
    31   11   28 1
    32   12   29 1
    33   12   30 1
    34   13   31 1
    35   14   32 1
    36   14   33 1
    37   15   34 1
    38   15   35 1
    39   16   36 1
    40   16   37 1
    41   17   38 1
    42   17   39 1
    43   18   40 1
    44   18   41 1
    45   20   42 1
    46   22   43 1
    47   23   44 1
    48   24   45 1
    49   25   46 1
@<TRIPOS>PROPERTY_DATA
  Total_Score	| 8.4985
  Crash		| -0.5891
  Polar		| 2.9419
  FragIndex	| 1
  FragRMSD	| 0.443

