@<TRIPOS>MOLECULE
BindingDB_50189681
 60 64 0 0 0
SMALL
NO_CHARGES


@<TRIPOS>ATOM
1    C        15.9378   17.3980   78.7516  C     
2    C        17.2156   17.3214   78.1528  C     
3    C        18.3649   17.1102   78.9431  C     
4    C        18.2665   16.9852   80.3580  C     
5    C        16.9777   17.0249   80.9341  C     
6    C        15.8365   17.2329   80.1490  C     
7    C        14.7205   17.7306   77.9650  C     
8    C        19.4527   16.8240   81.2558  C     
9    C        14.3153   19.2413   78.1103  C     
10   N        14.5517   19.9401   76.8863  N     
11   C        12.9049   19.4170   78.5219  C     
12   N        12.4870   19.9407   79.6950  N     
13   N        11.8386   19.0925   77.7695  N     
14   C        10.7333   19.3839   78.4567  C     
15   C        11.1457   19.9234   79.6719  C     
16   C        10.2062   20.3079   80.6430  C     
17   C         8.8331   20.1325   80.3626  C     
18   C         8.4195   19.5824   79.1269  C     
19   C         9.3729   19.2045   78.1578  C     
20   S        19.8421   15.0893   81.5737  S     
21   N        21.4716   15.3993   81.7823  N     
22   C        21.8509   16.5925   81.3956  C     
23   C        20.8207   17.4702   80.8915  C     
24   O        19.7457   14.1248   80.3133  O     
25   O        19.2991   14.5878   82.9834  O     
26   O        23.0264   16.9165   81.4299  O     
27   S        14.7545   21.6127   76.8022  S     
28   C        16.0775   22.1770   77.7790  C     
29   O        15.0221   21.9606   75.2696  O     
30   O        13.3831   22.3317   77.1741  O     
31   C        17.2866   22.6023   77.1898  C     
32   C        18.3526   23.0495   77.9926  C     
33   C        18.2320   23.0717   79.4000  C     
34   C        17.0202   22.6458   79.9888  C     
35   C        15.9540   22.1968   79.1850  C     
36   C        19.3806   23.5116   80.2285  C     
37   H        17.3241   17.4365   77.1439  H     
38   H        19.2691   17.0650   78.4708  H     
39   H        16.8572   16.9151   81.9457  H     
40   H        14.9269   17.2867   80.6071  H     
41   H        14.8809   17.4714   76.9107  H     
42   H        13.9109   17.0728   78.3063  H     
43   H        19.1883   17.2406   82.2382  H     
44   H        14.9272   19.7101   78.8894  H     
45   H        14.3634   19.4759   76.0552  H     
46   H        11.8775   18.7022   76.8862  H     
47   H        10.5118   20.6939   81.5400  H     
48   H         8.1318   20.4004   81.0578  H     
49   H         7.4254   19.4526   78.9320  H     
50   H         9.0864   18.7993   77.2641  H     
51   H        22.0958   14.7390   82.1239  H     
52   H        20.9739   17.5998   79.8117  H     
53   H        20.9223   18.4493   81.3746  H     
54   H        17.4035   22.5876   76.1755  H     
55   H        19.2223   23.3503   77.5472  H     
56   H        16.9063   22.6601   81.0049  H     
57   H        15.0912   21.8829   79.6332  H     
58   H        20.2563   22.9084   79.9825  H     
59   H        19.1847   23.4002   81.2978  H     
60   H        19.6085   24.5610   80.0281  H     
@<TRIPOS>BOND
     1    1    2 2
     2    1    6 1
     3    1    7 1
     4    2    3 1
     5    3    4 2
     6    4    5 1
     7    4    8 1
     8    5    6 2
     9    7    9 1
    10    8   20 1
    11    8   23 1
    12    9   10 1
    13    9   11 1
    14   10   27 1
    15   11   12 2
    16   11   13 1
    17   12   15 1
    18   13   14 1
    19   14   15 1
    20   14   19 2
    21   15   16 2
    22   16   17 1
    23   17   18 2
    24   18   19 1
    25   20   21 1
    26   20   24 2
    27   20   25 2
    28   21   22 1
    29   22   23 1
    30   22   26 2
    31   27   28 1
    32   27   29 2
    33   27   30 2
    34   28   31 2
    35   28   35 1
    36   31   32 1
    37   32   33 2
    38   33   34 1
    39   33   36 1
    40   34   35 2
    41    2   37 1
    42    3   38 1
    43    5   39 1
    44    6   40 1
    45    7   41 1
    46    7   42 1
    47    8   43 1
    48    9   44 1
    49   10   45 1
    50   13   46 1
    51   16   47 1
    52   17   48 1
    53   18   49 1
    54   19   50 1
    55   21   51 1
    56   23   52 1
    57   23   53 1
    58   31   54 1
    59   32   55 1
    60   34   56 1
    61   35   57 1
    62   36   58 1
    63   36   59 1
    64   36   60 1
@<TRIPOS>PROPERTY_DATA
  Total_Score	| 11.7334
  Crash		| -1.4513
  Polar		| 6.4951
  FragIndex	| 1
  FragRMSD	| 0.208

