@<TRIPOS>MOLECULE
BindingDB_50189685
 60 64 0 0 0
SMALL
NO_CHARGES


@<TRIPOS>ATOM
1    C        15.9549   17.1422   78.6327  C     
2    C        17.2693   17.1700   78.1107  C     
3    C        18.3856   17.0589   78.9617  C     
4    C        18.2233   16.9567   80.3638  C     
5    C        16.9063   16.8770   80.8736  C     
6    C        15.7920   16.9592   80.0226  C     
7    C        14.7689   17.3346   77.7473  C     
8    C        19.3788   16.8545   81.3034  C     
9    C        14.1083   18.7442   77.8358  C     
10   N        13.4875   18.9715   79.1036  N     
11   C        15.0711   19.8203   77.5128  C     
12   N        15.7998   20.5063   78.4171  N     
13   N        15.3652   20.2449   76.2680  N     
14   C        16.2878   21.2037   76.3694  C     
15   C        16.5522   21.3747   77.7269  C     
16   C        17.4828   22.3258   78.1718  C     
17   C        18.1702   23.0971   77.2086  C     
18   C        17.9098   22.9158   75.8309  C     
19   C        16.9559   21.9703   75.3978  C     
20   S        19.8718   15.1413   81.5676  S     
21   N        21.5030   15.5014   81.6548  N     
22   C        21.8041   16.7253   81.3001  C     
23   C        20.7052   17.6008   80.9680  C     
24   O        19.7246   14.1798   80.3083  O     
25   O        19.4274   14.6011   82.9962  O     
26   O        22.9679   17.0919   81.2528  O     
27   S        12.3235   20.1638   79.3811  S     
28   C        10.7698   19.7912   78.6668  C     
29   O        12.3360   20.3751   80.9555  O     
30   O        12.8725   21.5523   78.8250  O     
31   C         9.5456   19.6635   79.3901  C     
32   C         8.3777   19.2691   78.6910  C     
33   C         8.4114   19.0088   77.3125  C     
34   C         9.6075   19.1637   76.5991  C     
35   C        10.7725   19.5698   77.2702  C     
36   C         9.4405   19.9212   80.8494  C     
37   H        17.4224   17.2851   77.1051  H     
38   H        19.3200   17.0635   78.5469  H     
39   H        16.7434   16.7491   81.8757  H     
40   H        14.8570   16.8834   80.4239  H     
41   H        15.0499   17.1626   76.7047  H     
42   H        14.0192   16.5766   77.9882  H     
43   H        19.0638   17.2206   82.2857  H     
44   H        13.3207   18.7663   77.0723  H     
45   H        13.9191   18.6074   79.8897  H     
46   H        14.9624   19.9111   75.4480  H     
47   H        17.6659   22.4494   79.1684  H     
48   H        18.8578   23.7914   77.5119  H     
49   H        18.4125   23.4806   75.1409  H     
50   H        16.7559   21.8392   74.4052  H     
51   H        22.1773   14.8475   81.8956  H     
52   H        20.7773   17.8781   79.9151  H     
53   H        20.7855   18.5113   81.5667  H     
54   H         7.4873   19.1598   79.1830  H     
55   H         7.5622   18.7041   76.8277  H     
56   H         9.6357   18.9758   75.5932  H     
57   H        11.6332   19.6896   76.7223  H     
58   H        10.0861   19.2294   81.3932  H     
59   H         8.4237   19.7912   81.2293  H     
60   H         9.7409   20.9486   81.0666  H     
@<TRIPOS>BOND
     1    1    2 2
     2    1    6 1
     3    1    7 1
     4    2    3 1
     5    3    4 2
     6    4    5 1
     7    4    8 1
     8    5    6 2
     9    7    9 1
    10    8   20 1
    11    8   23 1
    12    9   10 1
    13    9   11 1
    14   10   27 1
    15   11   12 2
    16   11   13 1
    17   12   15 1
    18   13   14 1
    19   14   15 1
    20   14   19 2
    21   15   16 2
    22   16   17 1
    23   17   18 2
    24   18   19 1
    25   20   21 1
    26   20   24 2
    27   20   25 2
    28   21   22 1
    29   22   23 1
    30   22   26 2
    31   27   28 1
    32   27   29 2
    33   27   30 2
    34   28   31 2
    35   28   35 1
    36   31   32 1
    37   31   36 1
    38   32   33 2
    39   33   34 1
    40   34   35 2
    41    2   37 1
    42    3   38 1
    43    5   39 1
    44    6   40 1
    45    7   41 1
    46    7   42 1
    47    8   43 1
    48    9   44 1
    49   10   45 1
    50   13   46 1
    51   16   47 1
    52   17   48 1
    53   18   49 1
    54   19   50 1
    55   21   51 1
    56   23   52 1
    57   23   53 1
    58   32   54 1
    59   33   55 1
    60   34   56 1
    61   35   57 1
    62   36   58 1
    63   36   59 1
    64   36   60 1
@<TRIPOS>PROPERTY_DATA
  Total_Score	| 11.2509
  Crash		| -1.9354
  Polar		| 5.2993
  FragIndex	| 1
  FragRMSD	| 0.232

