@<TRIPOS>MOLECULE
BindingDB_50189660
 61 65 0 0 0
SMALL
NO_CHARGES


@<TRIPOS>ATOM
1    C        15.8699   17.2342   78.7082  C     
2    C        15.7036   17.3103   80.1175  C     
3    C        16.8084   17.1803   80.9811  C     
4    C        18.1218   16.9602   80.4829  C     
5    C        18.2737   16.8608   79.0805  C     
6    C        17.1794   17.0141   78.2058  C     
7    C        14.7046   17.3105   77.7810  C     
8    C        19.2839   16.8225   81.4051  C     
9    C        13.9516   18.6638   77.6683  C     
10   N        13.0559   18.9314   78.7402  N     
11   C        14.8243   19.8463   77.4750  C     
12   N        15.5678   20.4664   78.4217  N     
13   N        14.9360   20.5187   76.3126  N     
14   C        15.7116   21.5785   76.5131  C     
15   C        16.1178   21.5432   77.8479  C     
16   C        16.9533   22.5362   78.3717  C     
17   C        17.3700   23.5837   77.5216  C     
18   C        16.9513   23.6256   76.1705  C     
19   C        16.1163   22.6135   75.6539  C     
20   S        19.8510   15.1193   81.5777  S     
21   N        21.4703   15.5305   81.6112  N     
22   C        21.7045   16.7850   81.2947  C     
23   C        20.5651   17.6433   81.0587  C     
24   O        19.6971   14.1679   80.3090  O     
25   O        19.5032   14.5244   83.0113  O     
26   O        22.8562   17.1782   81.1941  O     
27   S        11.5999   19.7654   78.5388  S     
28   C        11.7305   21.1862   77.5408  C     
29   O        10.5105   18.7501   77.9798  O     
30   O        11.1180   20.1731   80.0027  O     
31   C        11.9782   22.4559   78.1204  C     
32   C        12.0541   23.6060   77.3107  C     
33   C        11.8944   23.5155   75.9116  C     
34   C        11.6635   22.2469   75.3278  C     
35   C        11.5825   21.0944   76.1403  C     
36   O        11.9091   24.6402   75.1326  O     
37   C        13.2300   25.0481   74.7297  C     
38   H        14.7673   17.4211   80.5189  H     
39   H        16.6450   17.2356   81.9930  H     
40   H        19.1901   16.6647   78.6690  H     
41   H        17.3362   16.9509   77.1941  H     
42   H        15.0329   17.0539   76.7704  H     
43   H        13.9822   16.5397   78.0876  H     
44   H        18.9653   17.1231   82.4103  H     
45   H        13.3419   18.5838   76.7527  H     
46   H        13.2959   18.6273   79.6362  H     
47   H        14.4928   20.2788   75.4846  H     
48   H        17.2526   22.5052   79.3508  H     
49   H        17.9866   24.3174   77.8838  H     
50   H        17.2675   24.3882   75.5616  H     
51   H        15.8063   22.6347   74.6825  H     
52   H        22.1750   14.8906   81.8073  H     
53   H        20.5802   17.9881   80.0070  H     
54   H        20.6470   18.5003   81.7432  H     
55   H        12.1088   22.5500   79.1266  H     
56   H        12.2158   24.5200   77.7434  H     
57   H        11.5289   22.1683   74.3185  H     
58   H        11.4118   20.1912   75.6949  H     
59   H        13.8605   25.2793   75.5945  H     
60   H        13.1327   25.9500   74.1308  H     
61   H        13.7127   24.2802   74.1186  H     
@<TRIPOS>BOND
     1    1    2 2
     2    1    6 1
     3    1    7 1
     4    2    3 1
     5    3    4 2
     6    4    5 1
     7    4    8 1
     8    5    6 2
     9    7    9 1
    10    8   20 1
    11    8   23 1
    12    9   10 1
    13    9   11 1
    14   10   27 1
    15   11   12 2
    16   11   13 1
    17   12   15 1
    18   13   14 1
    19   14   15 1
    20   14   19 2
    21   15   16 2
    22   16   17 1
    23   17   18 2
    24   18   19 1
    25   20   21 1
    26   20   24 2
    27   20   25 2
    28   21   22 1
    29   22   23 1
    30   22   26 2
    31   27   28 1
    32   27   29 2
    33   27   30 2
    34   28   31 2
    35   28   35 1
    36   31   32 1
    37   32   33 2
    38   33   34 1
    39   33   36 1
    40   34   35 2
    41   36   37 1
    42    2   38 1
    43    3   39 1
    44    5   40 1
    45    6   41 1
    46    7   42 1
    47    7   43 1
    48    8   44 1
    49    9   45 1
    50   10   46 1
    51   13   47 1
    52   16   48 1
    53   17   49 1
    54   18   50 1
    55   19   51 1
    56   21   52 1
    57   23   53 1
    58   23   54 1
    59   31   55 1
    60   32   56 1
    61   34   57 1
    62   35   58 1
    63   37   59 1
    64   37   60 1
    65   37   61 1
@<TRIPOS>PROPERTY_DATA
  Total_Score	| 8.9293
  Crash		| -2.1711
  Polar		| 5.2095
  FragIndex	| 1
  FragRMSD	| 0.740

