@<TRIPOS>MOLECULE
BindingDB_13475
 67 72 0 0 0
SMALL
NO_CHARGES


@<TRIPOS>ATOM
1    C        15.8299   17.2505   78.7667  C     
2    C        17.0992   17.0446   78.1776  C     
3    C        18.2482   16.8349   78.9745  C     
4    C        18.1632   16.8573   80.3933  C     
5    C        16.8776   17.0023   80.9710  C     
6    C        15.7316   17.1734   80.1775  C     
7    C        19.3651   16.7406   81.2717  C     
8    C        21.7720   16.6821   81.2846  C     
9    C        20.6584   17.4803   80.8255  C     
10   N        21.5017   15.4761   81.7177  N     
11   O        19.4239   14.5570   83.0259  O     
12   O        22.9307   17.0698   81.2165  O     
13   C        14.6146   17.5481   77.9504  C     
14   C        13.8515   18.8374   78.3792  C     
15   C        14.5128   20.0657   77.8868  C     
16   C        15.2327   21.6277   76.5640  C     
17   C        15.3949   22.0388   77.8836  C     
18   C        16.0606   23.7760   75.7967  C     
19   C        15.5670   22.4870   75.4991  C     
20   C        15.8857   23.3165   78.2000  C     
21   C        16.2182   24.1889   77.1429  C     
22   N        14.9495   21.0626   78.6873  N     
23   N        14.6997   20.4018   76.5940  N     
24   S        19.8894   15.0462   81.5866  S     
25   O        19.7980   14.0387   80.3610  O     
26   N        12.5005   18.7986   77.9109  N     
27   S        11.3448   19.9988   78.1880  S     
28   O         9.9308   19.2937   77.9803  O     
29   O        11.3324   20.4039   79.7327  O     
30   C        11.5243   21.4047   77.1745  C     
31   C        11.6425   22.6797   77.7669  C     
32   C        11.5909   21.2784   75.7712  C     
33   C        11.7950   22.4141   74.9676  C     
34   C        11.9541   23.7101   75.5295  C     
35   C        11.8673   23.8077   76.9543  C     
36   C        12.3498   26.1383   75.4335  C     
37   C        11.7124   26.1772   76.8503  C     
38   N        12.1867   24.8493   74.7867  N     
39   C        12.3617   24.8073   73.3510  C     
40   O        12.0724   25.0025   77.6030  O     
41   H        17.1946   17.0531   77.1553  H     
42   H        19.1508   16.6771   78.5168  H     
43   H        16.7620   16.9847   81.9914  H     
44   H        14.8220   17.2631   80.6436  H     
45   H        19.1052   17.1370   82.2604  H     
46   H        20.7150   17.5898   79.7348  H     
47   H        20.7031   18.4662   81.3009  H     
48   H        22.1828   14.8665   82.0377  H     
49   H        14.8704   17.6314   76.8864  H     
50   H        13.9440   16.6932   78.0508  H     
51   H        13.8177   18.8767   79.4730  H     
52   H        16.3008   24.4184   75.0417  H     
53   H        15.4365   22.1905   74.5306  H     
54   H        15.9878   23.6120   79.1743  H     
55   H        16.5710   25.1266   77.3498  H     
56   H        14.4446   19.8696   75.8224  H     
57   H        12.2883   18.1093   77.2643  H     
58   H        11.5914   22.7929   78.7911  H     
59   H        11.4944   20.3593   75.3272  H     
60   H        11.8376   22.2747   73.9544  H     
61   H        11.8744   26.9384   74.8473  H     
62   H        13.4238   26.3544   75.5188  H     
63   H        12.0581   27.0684   77.3862  H     
64   H        10.6189   26.2363   76.7654  H     
65   H        13.1838   24.1318   73.0878  H     
66   H        12.5927   25.7835   72.9204  H     
67   H        11.4361   24.4517   72.8874  H     
@<TRIPOS>BOND
     1    1    2 1
     2    1    6 2
     3    1   13 1
     4    2    3 2
     5    3    4 1
     6    4    5 2
     7    7    4 1
     8    5    6 1
     9    7    9 1
    10    7   24 1
    11    8    9 1
    12    8   10 1
    13    8   12 2
    14   10   24 1
    15   11   24 2
    16   14   13 1
    17   14   15 1
    18   14   26 1
    19   15   22 2
    20   15   23 1
    21   16   17 2
    22   16   19 1
    23   16   23 1
    24   17   20 1
    25   17   22 1
    26   18   19 2
    27   18   21 1
    28   20   21 2
    29   24   25 2
    30   26   27 1
    31   27   28 2
    32   27   29 2
    33   27   30 1
    34   30   31 1
    35   30   32 2
    36   31   35 2
    37   32   33 1
    38   33   34 2
    39   34   35 1
    40   34   38 1
    41   35   40 1
    42   36   37 1
    43   36   38 1
    44   37   40 1
    45   38   39 1
    46    2   41 1
    47    3   42 1
    48    5   43 1
    49    6   44 1
    50    7   45 1
    51    9   46 1
    52    9   47 1
    53   10   48 1
    54   13   49 1
    55   13   50 1
    56   14   51 1
    57   18   52 1
    58   19   53 1
    59   20   54 1
    60   21   55 1
    61   23   56 1
    62   26   57 1
    63   31   58 1
    64   32   59 1
    65   33   60 1
    66   36   61 1
    67   36   62 1
    68   37   63 1
    69   37   64 1
    70   39   65 1
    71   39   66 1
    72   39   67 1
@<TRIPOS>PROPERTY_DATA
  Total_Score	| 10.6505
  Crash		| -1.3314
  Polar		| 6.8622
  FragIndex	| 1
  FragRMSD	| 0.275

