@<TRIPOS>MOLECULE
BindingDB_50189642
 57 61 0 0 0
SMALL
NO_CHARGES


@<TRIPOS>ATOM
1    C        15.8151   17.2584   78.8704  C     
2    C        15.7665   17.2317   80.2812  C     
3    C        16.9398   17.0737   81.0364  C     
4    C        18.1996   16.9030   80.4144  C     
5    C        18.2303   16.8351   79.0003  C     
6    C        17.0581   17.0319   78.2423  C     
7    C        14.5679   17.4877   78.0876  C     
8    C        19.4220   16.7634   81.2622  C     
9    C        13.7956   18.7796   78.4900  C     
10   N        12.4585   18.7189   77.9983  N     
11   C        14.4448   20.0135   77.9951  C     
12   N        14.8334   21.0454   78.7781  N     
13   N        14.6005   20.3468   76.6993  N     
14   C        15.0679   21.5975   76.6461  C     
15   C        15.2249   22.0307   77.9618  C     
16   C        15.6777   23.3295   78.2517  C     
17   C        15.9565   24.1986   77.1764  C     
18   C        15.7846   23.7662   75.8404  C     
19   C        15.3484   22.4473   75.5639  C     
20   S        19.8851   15.0522   81.5759  S     
21   N        21.4932   15.4397   81.7820  N     
22   C        21.8165   16.6286   81.3339  C     
23   C        20.7472   17.4317   80.7952  C     
24   O        19.8161   14.0653   80.3365  O     
25   O        19.3397   14.5494   82.9806  O     
26   O        22.9796   16.9990   81.3341  O     
27   S        11.2865   19.8807   78.3495  S     
28   C        11.5071   21.2973   77.3531  C     
29   O         9.8312   19.2524   78.1769  O     
30   O        11.4091   20.2952   79.8877  O     
31   C        11.5834   21.1443   75.9516  C     
32   C        11.7572   22.2687   75.1210  C     
33   C        11.8570   23.5573   75.6825  C     
34   C        11.7783   23.7192   77.0779  C     
35   C        11.6044   22.5953   77.9119  C     
36   H        14.8789   17.3434   80.7751  H     
37   H        16.8655   17.0839   82.0557  H     
38   H        19.1004   16.6542   78.4987  H     
39   H        17.1256   17.0019   77.2211  H     
40   H        14.7847   17.5263   77.0158  H     
41   H        13.9277   16.6210   78.2421  H     
42   H        19.2093   17.1891   82.2522  H     
43   H        13.7223   18.8254   79.5790  H     
44   H        12.3033   18.1697   77.2171  H     
45   H        14.3443   19.7990   75.9396  H     
46   H        15.7873   23.6416   79.2207  H     
47   H        16.2666   25.1544   77.3672  H     
48   H        15.9960   24.4063   75.0696  H     
49   H        15.2333   22.1251   74.5996  H     
50   H        22.1519   14.8224   82.1394  H     
51   H        20.8556   17.4522   79.7056  H     
52   H        20.8126   18.4553   81.1749  H     
53   H        11.5120   20.2096   75.5290  H     
54   H        11.7959   22.1521   74.1065  H     
55   H        11.9793   24.3738   75.0710  H     
56   H        11.8472   24.6595   77.4814  H     
57   H        11.5483   22.7340   78.9226  H     
@<TRIPOS>BOND
     1    1    2 2
     2    1    6 1
     3    1    7 1
     4    2    3 1
     5    3    4 2
     6    4    5 1
     7    4    8 1
     8    5    6 2
     9    9    7 1
    10    8   20 1
    11    8   23 1
    12    9   10 1
    13    9   11 1
    14   10   27 1
    15   11   12 2
    16   11   13 1
    17   12   15 1
    18   13   14 1
    19   14   15 1
    20   14   19 2
    21   15   16 2
    22   16   17 1
    23   17   18 2
    24   18   19 1
    25   20   21 1
    26   20   24 2
    27   20   25 2
    28   21   22 1
    29   22   23 1
    30   22   26 2
    31   27   28 1
    32   27   29 2
    33   27   30 2
    34   28   31 2
    35   28   35 1
    36   31   32 1
    37   32   33 2
    38   33   34 1
    39   34   35 2
    40    2   36 1
    41    3   37 1
    42    5   38 1
    43    6   39 1
    44    7   40 1
    45    7   41 1
    46    8   42 1
    47    9   43 1
    48   10   44 1
    49   13   45 1
    50   16   46 1
    51   17   47 1
    52   18   48 1
    53   19   49 1
    54   21   50 1
    55   23   51 1
    56   23   52 1
    57   31   53 1
    58   32   54 1
    59   33   55 1
    60   34   56 1
    61   35   57 1
@<TRIPOS>PROPERTY_DATA
  Total_Score	| 10.5934
  Crash		| -1.3836
  Polar		| 6.9534
  FragIndex	| 1
  FragRMSD	| 0.225

