@<TRIPOS>MOLECULE
BindingDB_50189649
 58 62 0 0 0
SMALL
NO_CHARGES


@<TRIPOS>ATOM
1    C        15.8259   17.2631   78.6172  C     
2    C        17.1209   17.1810   78.0596  C     
3    C        18.2619   17.0355   78.8769  C     
4    C        18.1484   17.0010   80.2901  C     
5    C        16.8444   17.0398   80.8374  C     
6    C        15.7051   17.1611   80.0201  C     
7    C        14.6145   17.4001   77.7530  C     
8    C        19.3281   16.8794   81.2102  C     
9    C        13.8582   18.7630   77.8041  C     
10   N        13.1004   18.9867   78.9995  N     
11   C        14.7569   19.9058   77.5564  C     
12   N        15.4473   20.5780   78.4991  N     
13   N        14.9303   20.4845   76.3544  N     
14   C        15.7195   21.5453   76.5252  C     
15   C        16.0487   21.5983   77.8781  C     
16   C        16.8603   22.6234   78.3859  C     
17   C        17.3405   23.6039   77.4940  C     
18   C        17.0101   23.5491   76.1199  C     
19   C        16.1897   22.5131   75.6239  C     
20   S        19.7723   15.1666   81.5705  S     
21   N        21.3951   15.5201   81.7581  N     
22   C        21.7391   16.7102   81.3361  C     
23   C        20.6825   17.5572   80.8367  C     
24   O        19.7143   14.1482   80.3493  O     
25   O        19.2770   14.6779   83.0023  O     
26   O        22.9134   17.0416   81.3059  O     
27   S        11.9038   20.1773   79.1219  S     
28   C        11.5768   21.0544   77.6370  C     
29   O        10.5655   19.5215   79.6869  O     
30   O        12.3903   21.2122   80.2267  O     
31   C        10.6302   20.6256   76.6673  C     
32   C        10.4492   21.3804   75.4826  C     
33   C        11.2090   22.5402   75.2474  C     
34   C        12.1563   22.9569   76.1953  C     
35   C        12.3306   22.2236   77.3809  C     
36   C         9.9211   19.5394   76.8166  C     
37   N         9.2890   18.5843   76.9352  N     
38   H        17.2467   17.2231   77.0432  H     
39   H        19.1720   16.9562   78.4243  H     
40   H        16.7078   16.9642   81.8476  H     
41   H        14.7818   17.1666   80.4567  H     
42   H        14.8965   17.2445   76.7093  H     
43   H        13.9197   16.5987   78.0013  H     
44   H        19.0425   17.3119   82.1734  H     
45   H        13.1293   18.7259   76.9902  H     
46   H        13.5087   18.7075   79.8383  H     
47   H        14.5205   20.1961   75.5230  H     
48   H        17.0943   22.6574   79.3796  H     
49   H        17.9352   24.3591   77.8416  H     
50   H        17.3686   24.2617   75.4807  H     
51   H        15.9451   22.4651   74.6325  H     
52   H        22.0380   14.8738   82.0807  H     
53   H        20.8180   17.6772   79.7593  H     
54   H        20.7508   18.5416   81.3074  H     
55   H         9.7710   21.0928   74.7669  H     
56   H        11.0785   23.0770   74.3835  H     
57   H        12.7209   23.7945   76.0178  H     
58   H        13.0339   22.5506   78.0466  H     
@<TRIPOS>BOND
     1    1    2 2
     2    1    6 1
     3    1    7 1
     4    2    3 1
     5    3    4 2
     6    4    5 1
     7    4    8 1
     8    5    6 2
     9    7    9 1
    10    8   20 1
    11    8   23 1
    12    9   10 1
    13    9   11 1
    14   10   27 1
    15   11   12 2
    16   11   13 1
    17   12   15 1
    18   13   14 1
    19   14   15 1
    20   14   19 2
    21   15   16 2
    22   16   17 1
    23   17   18 2
    24   18   19 1
    25   20   21 1
    26   20   24 2
    27   20   25 2
    28   21   22 1
    29   22   23 1
    30   22   26 2
    31   27   28 1
    32   27   29 2
    33   27   30 2
    34   28   31 2
    35   28   35 1
    36   31   32 1
    37   31   36 1
    38   32   33 2
    39   33   34 1
    40   34   35 2
    41   36   37 3
    42    2   38 1
    43    3   39 1
    44    5   40 1
    45    6   41 1
    46    7   42 1
    47    7   43 1
    48    8   44 1
    49    9   45 1
    50   10   46 1
    51   13   47 1
    52   16   48 1
    53   17   49 1
    54   18   50 1
    55   19   51 1
    56   21   52 1
    57   23   53 1
    58   23   54 1
    59   32   55 1
    60   33   56 1
    61   34   57 1
    62   35   58 1
@<TRIPOS>PROPERTY_DATA
  Total_Score	| 10.5509
  Crash		| -1.6740
  Polar		| 6.1323
  FragIndex	| 1
  FragRMSD	| 0.959

