@<TRIPOS>MOLECULE
BindingDB_50349850
 35 36 0 0 0
SMALL
NO_CHARGES


@<TRIPOS>ATOM
1    C        -5.5533    2.7634   16.1770  C     
2    N        -7.6935    1.7885   17.8107  N     
3    O        -6.2443    0.1194   16.3593  O     
4    S        -6.1745    1.4794   17.1715  S     
5    C        -6.3983    3.8103   15.7518  C     
6    O        -5.1866    1.2766   18.3992  O     
7    C        -5.8922    4.8589   14.9691  C     
8    C        -4.5333    4.8810   14.5699  C     
9    C        -3.6904    3.8342   15.0127  C     
10   C        -4.1937    2.7839   15.8027  C     
11   N        -3.9484    5.8586   13.8164  N     
12   C        -4.5076    6.8164   13.0416  C     
13   N        -3.6599    7.6696   12.4196  N     
14   C        -4.1086    8.6546   11.5979  C     
15   N        -3.2856    9.4911   10.9251  N     
16   N        -5.4453    8.7947   11.4217  N     
17   C        -6.3134    7.9525   12.0319  C     
18   Cl       -7.9725    8.1520   11.8415  Cl    
19   N        -5.8422    6.9601   12.8213  N     
20   C        -1.8583    9.5192   10.9925  C     
21   C        -1.1782    8.1959   10.5619  C     
22   O         0.2061    8.4112   10.2882  O     
23   H        -7.9423    1.4033   18.6721  H     
24   H        -8.3377    2.3041   17.2960  H     
25   H        -7.3881    3.8289   16.0116  H     
26   H        -6.5281    5.6162   14.7215  H     
27   H        -2.6981    3.8316   14.7549  H     
28   H        -3.5576    2.0392   16.1064  H     
29   H        -2.9769    5.8413   13.8126  H     
30   H        -3.7138   10.1423   10.3444  H     
31   H        -1.5267   10.3153   10.3213  H     
32   H        -1.5456    9.7764   12.0048  H     
33   H        -1.2516    7.4574   11.3692  H     
34   H        -1.6662    7.7845    9.6686  H     
35   H         0.2101    8.9692    9.4721  H     
@<TRIPOS>BOND
     1    1    4 1
     2    1    5 1
     3    1   10 2
     4    2    4 am
     5    3    4 2
     6    4    6 2
     7    5    7 2
     8    7    8 1
     9    8    9 2
    10    8   11 1
    11    9   10 1
    12   11   12 1
    13   12   13 2
    14   12   19 1
    15   13   14 1
    16   14   15 1
    17   14   16 2
    18   15   20 1
    19   16   17 1
    20   17   18 1
    21   17   19 2
    22   20   21 1
    23   21   22 1
    24    2   23 1
    25    2   24 1
    26    5   25 1
    27    7   26 1
    28    9   27 1
    29   10   28 1
    30   11   29 1
    31   15   30 1
    32   20   31 1
    33   20   32 1
    34   21   33 1
    35   21   34 1
    36   22   35 1
@<TRIPOS>PROPERTY_DATA
  Total_Score	| 4.9346
  Crash		| -1.4385
  Polar		| 3.4769
  FragIndex	| 1
  FragRMSD	| 0.850

