@<TRIPOS>MOLECULE
BindingDB_50167362
 48 49 0 0 0
SMALL
NO_CHARGES


@<TRIPOS>ATOM
1    S        -6.1763    1.4450   17.0331  S     
2    C        -3.5604    6.7362   13.3125  C     
3    C        -5.0055    8.1199   12.0441  C     
4    C        -2.6603    8.3356   11.8207  C     
5    N        -3.9196    8.7047   11.4750  N     
6    N        -4.8091    7.1358   12.9568  N     
7    N        -2.5020    7.3533   12.7359  N     
8    C        -5.3788    2.7207   16.1701  C     
9    N        -3.2485    5.7366   14.1666  N     
10   N        -6.2873    8.4498   11.7757  N     
11   N        -1.5325    8.8556   11.2966  N     
12   O        -5.9470    0.1549   16.1377  O     
13   O        -5.4367    1.1071   18.3966  O     
14   N        -7.8395    1.5744   17.1599  N     
15   C        -3.9727    2.7138   16.0781  C     
16   C        -6.1043    3.7762   15.5796  C     
17   C        -4.0170    4.8111   14.8099  C     
18   C        -5.4302    4.8091   14.9017  C     
19   C        -3.3025    3.7523   15.4134  C     
20   C        -6.8516    9.3257   10.7873  C     
21   C        -1.3984    9.8595   10.2837  C     
22   C        -5.9312    9.9371    9.6942  C     
23   C        -1.9201    9.3664    8.9117  C     
24   C        -7.9995    8.5319   10.1109  C     
25   C        -2.0018   11.2219   10.7017  C     
26   H        -2.2929    5.6051   14.2859  H     
27   H        -6.9403    8.0209   12.3548  H     
28   H        -0.6985    8.4821   11.6340  H     
29   H        -8.3927    1.0062   16.6090  H     
30   H        -8.2159    2.3944   17.5171  H     
31   H        -3.4231    1.9616   16.5037  H     
32   H        -7.1250    3.8041   15.6367  H     
33   H        -5.9888    5.5626   14.4988  H     
34   H        -2.2785    3.7272   15.3727  H     
35   H        -7.2948   10.1603   11.3376  H     
36   H        -0.3247   10.0212   10.1620  H     
37   H        -5.1657   10.5655   10.1401  H     
38   H        -6.5113   10.5666    9.0140  H     
39   H        -5.4559    9.1454    9.1113  H     
40   H        -1.4093    8.4458    8.6249  H     
41   H        -1.7349   10.1174    8.1383  H     
42   H        -2.9944    9.1770    8.9494  H     
43   H        -7.6058    7.6509    9.5958  H     
44   H        -8.5286    9.1437    9.3774  H     
45   H        -8.7215    8.2081   10.8679  H     
46   H        -3.0843   11.1616   10.7662  H     
47   H        -1.7428   11.9860    9.9684  H     
48   H        -1.6001   11.5340   11.6690  H     
@<TRIPOS>BOND
     1    1    8 1
     2    1   12 2
     3    1   13 2
     4    1   14 am
     5    2    6 2
     6    2    7 1
     7    2    9 1
     8    3    5 2
     9    3    6 1
    10    3   10 1
    11    4    5 1
    12    4    7 2
    13    4   11 1
    14    8   15 1
    15    8   16 2
    16    9   17 1
    17   10   20 1
    18   11   21 1
    19   15   19 2
    20   16   18 1
    21   17   18 2
    22   17   19 1
    23   20   22 1
    24   20   24 1
    25   21   23 1
    26   21   25 1
    27    9   26 1
    28   10   27 1
    29   11   28 1
    30   14   29 1
    31   14   30 1
    32   15   31 1
    33   16   32 1
    34   18   33 1
    35   19   34 1
    36   20   35 1
    37   21   36 1
    38   22   37 1
    39   22   38 1
    40   22   39 1
    41   23   40 1
    42   23   41 1
    43   23   42 1
    44   24   43 1
    45   24   44 1
    46   24   45 1
    47   25   46 1
    48   25   47 1
    49   25   48 1
@<TRIPOS>PROPERTY_DATA
  Total_Score	| 4.7227
  Crash		| -1.8001
  Polar		| 2.7875
  FragIndex	| 1
  FragRMSD	| 1.400

