@<TRIPOS>MOLECULE
BindingDB_50167358
 54 55 0 0 0
SMALL
NO_CHARGES


@<TRIPOS>ATOM
1    N        -4.2038    8.7574   11.4465  N     
2    C        -5.2889    8.1570   11.9885  C     
3    C        -2.9376    8.2817   11.5313  C     
4    S        -6.1823    1.5686   17.2311  S     
5    N        -5.0672    7.0108   12.6872  N     
6    N        -2.7876    7.1356   12.2444  N     
7    C        -3.8211    6.4864   12.8335  C     
8    C        -5.4329    2.7060   16.1442  C     
9    N        -3.4803    5.3862   13.5447  N     
10   N        -6.5194    8.7353   11.8463  N     
11   N        -1.9078    8.9451   10.9255  N     
12   O        -6.4838    0.1760   16.5332  O     
13   O        -5.2346    1.2977   18.4761  O     
14   N        -7.6359    2.0908   17.8762  N     
15   C        -6.2107    3.6374   15.4188  C     
16   C        -4.0364    2.6959   15.9600  C     
17   C        -4.1964    4.5504   14.3498  C     
18   C        -3.4308    3.6086   15.0803  C     
19   C        -5.5996    4.5439   14.5303  C     
20   C        -0.5578    8.4240   10.9334  C     
21   C        -6.6403   10.0849   11.3075  C     
22   C        -7.6875    8.0045   12.2719  C     
23   C        -2.1522   10.2051   10.2572  C     
24   C        -6.8174   10.1693    9.7648  C     
25   C         0.4158    9.2971   11.7809  C     
26   C        -6.7411   11.6197    9.2294  C     
27   C         1.0045    8.5487   12.9966  C     
28   H        -2.5310    5.1847   13.5211  H     
29   H        -7.9637    1.6610   18.6784  H     
30   H        -8.2576    2.5972   17.3170  H     
31   H        -7.2262    3.6510   15.5227  H     
32   H        -3.4465    2.0210   16.4570  H     
33   H        -2.4105    3.5828   14.9709  H     
34   H        -6.1978    5.1897   14.0151  H     
35   H        -0.5321    7.3863   11.2711  H     
36   H        -0.1865    8.3814    9.9083  H     
37   H        -7.4720   10.6188   11.7691  H     
38   H        -5.7396   10.6490   11.5909  H     
39   H        -7.7275    7.0463   11.7558  H     
40   H        -8.6206    8.5229   12.0529  H     
41   H        -7.6526    7.8273   13.3438  H     
42   H        -2.8331   10.0588    9.4225  H     
43   H        -1.2501   10.6665    9.8612  H     
44   H        -2.6067   10.9175   10.9493  H     
45   H        -6.0238    9.5991    9.2792  H     
46   H        -7.7829    9.7333    9.4854  H     
47   H         1.2449    9.6363   11.1517  H     
48   H        -0.0968   10.1953   12.1416  H     
49   H        -7.5269   12.2384    9.6761  H     
50   H        -6.8620   11.6163    8.1424  H     
51   H        -5.7675   12.0548    9.4694  H     
52   H         0.2065    8.1915   13.6518  H     
53   H         1.6563    9.2185   13.5655  H     
54   H         1.5943    7.6900   12.6597  H     
@<TRIPOS>BOND
     1    1    2 2
     2    1    3 1
     3    2    5 1
     4    2   10 1
     5    3    6 2
     6    3   11 1
     7    4    8 1
     8    4   12 2
     9    4   13 2
    10    4   14 am
    11    5    7 2
    12    6    7 1
    13    7    9 1
    14    8   15 1
    15    8   16 2
    16    9   17 1
    17   10   21 1
    18   10   22 1
    19   11   20 1
    20   11   23 1
    21   15   19 2
    22   16   18 1
    23   17   18 2
    24   17   19 1
    25   20   25 1
    26   21   24 1
    27   24   26 1
    28   25   27 1
    29    9   28 1
    30   14   29 1
    31   14   30 1
    32   15   31 1
    33   16   32 1
    34   18   33 1
    35   19   34 1
    36   20   35 1
    37   20   36 1
    38   21   37 1
    39   21   38 1
    40   22   39 1
    41   22   40 1
    42   22   41 1
    43   23   42 1
    44   23   43 1
    45   23   44 1
    46   24   45 1
    47   24   46 1
    48   25   47 1
    49   25   48 1
    50   26   49 1
    51   26   50 1
    52   26   51 1
    53   27   52 1
    54   27   53 1
    55   27   54 1
@<TRIPOS>PROPERTY_DATA
  Total_Score	| 4.0892
  Crash		| -3.5361
  Polar		| 3.6857
  FragIndex	| 1
  FragRMSD	| 1.308

