@<TRIPOS>MOLECULE
BindingDB_50349845
 48 49 0 0 0
SMALL
NO_CHARGES


@<TRIPOS>ATOM
1    O        -4.9884    1.4524   18.0463  O     
2    S        -6.1433    1.7915   17.0105  S     
3    O        -6.5338    0.4005   16.3531  O     
4    C        -4.4801    4.7232   13.8994  C     
5    C        -3.7501    3.5923   14.3221  C     
6    C        -4.2651    2.7077   15.2831  C     
7    C        -5.5298    2.9385   15.8522  C     
8    C        -6.2664    4.0746   15.4527  C     
9    C        -5.7456    4.9604   14.4849  C     
10   N        -7.4638    2.2598   17.9263  N     
11   N        -3.8773    5.4599   12.9220  N     
12   N        -4.5740    8.7826   10.6945  N     
13   C        -3.4709    8.0289   10.5184  C     
14   N        -3.3009    6.9392   11.3072  N     
15   C        -4.2110    6.5827   12.2478  C     
16   N        -5.3086    7.3718   12.4207  N     
17   C        -5.4874    8.4838   11.6518  C     
18   N        -6.4886    9.3562   11.9022  N     
19   C        -6.6284   10.6441   11.2817  C     
20   C        -5.4190   11.5003   11.2658  C     
21   O        -4.1776   10.9917   11.4844  O     
22   O        -5.5810   12.8316   11.0399  O     
23   C        -4.5429   13.8129   11.0228  C     
24   N        -2.5769    8.4385    9.5935  N     
25   C        -1.2975    7.8524    9.3685  C     
26   C        -0.4205    8.0277   10.5367  C     
27   O        -0.4580    9.2023   11.2034  O     
28   O         0.4021    7.0174   10.9194  O     
29   C         1.3238    6.9975   12.0129  C     
30   H        -2.8316    3.3887   13.9192  H     
31   H        -3.7122    1.8909   15.5544  H     
32   H        -7.1871    4.2604   15.8546  H     
33   H        -6.3029    5.7696   14.2090  H     
34   H        -8.2980    2.4469   17.4767  H     
35   H        -7.4669    2.0601   18.8755  H     
36   H        -3.0319    5.0856   12.6296  H     
37   H        -7.1300    9.1175   12.5885  H     
38   H        -6.9731   10.5114   10.2537  H     
39   H        -7.3972   11.1872   11.8298  H     
40   H        -4.0493   13.8527   11.9959  H     
41   H        -4.9815   14.7880   10.8091  H     
42   H        -3.8096   13.5766   10.2498  H     
43   H        -2.8123    9.2153    9.0606  H     
44   H        -1.4077    6.7941    9.1155  H     
45   H        -0.8340    8.3522    8.5164  H     
46   H         1.3314    7.9345   12.5703  H     
47   H         2.3265    6.8089   11.6290  H     
48   H         1.0492    6.1894   12.6898  H     
@<TRIPOS>BOND
     1    1    2 2
     2    2    3 2
     3    2    7 1
     4    2   10 am
     5    4    5 2
     6    4    9 1
     7    4   11 1
     8    5    6 1
     9    6    7 2
    10    7    8 1
    11    8    9 2
    12   11   15 1
    13   12   13 2
    14   12   17 1
    15   13   14 1
    16   13   24 1
    17   14   15 2
    18   15   16 1
    19   16   17 2
    20   17   18 1
    21   18   19 1
    22   19   20 1
    23   20   21 2
    24   20   22 1
    25   22   23 1
    26   24   25 1
    27   25   26 1
    28   26   27 2
    29   26   28 1
    30   28   29 1
    31    5   30 1
    32    6   31 1
    33    8   32 1
    34    9   33 1
    35   10   34 1
    36   10   35 1
    37   11   36 1
    38   18   37 1
    39   19   38 1
    40   19   39 1
    41   23   40 1
    42   23   41 1
    43   23   42 1
    44   24   43 1
    45   25   44 1
    46   25   45 1
    47   29   46 1
    48   29   47 1
    49   29   48 1
@<TRIPOS>PROPERTY_DATA
  Total_Score	| 3.8119
  Crash		| -2.8409
  Polar		| 3.9370
  FragIndex	| 1
  FragRMSD	| 1.496

