@<TRIPOS>MOLECULE
BindingDB_50349846
 37 38 0 0 0
SMALL
NO_CHARGES


@<TRIPOS>ATOM
1    C        -5.4713    2.7552   16.0842  C     
2    N        -7.6970    1.6525   17.4894  N     
3    O        -5.9661    0.1419   16.2122  O     
4    S        -6.0817    1.4670   17.0820  S     
5    C        -6.3639    3.7029   15.5493  C     
6    O        -5.1910    1.3209   18.3915  O     
7    C        -5.8858    4.7721   14.7794  C     
8    C        -4.5050    4.9143   14.4962  C     
9    C        -3.6191    3.9543   15.0346  C     
10   C        -4.0947    2.8819   15.8188  C     
11   N        -3.9438    5.9223   13.7542  N     
12   C        -4.5149    6.8764   12.9838  C     
13   N        -3.6747    7.7495   12.3709  N     
14   C        -4.1371    8.7315   11.5525  C     
15   N        -3.3166    9.5667   10.8794  N     
16   N        -5.4740    8.8562   11.3630  N     
17   C        -6.3308    8.0001   11.9711  C     
18   Cl       -7.9978    8.1786   11.7895  Cl    
19   N        -5.8485    7.0084   12.7554  N     
20   C        -1.8891    9.5820   10.9777  C     
21   C        -1.2098    8.3627   10.4937  C     
22   C         0.9264    7.0998   10.3898  C     
23   O         0.1154    8.2174   10.7573  O     
24   O        -1.8875    7.3971    9.8249  O     
25   H        -8.1745    0.9245   17.9110  H     
26   H        -8.1470    2.4969   17.3353  H     
27   H        -7.3626    3.6428   15.7314  H     
28   H        -6.5706    5.4566   14.4600  H     
29   H        -2.6125    4.0326   14.8711  H     
30   H        -3.4245    2.2053   16.2008  H     
31   H        -2.9758    5.9415   13.7702  H     
32   H        -3.7301   10.2281   10.2988  H     
33   H        -1.5184   10.4255   10.3916  H     
34   H        -1.6150    9.7513   12.0208  H     
35   H         0.5279    6.1828   10.8271  H     
36   H         1.9378    7.2585   10.7640  H     
37   H         0.9607    7.0010    9.3040  H     
@<TRIPOS>BOND
     1    1    4 1
     2    1    5 2
     3    1   10 1
     4    2    4 am
     5    3    4 2
     6    4    6 2
     7    5    7 1
     8    7    8 2
     9    8    9 1
    10    8   11 1
    11    9   10 2
    12   11   12 1
    13   12   13 2
    14   12   19 1
    15   13   14 1
    16   14   15 1
    17   14   16 2
    18   15   20 1
    19   16   17 1
    20   17   18 1
    21   17   19 2
    22   20   21 1
    23   21   23 1
    24   21   24 2
    25   22   23 1
    26    2   25 1
    27    2   26 1
    28    5   27 1
    29    7   28 1
    30    9   29 1
    31   10   30 1
    32   11   31 1
    33   15   32 1
    34   20   33 1
    35   20   34 1
    36   22   35 1
    37   22   36 1
    38   22   37 1
@<TRIPOS>PROPERTY_DATA
  Total_Score	| 4.5363
  Crash		| -1.5338
  Polar		| 3.3861
  FragIndex	| 1
  FragRMSD	| 0.833

