@<TRIPOS>MOLECULE
BindingDB_50153972
 36 37 0 0 0
SMALL
NO_CHARGES


@<TRIPOS>ATOM
1    S        -6.1996    1.6426   17.0513  S     
2    C        -4.2013    6.8820   13.0278  C     
3    N        -5.5343    7.0554   12.8244  N     
4    N        -3.3354    7.6914   12.3711  N     
5    N        -5.1039    8.8390   11.3685  N     
6    C        -3.7714    8.6707   11.5360  C     
7    C        -5.9908    8.0443   12.0141  C     
8    C        -5.5070    2.9391   16.1258  C     
9    N        -3.6698    5.9395   13.8362  N     
10   O        -6.3714    0.3299   16.1775  O     
11   O        -5.2207    1.3224   18.2644  O     
12   N        -7.6891    2.0010   17.7237  N     
13   N        -7.2988    8.3029   11.8261  N     
14   N        -2.9409    9.4940   10.8587  N     
15   C        -4.1474    2.8523   15.7478  C     
16   C        -6.2534    4.0824   15.7566  C     
17   C        -4.3028    5.0097   14.6020  C     
18   C        -5.6457    5.1246   15.0351  C     
19   C        -3.5530    3.8752   14.9940  C     
20   C        -8.3557    7.6682   12.5263  C     
21   C        -1.5215    9.4460   10.9251  C     
22   H        -2.7029    5.8877   13.8318  H     
23   H        -7.9759    1.5214   18.5226  H     
24   H        -8.3082    2.5854   17.2502  H     
25   H        -7.5351    9.0127   11.2080  H     
26   H        -3.3453   10.1670   10.2908  H     
27   H        -3.5767    2.0429   16.0153  H     
28   H        -7.2372    4.1796   16.0236  H     
29   H        -6.1855    5.9771   14.8358  H     
30   H        -2.5705    3.7754   14.7151  H     
31   H        -8.2932    6.5820   12.4478  H     
32   H        -9.2967    7.9939   12.0856  H     
33   H        -8.3364    7.9595   13.5781  H     
34   H        -1.1764    9.6346   11.9440  H     
35   H        -1.1057   10.2122   10.2706  H     
36   H        -1.1535    8.4739   10.5955  H     
@<TRIPOS>BOND
     1    1    8 1
     2    1   10 2
     3    1   11 2
     4    1   12 am
     5    2    3 1
     6    2    4 2
     7    2    9 1
     8    3    7 2
     9    4    6 1
    10    5    6 2
    11    5    7 1
    12    6   14 1
    13    7   13 1
    14    8   15 2
    15    8   16 1
    16    9   17 1
    17   13   20 1
    18   14   21 1
    19   15   19 1
    20   16   18 2
    21   17   18 1
    22   17   19 2
    23    9   22 1
    24   12   23 1
    25   12   24 1
    26   13   25 1
    27   14   26 1
    28   15   27 1
    29   16   28 1
    30   18   29 1
    31   19   30 1
    32   20   31 1
    33   20   32 1
    34   20   33 1
    35   21   34 1
    36   21   35 1
    37   21   36 1
@<TRIPOS>PROPERTY_DATA
  Total_Score	| 4.9051
  Crash		| -2.9686
  Polar		| 3.4425
  FragIndex	| 1
  FragRMSD	| 0.997

