@<TRIPOS>MOLECULE
BindingDB_50349859
 40 41 0 0 0
SMALL
NO_CHARGES


@<TRIPOS>ATOM
1    O        -5.2321    1.2347   18.3715  O     
2    S        -6.1282    1.4652   17.0801  S     
3    O        -6.0004    0.1167   16.2535  O     
4    C        -4.4429    4.9930   14.6992  C     
5    C        -3.6009    3.9568   15.1606  C     
6    C        -4.1206    2.8708   15.8865  C     
7    C        -5.4965    2.8130   16.1832  C     
8    C        -6.3446    3.8499   15.7441  C     
9    C        -5.8218    4.9322   15.0125  C     
10   N        -7.7112    1.6032   17.6134  N     
11   N        -3.8336    6.0008   14.0100  N     
12   N        -5.1074    8.6169   11.1727  N     
13   C        -6.0260    7.7793   11.7199  C     
14   N        -5.6304    6.9079   12.6813  N     
15   C        -4.3359    6.8678   13.1020  C     
16   N        -3.4422    7.7168   12.5348  N     
17   C        -3.8150    8.5991   11.5719  C     
18   N        -2.9571    9.4505   10.9683  N     
19   C        -1.5534    9.5327   11.2092  C     
20   N        -7.3158    7.7688   11.3184  N     
21   C        -7.8357    8.4755   10.1929  C     
22   C        -7.4791    7.8198    8.9222  C     
23   O        -6.1960    7.7731    8.5002  O     
24   O        -8.4339    7.2731    8.1368  O     
25   C        -0.8450    8.3208   10.7637  C     
26   O        -0.0868    7.6064   11.6242  O     
27   O        -0.9564    7.8949    9.4859  O     
28   H        -2.5965    3.9799   14.9628  H     
29   H        -3.4872    2.1304   16.2005  H     
30   H        -7.3445    3.8320   15.9595  H     
31   H        -6.4553    5.6840   14.7398  H     
32   H        -8.4351    1.6610   16.9699  H     
33   H        -7.8954    1.6339   18.5643  H     
34   H        -2.8715    6.0538   14.1296  H     
35   H        -3.3286   10.0560   10.3067  H     
36   H        -1.1599   10.3802   10.6457  H     
37   H        -1.3697    9.7201   12.2701  H     
38   H        -7.9410    7.2294   11.8295  H     
39   H        -8.9201    8.4860   10.2890  H     
40   H        -7.4905    9.5119   10.1862  H     
@<TRIPOS>BOND
     1    1    2 2
     2    2    3 2
     3    2    7 1
     4    2   10 am
     5    4    5 2
     6    4    9 1
     7    4   11 1
     8    5    6 1
     9    6    7 2
    10    7    8 1
    11    8    9 2
    12   11   15 1
    13   12   13 2
    14   12   17 1
    15   13   14 1
    16   13   20 1
    17   14   15 2
    18   15   16 1
    19   16   17 2
    20   17   18 1
    21   18   19 1
    22   19   25 1
    23   20   21 1
    24   21   22 1
    25   22   23 1
    26   22   24 2
    27   25   26 1
    28   25   27 2
    29    5   28 1
    30    6   29 1
    31    8   30 1
    32    9   31 1
    33   10   32 1
    34   10   33 1
    35   11   34 1
    36   18   35 1
    37   19   36 1
    38   19   37 1
    39   20   38 1
    40   21   39 1
    41   21   40 1
@<TRIPOS>PROPERTY_DATA
  Total_Score	| 3.9913
  Crash		| -2.0688
  Polar		| 3.3598
  FragIndex	| 1
  FragRMSD	| 0.957

