@<TRIPOS>MOLECULE
BindingDB_50349848
 36 37 0 0 0
SMALL
NO_CHARGES


@<TRIPOS>ATOM
1    O        -5.1676    1.2019   18.4054  O     
2    S        -6.0724    1.4062   17.1183  S     
3    O        -5.9522    0.0584   16.2882  O     
4    C        -4.5389    4.9219   14.5898  C     
5    C        -5.9154    4.8045   14.9281  C     
6    C        -6.3849    3.7327   15.7079  C     
7    C        -5.4868    2.7554   16.1867  C     
8    C        -4.1138    2.8658   15.8720  C     
9    C        -3.6466    3.9408   15.0899  C     
10   N        -7.6604    1.5256   17.6429  N     
11   N        -3.9780    5.9057   13.8261  N     
12   N        -5.4799    8.7813   11.3643  N     
13   C        -6.3510    7.9619   12.0049  C     
14   N        -5.8755    6.9884   12.8129  N     
15   C        -4.5419    6.8452   13.0334  C     
16   N        -3.6927    7.6823   12.3827  N     
17   C        -4.1419    8.6435   11.5364  C     
18   N        -3.3300    9.4603   10.8253  N     
19   C        -1.8960    9.5081   10.8726  C     
20   C        -1.2588    8.2070   10.5386  C     
21   C        -1.3863   10.5970    9.8881  C     
22   O        -0.2428    7.7300   11.2880  O     
23   O        -1.7065    7.4414    9.5085  O     
24   Cl       -8.0138    8.1588   11.8278  Cl    
25   H        -6.5995    5.4965   14.6216  H     
26   H        -7.3867    3.6686   15.9240  H     
27   H        -3.4454    2.1615   16.2116  H     
28   H        -2.6411    4.0026   14.8805  H     
29   H        -8.3772    1.5905   16.9864  H     
30   H        -7.8389    1.6639   18.5827  H     
31   H        -3.0080    5.9099   13.8224  H     
32   H        -3.7640   10.0889   10.2316  H     
33   H        -1.5999    9.8049   11.8887  H     
34   H        -1.6545   10.3470    8.8544  H     
35   H        -0.2976   10.6927    9.9505  H     
36   H        -1.8224   11.5686   10.1401  H     
@<TRIPOS>BOND
     1    1    2 2
     2    2    3 2
     3    2    7 1
     4    2   10 am
     5    4    5 2
     6    4    9 1
     7    4   11 1
     8    5    6 1
     9    6    7 2
    10    7    8 1
    11    8    9 2
    12   11   15 1
    13   12   13 2
    14   12   17 1
    15   13   14 1
    16   13   24 1
    17   14   15 2
    18   15   16 1
    19   16   17 2
    20   17   18 1
    21   18   19 1
    22   19   20 1
    23   19   21 1
    24   20   22 1
    25   20   23 2
    26    5   25 1
    27    6   26 1
    28    8   27 1
    29    9   28 1
    30   10   29 1
    31   10   30 1
    32   11   31 1
    33   18   32 1
    34   19   33 1
    35   21   34 1
    36   21   35 1
    37   21   36 1
@<TRIPOS>PROPERTY_DATA
  Total_Score	| 5.0593
  Crash		| -1.2804
  Polar		| 3.2631
  FragIndex	| 1
  FragRMSD	| 0.852

