@<TRIPOS>MOLECULE
BindingDB_50349849
 37 38 0 0 0
SMALL
NO_CHARGES


@<TRIPOS>ATOM
1    O        -5.2056    1.2555   18.4000  O     
2    S        -6.1461    1.4141   17.1299  S     
3    O        -6.0463    0.0374   16.3458  O     
4    C        -4.5704    4.8573   14.5487  C     
5    C        -5.9219    4.8264   14.9661  C     
6    C        -6.4089    3.7724   15.7594  C     
7    C        -5.5509    2.7328   16.1665  C     
8    C        -4.1986    2.7649   15.7778  C     
9    C        -3.7162    3.8211   14.9842  C     
10   N        -7.7103    1.5863   17.7080  N     
11   N        -3.9926    5.8390   13.7941  N     
12   N        -5.4669    8.8287   11.4488  N     
13   C        -6.3392    7.9577   12.0113  C     
14   N        -5.8793    6.9422   12.7799  N     
15   C        -4.5484    6.7999   13.0212  C     
16   N        -3.6904    7.6767   12.4420  N     
17   C        -4.1331    8.6908   11.6516  C     
18   N        -3.2988    9.5789   11.0648  N     
19   C        -1.8686    9.5946   11.1910  C     
20   C        -1.2178    8.4148   10.5730  C     
21   C        -1.3104   10.9111   10.5891  C     
22   O        -1.6329   11.0555    9.2064  O     
23   O        -1.8441    7.6496    9.6549  O     
24   O         0.0701    8.1245   10.8545  O     
25   Cl       -7.9970    8.1478   11.7778  Cl    
26   H        -6.5669    5.5775   14.7238  H     
27   H        -7.3926    3.7776   16.0398  H     
28   H        -3.5548    2.0243   16.0690  H     
29   H        -2.7277    3.8217   14.7176  H     
30   H        -8.4133    1.8609   17.1011  H     
31   H        -7.8588    1.6228   18.6644  H     
32   H        -3.0217    5.8350   13.7954  H     
33   H        -3.7093   10.2840   10.5388  H     
34   H        -1.6256    9.5924   12.2580  H     
35   H        -1.7389   11.7633   11.1205  H     
36   H        -0.2244   10.9556   10.7039  H     
37   H        -1.1640   10.3264    8.7517  H     
@<TRIPOS>BOND
     1    1    2 2
     2    2    3 2
     3    2    7 1
     4    2   10 am
     5    4    5 2
     6    4    9 1
     7    4   11 1
     8    5    6 1
     9    6    7 2
    10    7    8 1
    11    8    9 2
    12   11   15 1
    13   12   13 2
    14   12   17 1
    15   13   14 1
    16   13   25 1
    17   14   15 2
    18   15   16 1
    19   16   17 2
    20   17   18 1
    21   18   19 1
    22   19   20 1
    23   19   21 1
    24   20   23 1
    25   20   24 2
    26   21   22 1
    27    5   26 1
    28    6   27 1
    29    8   28 1
    30    9   29 1
    31   10   30 1
    32   10   31 1
    33   11   32 1
    34   18   33 1
    35   19   34 1
    36   21   35 1
    37   21   36 1
    38   22   37 1
@<TRIPOS>PROPERTY_DATA
  Total_Score	| 4.7535
  Crash		| -1.3101
  Polar		| 3.4291
  FragIndex	| 1
  FragRMSD	| 1.070

