@<TRIPOS>MOLECULE
BindingDB_50349851
 41 42 0 0 0
SMALL
NO_CHARGES


@<TRIPOS>ATOM
1    O        -5.1396    1.1478   18.4665  O     
2    S        -6.0390    1.3304   17.1703  S     
3    O        -5.9274   -0.0508   16.3957  O     
4    C        -4.5934    4.6904   14.4218  C     
5    C        -5.9739    4.4996   14.6697  C     
6    C        -6.4128    3.4783   15.5282  C     
7    C        -5.4859    2.6214   16.1473  C     
8    C        -4.1113    2.7970   15.9053  C     
9    C        -3.6732    3.8254   15.0554  C     
10   N        -7.6378    1.4526   17.6688  N     
11   N        -4.0422    5.6594   13.6326  N     
12   N        -5.4557    8.8179   11.4925  N     
13   C        -6.3535    7.9607   12.0403  C     
14   N        -5.9214    6.8874   12.7425  N     
15   C        -4.5914    6.6549   12.9027  C     
16   N        -3.6962    7.5036   12.3310  N     
17   C        -4.1207    8.5922   11.6321  C     
18   N        -3.2468    9.4588   11.0756  N     
19   C        -1.8238    9.2969   11.0340  C     
20   C        -1.1283    9.2011   12.4301  C     
21   C         0.0255    8.1612   12.5252  C     
22   C        -0.4463    6.6999   12.7839  C     
23   O         0.5847    5.7674   12.4463  O     
24   Cl       -8.0101    8.2320   11.8736  Cl    
25   H        -6.6810    5.0932   14.2426  H     
26   H        -7.4139    3.3652   15.6913  H     
27   H        -3.4207    2.1797   16.3412  H     
28   H        -2.6676    3.9401   14.9008  H     
29   H        -8.3530    1.2512   17.0413  H     
30   H        -7.8415    1.8170   18.5457  H     
31   H        -3.0686    5.6535   13.6233  H     
32   H        -3.6170   10.2305   10.6097  H     
33   H        -1.6167    8.4088   10.4327  H     
34   H        -1.4089   10.1447   10.4871  H     
35   H        -0.7126   10.1882   12.6632  H     
36   H        -1.8585    8.9713   13.2120  H     
37   H         0.6115    8.2043   11.6027  H     
38   H         0.6908    8.4562   13.3460  H     
39   H        -0.7013    6.5723   13.8411  H     
40   H        -1.3420    6.4629   12.1949  H     
41   H         0.7597    5.2519   13.2636  H     
@<TRIPOS>BOND
     1    1    2 2
     2    2    3 2
     3    2    7 1
     4    2   10 am
     5    4    5 2
     6    4    9 1
     7    4   11 1
     8    5    6 1
     9    6    7 2
    10    7    8 1
    11    8    9 2
    12   11   15 1
    13   12   13 2
    14   12   17 1
    15   13   14 1
    16   13   24 1
    17   14   15 2
    18   15   16 1
    19   16   17 2
    20   17   18 1
    21   18   19 1
    22   19   20 1
    23   20   21 1
    24   21   22 1
    25   22   23 1
    26    5   25 1
    27    6   26 1
    28    8   27 1
    29    9   28 1
    30   10   29 1
    31   10   30 1
    32   11   31 1
    33   18   32 1
    34   19   33 1
    35   19   34 1
    36   20   35 1
    37   20   36 1
    38   21   37 1
    39   21   38 1
    40   22   39 1
    41   22   40 1
    42   23   41 1
@<TRIPOS>PROPERTY_DATA
  Total_Score	| 6.1785
  Crash		| -1.5971
  Polar		| 4.4461
  FragIndex	| 1
  FragRMSD	| 0.966

