@<TRIPOS>MOLECULE
BindingDB_19646
 77 79 0 0 0
SMALL
NO_CHARGES


@<TRIPOS>ATOM
1    C        -5.2363    3.4154   16.6382  C     
2    C        -3.9695    3.7469   17.4663  C     
3    C        -2.6721    3.9508   15.4329  C     
4    C        -3.9483    3.7125   14.5899  C     
5    N        -4.8226    2.8369   15.3604  N     
6    O        -3.0324    4.5380   16.7052  O     
7    C        -5.1213    1.5710   15.0159  C     
8    O        -5.8527    0.8971   15.7388  O     
9    C        -4.6034    0.8514   13.8461  C     
10   C        -6.6938    0.5832   12.3679  C     
11   O        -7.0046   -0.4139   12.9998  O     
12   N        -7.5109    1.0452   11.4254  N     
13   C        -8.6461    0.3815   10.8340  C     
14   C        -9.3190    1.3905    9.8426  C     
15   N        -9.6764    2.6074   10.4989  N     
16   C       -10.5331    3.5609   10.0534  C     
17   C       -11.5097    5.0239    8.3566  C     
18   C       -10.5469    4.0666    8.7401  C     
19   C       -11.5003    4.0212   10.9814  C     
20   C       -12.4824    4.9477   10.5828  C     
21   C       -12.4805    5.4697    9.2747  C     
22   C        -5.3580    1.1792   12.5184  C     
23   O       -13.4684    6.3307    8.8841  O     
24   C       -13.0374    7.5219    8.1979  C     
25   F       -14.1601    8.2875    7.9732  F     
26   F       -12.1585    8.2785    8.9421  F     
27   F       -12.4767    7.2566    6.9720  F     
28   C        -4.4529    0.8686   11.2768  C     
29   C        -3.6493   -0.4823   11.2436  C     
30   C        -5.5460   -2.2132   10.9559  C     
31   C        -4.3748   -1.7309   11.8516  C     
32   C        -3.1486   -0.8131    9.8021  C     
33   C        -4.2660   -1.3577    8.8804  C     
34   C        -5.0559   -2.5308    9.5222  C     
35   C        -9.6893   -0.2938   11.8219  C     
36   C        -9.4788   -1.8283   11.9874  C     
37   C        -9.8213    0.3863   13.2206  C     
38   H        -5.8776    2.7592   17.2332  H     
39   H        -5.7942    4.3308   16.4533  H     
40   H        -4.2581    4.3031   18.3575  H     
41   H        -3.4859    2.8152   17.7921  H     
42   H        -2.1390    3.0107   15.5899  H     
43   H        -2.0040    4.6259   14.8968  H     
44   H        -4.4542    4.6684   14.4174  H     
45   H        -3.6634    3.3482   13.6046  H     
46   H        -3.5418    1.0557   13.7238  H     
47   H        -4.6151   -0.2312   14.0073  H     
48   H        -7.2242    1.8649   10.9882  H     
49   H        -8.2311   -0.3973   10.1861  H     
50   H        -8.6543    1.6131    9.0006  H     
51   H       -10.2192    0.9237    9.4373  H     
52   H        -9.3839    2.6997   11.4146  H     
53   H       -11.5054    5.3772    7.3969  H     
54   H        -9.8548    3.7604    8.0512  H     
55   H       -11.5221    3.6588   11.9393  H     
56   H       -13.2012    5.2438   11.2539  H     
57   H        -5.5267    2.2640   12.5277  H     
58   H        -5.0568    0.9504   10.3719  H     
59   H        -3.7158    1.6712   11.2103  H     
60   H        -2.7420   -0.3211   11.8368  H     
61   H        -5.9978   -3.1144   11.3920  H     
62   H        -6.3277   -1.4526   10.8992  H     
63   H        -3.6535   -2.5498   11.9451  H     
64   H        -4.7513   -1.5390   12.8700  H     
65   H        -2.7222    0.0805    9.3368  H     
66   H        -2.3478   -1.5573    9.8630  H     
67   H        -4.9666   -0.5550    8.6352  H     
68   H        -3.8159   -1.6933    7.9473  H     
69   H        -4.4225   -3.4251    9.5632  H     
70   H        -5.9325   -2.7576    8.9051  H     
71   H       -10.6858   -0.2089   11.3725  H     
72   H        -9.5008   -2.3146   11.0077  H     
73   H       -10.2752   -2.2587   12.5945  H     
74   H        -8.5285   -2.0535   12.4614  H     
75   H        -8.9683    0.1626   13.8626  H     
76   H       -10.7167    0.0227   13.7336  H     
77   H        -9.9038    1.4732   13.1307  H     
@<TRIPOS>BOND
     1    1    2 1
     2    1    5 1
     3    2    6 1
     4    3    4 1
     5    3    6 1
     6    4    5 1
     7    5    7 am
     8    7    8 2
     9    7    9 1
    10    9   22 1
    11   10   11 2
    12   10   12 am
    13   10   22 1
    14   12   13 1
    15   13   14 1
    16   13   35 1
    17   14   15 1
    18   15   16 1
    19   16   18 2
    20   16   19 1
    21   17   18 1
    22   17   21 2
    23   19   20 2
    24   20   21 1
    25   21   23 1
    26   22   28 1
    27   23   24 1
    28   24   25 1
    29   24   26 1
    30   24   27 1
    31   28   29 1
    32   29   31 1
    33   29   32 1
    34   30   31 1
    35   30   34 1
    36   32   33 1
    37   33   34 1
    38   35   36 1
    39   35   37 1
    40    1   38 1
    41    1   39 1
    42    2   40 1
    43    2   41 1
    44    3   42 1
    45    3   43 1
    46    4   44 1
    47    4   45 1
    48    9   46 1
    49    9   47 1
    50   12   48 1
    51   13   49 1
    52   14   50 1
    53   14   51 1
    54   15   52 1
    55   17   53 1
    56   18   54 1
    57   19   55 1
    58   20   56 1
    59   22   57 1
    60   28   58 1
    61   28   59 1
    62   29   60 1
    63   30   61 1
    64   30   62 1
    65   31   63 1
    66   31   64 1
    67   32   65 1
    68   32   66 1
    69   33   67 1
    70   33   68 1
    71   34   69 1
    72   34   70 1
    73   35   71 1
    74   36   72 1
    75   36   73 1
    76   36   74 1
    77   37   75 1
    78   37   76 1
    79   37   77 1
@<TRIPOS>PROPERTY_DATA
  Total_Score	| 4.9356
  Crash		| -2.8310
  Polar		| 0.0002
  FragIndex	| 1
  FragRMSD	| 1.197

