@<TRIPOS>MOLECULE
BindingDB_19643
 71 73 0 0 0
SMALL
NO_CHARGES


@<TRIPOS>ATOM
1    C        -4.0732   -2.0945    9.7150  C     
2    C        -4.8808   -3.3398   10.1808  C     
3    C        -6.8170   -1.9729   10.5134  C     
4    C        -6.0549   -0.7108   10.0383  C     
5    N        -4.6388   -0.8991   10.3229  N     
6    O        -6.2816   -3.1716    9.9121  O     
7    C        -3.9025   -0.0905   11.1164  C     
8    O        -2.7552   -0.4294   11.4195  O     
9    C        -4.2610    1.2250   11.6423  C     
10   C        -6.2062    0.8416   13.1600  C     
11   O        -6.5341   -0.1049   13.8621  O     
12   N        -7.0880    1.4656   12.3916  N     
13   C        -8.4773    1.1336   12.1958  C     
14   C        -8.9507    1.7259   10.8385  C     
15   N        -9.1153    3.1434   10.9185  N     
16   C       -10.1356    3.8625   10.4010  C     
17   C       -11.4322    4.8856    8.5772  C     
18   C       -10.2949    4.1765    9.0310  C     
19   C       -11.1379    4.2899   11.3166  C     
20   C       -12.2832    4.9763   10.8719  C     
21   C       -12.4526    5.2496    9.4926  C     
22   C        -4.7926    1.2326   13.1163  C     
23   O       -13.5288    5.9215    8.9373  O     
24   C       -14.5822    6.5172    9.7279  C     
25   F       -15.6206    6.8846    8.8949  F     
26   F       -15.0893    5.6427   10.6657  F     
27   F       -14.1434    7.6645   10.3423  F     
28   C        -4.5258    2.6087   13.8396  C     
29   C        -3.5422    2.5334   15.0547  C     
30   C        -1.9041    3.8485   16.5476  C     
31   C        -2.8524    3.9084   15.3232  C     
32   C        -4.2669    2.0156   16.3380  C     
33   C        -3.3313    1.9767   17.5717  C     
34   C        -2.6440    3.3470   17.8150  C     
35   C        -9.3916    1.5793   13.3807  C     
36   H        -3.0114   -2.2585    9.9427  H     
37   H        -4.1470   -2.0095    8.6252  H     
38   H        -4.5530   -4.2246    9.6356  H     
39   H        -4.7071   -3.5092   11.2501  H     
40   H        -6.7757   -2.0671   11.6016  H     
41   H        -7.8586   -1.8798   10.2178  H     
42   H        -6.1877   -0.6001    8.9532  H     
43   H        -6.5086    0.1537   10.5291  H     
44   H        -3.3613    1.8517   11.6170  H     
45   H        -4.9669    1.7481   10.9935  H     
46   H        -6.7529    2.2207   11.8739  H     
47   H        -8.5541    0.0508   12.1019  H     
48   H        -8.2324    1.4982   10.0408  H     
49   H        -9.9015    1.2313   10.5735  H     
50   H        -8.5551    3.5947   11.5860  H     
51   H       -11.5221    5.1100    7.5827  H     
52   H        -9.5783    3.9103    8.3506  H     
53   H       -11.0169    4.1065   12.3159  H     
54   H       -13.0039    5.2525   11.5517  H     
55   H        -4.2260    0.4590   13.6458  H     
56   H        -4.1243    3.3149   13.1074  H     
57   H        -5.4560    3.0753   14.1877  H     
58   H        -2.7369    1.8270   14.8134  H     
59   H        -1.0702    3.1756   16.3260  H     
60   H        -1.4929    4.8439   16.7323  H     
61   H        -2.2645    4.1982   14.4471  H     
62   H        -3.6135    4.6777   15.4870  H     
63   H        -5.1168    2.6675   16.5717  H     
64   H        -4.6615    1.0102   16.1590  H     
65   H        -3.9100    1.7034   18.4582  H     
66   H        -2.5659    1.2085   17.4205  H     
67   H        -1.9284    3.2521   18.6357  H     
68   H        -3.3971    4.0850   18.1081  H     
69   H        -9.1453    1.0091   14.2857  H     
70   H       -10.4444    1.3887   13.1294  H     
71   H        -9.2531    2.6503   13.5886  H     
@<TRIPOS>BOND
     1    1    2 1
     2    1    5 1
     3    2    6 1
     4    3    4 1
     5    3    6 1
     6    4    5 1
     7    5    7 am
     8    7    8 2
     9    7    9 1
    10    9   22 1
    11   10   11 2
    12   10   12 am
    13   10   22 1
    14   12   13 1
    15   13   14 1
    16   13   35 1
    17   14   15 1
    18   15   16 1
    19   16   18 2
    20   16   19 1
    21   17   18 1
    22   17   21 2
    23   19   20 2
    24   20   21 1
    25   21   23 1
    26   22   28 1
    27   23   24 1
    28   24   25 1
    29   24   26 1
    30   24   27 1
    31   28   29 1
    32   29   31 1
    33   29   32 1
    34   30   31 1
    35   30   34 1
    36   32   33 1
    37   33   34 1
    38    1   36 1
    39    1   37 1
    40    2   38 1
    41    2   39 1
    42    3   40 1
    43    3   41 1
    44    4   42 1
    45    4   43 1
    46    9   44 1
    47    9   45 1
    48   12   46 1
    49   13   47 1
    50   14   48 1
    51   14   49 1
    52   15   50 1
    53   17   51 1
    54   18   52 1
    55   19   53 1
    56   20   54 1
    57   22   55 1
    58   28   56 1
    59   28   57 1
    60   29   58 1
    61   30   59 1
    62   30   60 1
    63   31   61 1
    64   31   62 1
    65   32   63 1
    66   32   64 1
    67   33   65 1
    68   33   66 1
    69   34   67 1
    70   34   68 1
    71   35   69 1
    72   35   70 1
    73   35   71 1
@<TRIPOS>PROPERTY_DATA
  Total_Score	| 3.9453
  Crash		| -2.1213
  Polar		| 0.0225
  FragIndex	| 1
  FragRMSD	| 0.437

