@<TRIPOS>MOLECULE
BindingDB_19640
 64 66 0 0 0
SMALL
NO_CHARGES


@<TRIPOS>ATOM
1    C        -9.1590    0.6710   12.3992  C     
2    C       -10.1922    1.2472   11.3937  C     
3    C        -8.5165    1.2550    9.6411  C     
4    C        -7.5231    1.5876   10.7922  C     
5    N        -7.7600    0.7857   11.9809  N     
6    O        -9.8290    0.8261   10.0729  O     
7    C        -6.7947    0.1743   12.7014  C     
8    O        -7.1193   -0.3530   13.7650  O     
9    C        -5.3763   -0.0713   12.3418  C     
10   C        -4.2692    2.0685   13.2824  C     
11   O        -4.6941    2.7074   12.3258  O     
12   N        -3.7082    2.6649   14.3184  N     
13   C        -3.6703    4.0698   14.5646  C     
14   C        -4.9563    4.6630   15.2265  C     
15   N        -6.1132    3.8196   15.2779  N     
16   C        -6.2585    2.6268   15.9183  C     
17   C        -5.4843    0.7870   17.3586  C     
18   C        -5.2752    2.0431   16.7589  C     
19   C        -7.4639    1.9141   15.7114  C     
20   C        -7.6782    0.6485   16.2960  C     
21   C        -6.6794    0.0839   17.1115  C     
22   F        -6.8617   -1.0998   17.6257  F     
23   C        -4.3856    0.6217   13.3530  C     
24   C        -5.0949   -1.6053   12.2166  C     
25   C        -4.0615   -2.1959   11.1761  C     
26   C        -4.7921   -2.9239    9.9949  C     
27   C        -5.3190   -1.9099    8.9437  C     
28   C        -4.1326   -1.1580    8.2949  C     
29   C        -3.3296   -0.3858    9.3738  C     
30   C        -2.9209   -1.2870   10.5812  C     
31   H        -9.3054    1.1678   13.3564  H     
32   H        -9.4082   -0.3864   12.5253  H     
33   H       -11.1928    0.8712   11.6141  H     
34   H       -10.2115    2.3381   11.4604  H     
35   H        -8.6235    2.1268    8.9879  H     
36   H        -8.1030    0.4485    9.0326  H     
37   H        -6.5247    1.5349   10.3741  H     
38   H        -7.6736    2.6349   11.0742  H     
39   H        -5.1724    0.3274   11.3727  H     
40   H        -3.3610    2.0901   15.0185  H     
41   H        -2.8406    4.2356   15.2447  H     
42   H        -3.4251    4.5835   13.6366  H     
43   H        -4.7280    4.9986   16.2395  H     
44   H        -5.2381    5.5645   14.6746  H     
45   H        -6.8895    4.1480   14.7890  H     
46   H        -4.7532    0.3705   17.9462  H     
47   H        -4.3904    2.5211   16.9433  H     
48   H        -8.1903    2.3061   15.1099  H     
49   H        -8.5555    0.1493   16.1183  H     
50   H        -4.7010    0.3482   14.3678  H     
51   H        -3.3824    0.2274   13.2183  H     
52   H        -4.8021   -1.9467   13.2126  H     
53   H        -6.0524   -2.0956   12.0374  H     
54   H        -3.5317   -2.9918   11.7206  H     
55   H        -4.0917   -3.6123    9.5193  H     
56   H        -5.6269   -3.5347   10.3548  H     
57   H        -5.8625   -2.4542    8.1747  H     
58   H        -6.0135   -1.1978    9.3995  H     
59   H        -3.4754   -1.8663    7.7838  H     
60   H        -4.5204   -0.4556    7.5583  H     
61   H        -2.4239    0.0225    8.9277  H     
62   H        -3.9039    0.4746    9.6968  H     
63   H        -2.4914   -0.6565   11.3615  H     
64   H        -2.1147   -1.9445   10.2261  H     
@<TRIPOS>BOND
     1    1    2 1
     2    1    5 1
     3    2    6 1
     4    3    4 1
     5    3    6 1
     6    4    5 1
     7    5    7 am
     8    7    8 2
     9    7    9 1
    10    9   23 1
    11    9   24 1
    12   10   11 2
    13   10   12 am
    14   10   23 1
    15   12   13 1
    16   13   14 1
    17   14   15 1
    18   15   16 1
    19   16   18 2
    20   16   19 1
    21   17   18 1
    22   17   21 2
    23   19   20 2
    24   20   21 1
    25   21   22 1
    26   24   25 1
    27   25   26 1
    28   25   30 1
    29   26   27 1
    30   27   28 1
    31   28   29 1
    32   29   30 1
    33    1   31 1
    34    1   32 1
    35    2   33 1
    36    2   34 1
    37    3   35 1
    38    3   36 1
    39    4   37 1
    40    4   38 1
    41    9   39 1
    42   12   40 1
    43   13   41 1
    44   13   42 1
    45   14   43 1
    46   14   44 1
    47   15   45 1
    48   17   46 1
    49   18   47 1
    50   19   48 1
    51   20   49 1
    52   23   50 1
    53   23   51 1
    54   24   52 1
    55   24   53 1
    56   25   54 1
    57   26   55 1
    58   26   56 1
    59   27   57 1
    60   27   58 1
    61   28   59 1
    62   28   60 1
    63   29   61 1
    64   29   62 1
    65   30   63 1
    66   30   64 1
@<TRIPOS>PROPERTY_DATA
  Total_Score	| 5.2056
  Crash		| -4.5461
  Polar		| 1.4067
  FragIndex	| 1
  FragRMSD	| 0.861

