@<TRIPOS>MOLECULE
BindingDB_50390404
 56 59 0 0 0
SMALL
NO_CHARGES


@<TRIPOS>ATOM
1    C        -4.6445    3.4355   15.9893  C     
2    C        -3.8071    3.2652   14.7009  C     
3    C        -5.0996    4.1132   14.6895  C     
4    C        -9.3730    2.3916   12.2809  C     
5    C        -9.1492    0.8755   12.5570  C     
6    N        -8.0271    0.4277   11.7471  N     
7    C        -8.2702    0.5773   10.3188  C     
8    C        -8.4954    2.0867   10.0182  C     
9    N        -9.5712    2.6354   10.8427  N     
10   C        -6.8378    0.0659   12.3013  C     
11   C        -5.5592   -0.1147   11.5935  C     
12   O        -6.8127   -0.1902   13.5054  O     
13   C        -5.4686   -1.5790   11.0602  C     
14   C        -4.1754   -1.8258   10.2488  C     
15   C        -2.9126   -1.4723   11.0756  C     
16   C        -2.9661   -0.0214   11.6235  C     
17   C        -4.2720    0.2709   12.4265  C     
18   C        -4.2596    1.6662   12.8947  C     
19   N        -3.8672    1.9565   14.1286  N     
20   O        -4.5879    2.5571   12.1136  O     
21   C        -2.6035    3.9179   14.7298  C     
22   N        -1.5853    4.4641   14.7339  N     
23   C       -10.5912    3.4314   10.3485  C     
24   C       -10.4106    4.2913    9.2187  C     
25   C       -11.4298    5.1372    8.7399  C     
26   C       -12.6719    5.1782    9.3903  C     
27   C       -12.8972    4.3455   10.5011  C     
28   C       -11.8857    3.4771   10.9496  C     
29   F       -13.6115    5.9949    8.9740  F     
30   H        -5.2662    2.5922   16.2998  H     
31   H        -4.3073    4.1380   16.7549  H     
32   H        -5.9861    3.6639   14.2395  H     
33   H        -4.9905    5.1993   14.6793  H     
34   H       -10.1674    2.7413   12.9379  H     
35   H        -8.4658    2.9260   12.5970  H     
36   H        -9.0037    0.7461   13.6403  H     
37   H       -10.0534    0.3084   12.2865  H     
38   H        -7.4745    0.2079    9.6756  H     
39   H        -9.1706    0.0078   10.0499  H     
40   H        -7.5627    2.6197   10.2415  H     
41   H        -8.6707    2.1470    8.9421  H     
42   H        -5.5320    0.5470   10.7262  H     
43   H        -5.4880   -2.2716   11.9053  H     
44   H        -6.3251   -1.8066   10.4178  H     
45   H        -4.1256   -2.8770    9.9517  H     
46   H        -4.1964   -1.2199    9.3381  H     
47   H        -2.8217   -2.1781   11.9106  H     
48   H        -2.0220   -1.5845   10.4470  H     
49   H        -2.1001    0.1230   12.2767  H     
50   H        -2.8768    0.6777   10.7843  H     
51   H        -4.2467   -0.3911   13.3028  H     
52   H        -3.5467    1.2231   14.6834  H     
53   H        -9.5172    4.3825    8.7406  H     
54   H       -11.2406    5.7547    7.9423  H     
55   H       -13.8102    4.3459   10.9685  H     
56   H       -12.1532    2.8549   11.7095  H     
@<TRIPOS>BOND
     1    1    2 1
     2    1    3 1
     3    2    3 1
     4    2   19 1
     5    2   21 1
     6    4    5 1
     7    4    9 1
     8    5    6 1
     9    6    7 1
    10    6   10 am
    11    7    8 1
    12    8    9 1
    13    9   23 1
    14   11   10 1
    15   10   12 2
    16   11   13 1
    17   11   17 1
    18   13   14 1
    19   14   15 1
    20   15   16 1
    21   16   17 1
    22   17   18 1
    23   18   19 am
    24   18   20 2
    25   21   22 3
    26   23   24 2
    27   23   28 1
    28   24   25 1
    29   25   26 2
    30   26   27 1
    31   26   29 1
    32   27   28 2
    33    1   30 1
    34    1   31 1
    35    3   32 1
    36    3   33 1
    37    4   34 1
    38    4   35 1
    39    5   36 1
    40    5   37 1
    41    7   38 1
    42    7   39 1
    43    8   40 1
    44    8   41 1
    45   11   42 1
    46   13   43 1
    47   13   44 1
    48   14   45 1
    49   14   46 1
    50   15   47 1
    51   15   48 1
    52   16   49 1
    53   16   50 1
    54   17   51 1
    55   19   52 1
    56   24   53 1
    57   25   54 1
    58   27   55 1
    59   28   56 1
@<TRIPOS>PROPERTY_DATA
  Total_Score	| 7.2944
  Crash		| -1.9748
  Polar		| 3.3703
  FragIndex	| 1
  FragRMSD	| 0.663

