@<TRIPOS>MOLECULE
BindingDB_19651
 68 70 0 0 0
SMALL
NO_CHARGES


@<TRIPOS>ATOM
1    C        -5.4401    4.7199   15.4857  C     
2    C        -5.4202    2.6618   16.7652  C     
3    C        -4.2104    2.1522   15.9374  C     
4    C        -4.2109    4.2294   14.6636  C     
5    O        -5.4618    4.0980   16.7966  O     
6    N        -4.2633    2.7708   14.6112  N     
7    C        -4.4412    2.1066   13.4500  C     
8    O        -4.4905    2.7353   12.3894  O     
9    C        -4.5062    0.6500   13.3605  C     
10   C        -6.6339    0.3677   12.0785  C     
11   O        -7.3230    0.1365   13.0696  O     
12   N        -7.1457    0.9690   11.0054  N     
13   C        -8.5109    1.3758   10.7702  C     
14   C        -9.4160    0.1567   10.4667  C     
15   C        -9.1224    2.2896   11.8938  C     
16   N        -9.1399    3.6959   11.5854  N     
17   C       -10.1866    4.2240   10.9063  C     
18   C       -10.1133    4.4118    9.5126  C     
19   C       -11.3714    4.5971   11.5878  C     
20   C       -12.4712    5.1171   10.8721  C     
21   C       -12.3830    5.3109    9.4700  C     
22   C       -11.1923    4.9659    8.8043  C     
23   O       -13.4394    5.8041    8.7577  O     
24   C       -13.4580    7.2425    8.6107  C     
25   F       -14.4293    7.5527    7.6860  F     
26   F       -13.8019    7.8627    9.7973  F     
27   F       -12.2648    7.7724    8.1442  F     
28   C        -5.2009    0.0198   12.1075  C     
29   C        -4.9416   -1.5362   12.0405  C     
30   C        -4.1356   -2.0570   10.8066  C     
31   C        -4.9324   -2.0169    9.4734  C     
32   C        -2.8033   -1.3009   10.5634  C     
33   C        -2.9827   -0.5267    9.2404  C     
34   C        -4.0251   -1.3195    8.4372  C     
35   H        -5.3873    5.8134   15.6147  H     
36   H        -6.3699    4.4835   14.9415  H     
37   H        -6.3477    2.2704   16.3466  H     
38   H        -5.3253    2.3060   17.7844  H     
39   H        -3.2732    2.4447   16.4396  H     
40   H        -4.2362    1.0615   15.9169  H     
41   H        -4.2365    4.7330   13.6880  H     
42   H        -3.2911    4.5625   15.1695  H     
43   H        -3.4644    0.3159   13.3791  H     
44   H        -5.0217    0.2461   14.2400  H     
45   H        -6.5353    1.1271   10.2456  H     
46   H        -8.4787    1.9546    9.8409  H     
47   H        -8.8990   -0.5502    9.8036  H     
48   H       -10.3370    0.4788    9.9719  H     
49   H        -9.6911   -0.3791   11.3876  H     
50   H       -10.1523    1.9448   12.1497  H     
51   H        -8.5439    2.1736   12.8049  H     
52   H        -8.8204    4.2378   12.3278  H     
53   H        -9.2479    4.1965    9.0068  H     
54   H       -11.4524    4.4624   12.5985  H     
55   H       -13.3484    5.3311   11.3683  H     
56   H       -11.1234    5.1079    7.7907  H     
57   H        -4.7148    0.4644   11.2323  H     
58   H        -4.3724   -1.8716   12.9130  H     
59   H        -5.8866   -2.0913   12.0750  H     
60   H        -3.8837   -3.1059   11.0198  H     
61   H        -5.1782   -3.0347    9.1410  H     
62   H        -5.8752   -1.4662    9.5721  H     
63   H        -2.5407   -0.6083   11.3768  H     
64   H        -1.9687   -2.0107   10.4536  H     
65   H        -3.3488    0.4862    9.4374  H     
66   H        -2.0407   -0.4592    8.6957  H     
67   H        -3.5213   -2.0666    7.8167  H     
68   H        -4.6154   -0.6562    7.7944  H     
@<TRIPOS>BOND
     1    1    4 1
     2    1    5 1
     3    2    3 1
     4    2    5 1
     5    3    6 1
     6    4    6 1
     7    6    7 am
     8    7    8 2
     9    7    9 1
    10    9   28 1
    11   10   11 2
    12   10   12 am
    13   10   28 1
    14   12   13 1
    15   13   14 1
    16   13   15 1
    17   15   16 1
    18   16   17 1
    19   17   18 2
    20   17   19 1
    21   18   22 1
    22   19   20 2
    23   20   21 1
    24   21   22 2
    25   21   23 1
    26   23   24 1
    27   24   25 1
    28   24   26 1
    29   24   27 1
    30   28   29 1
    31   29   30 1
    32   30   31 1
    33   30   32 1
    34   31   34 1
    35   32   33 1
    36   33   34 1
    37    1   35 1
    38    1   36 1
    39    2   37 1
    40    2   38 1
    41    3   39 1
    42    3   40 1
    43    4   41 1
    44    4   42 1
    45    9   43 1
    46    9   44 1
    47   12   45 1
    48   13   46 1
    49   14   47 1
    50   14   48 1
    51   14   49 1
    52   15   50 1
    53   15   51 1
    54   16   52 1
    55   18   53 1
    56   19   54 1
    57   20   55 1
    58   22   56 1
    59   28   57 1
    60   29   58 1
    61   29   59 1
    62   30   60 1
    63   31   61 1
    64   31   62 1
    65   32   63 1
    66   32   64 1
    67   33   65 1
    68   33   66 1
    69   34   67 1
    70   34   68 1
@<TRIPOS>PROPERTY_DATA
  Total_Score	| 4.8193
  Crash		| -4.4908
  Polar		| 1.5428
  FragIndex	| 1
  FragRMSD	| 0.970

