@<TRIPOS>MOLECULE
BindingDB_19639
 64 66 0 0 0
SMALL
NO_CHARGES


@<TRIPOS>ATOM
1    C        -4.8030    3.7451   14.5435  C     
2    C        -4.2740    4.2256   15.9165  C     
3    C        -4.3638    2.0156   16.8068  C     
4    C        -4.9536    1.4591   15.4901  C     
5    N        -4.6791    2.3000   14.3362  N     
6    O        -4.7424    3.3892   16.9897  O     
7    C        -4.6202    1.7975   13.0809  C     
8    O        -4.5540    2.5849   12.1308  O     
9    C        -4.5943    0.3777   12.6862  C     
10   C        -7.1402    0.5883   12.3170  C     
11   O        -7.0137    1.7960   12.1952  O     
12   N        -8.3462    0.0225   12.2688  N     
13   C        -9.5934    0.6199   11.8811  C     
14   C        -9.8780    2.0666   12.3680  C     
15   N        -9.7461    2.9786   11.2749  N     
16   C       -10.6627    3.7971   10.6910  C     
17   C       -11.3692    4.9293    8.6238  C     
18   C       -10.4685    4.1002    9.3223  C     
19   C       -11.7821    4.3657   11.3500  C     
20   C       -12.6716    5.2074   10.6550  C     
21   C       -12.4653    5.4922    9.2957  C     
22   F       -13.2869    6.2794    8.6585  F     
23   C        -5.9490   -0.2465   12.0860  C     
24   C        -6.0642   -0.6682   10.5491  C     
25   C        -5.2323   -1.7846    9.7972  C     
26   C        -3.0899   -0.4803    9.6779  C     
27   C        -4.1246   -1.2470    8.8532  C     
28   C        -4.6118   -2.8915   10.6833  C     
29   C        -3.4466   -2.3815   11.5571  C     
30   C        -2.5122   -1.3261   10.8658  C     
31   H        -5.8585    4.0108   14.4516  H     
32   H        -4.2456    4.3122   13.7925  H     
33   H        -3.1757    4.2483   15.9126  H     
34   H        -4.6280    5.2416   16.1069  H     
35   H        -4.7543    1.4445   17.6503  H     
36   H        -3.2761    1.9221   16.8138  H     
37   H        -4.5708    0.4468   15.3735  H     
38   H        -6.0353    1.3963   15.6177  H     
39   H        -3.7521    0.2437   12.0044  H     
40   H        -4.2504   -0.1731   13.5739  H     
41   H        -8.3655   -0.9471   12.3295  H     
42   H        -9.6542    0.5754   10.7858  H     
43   H       -10.3898   -0.0367   12.2615  H     
44   H       -10.8613    2.1012   12.8307  H     
45   H        -9.1601    2.3550   13.1298  H     
46   H        -8.8682    2.9921   10.8602  H     
47   H       -11.2110    5.1393    7.6390  H     
48   H        -9.6591    3.7242    8.8240  H     
49   H       -11.9708    4.1838   12.3327  H     
50   H       -13.4667    5.6185   11.1468  H     
51   H        -6.1299   -1.1632   12.6509  H     
52   H        -7.0957   -1.0203   10.3951  H     
53   H        -6.0041    0.2465    9.9532  H     
54   H        -5.9244   -2.3074    9.1245  H     
55   H        -2.2684   -0.1685    9.0327  H     
56   H        -3.6248    0.4214    9.9906  H     
57   H        -3.6296   -2.0725    8.3395  H     
58   H        -4.5577   -0.5960    8.0884  H     
59   H        -5.3938   -3.3348   11.3009  H     
60   H        -4.2335   -3.6884   10.0327  H     
61   H        -3.8938   -2.0058   12.4779  H     
62   H        -2.8448   -3.2392   11.8602  H     
63   H        -1.6322   -1.8537   10.4922  H     
64   H        -2.1375   -0.6427   11.6294  H     
@<TRIPOS>BOND
     1    1    2 1
     2    1    5 1
     3    2    6 1
     4    3    4 1
     5    3    6 1
     6    4    5 1
     7    5    7 am
     8    7    8 2
     9    7    9 1
    10    9   23 1
    11   10   11 2
    12   10   12 am
    13   10   23 1
    14   12   13 1
    15   13   14 1
    16   14   15 1
    17   15   16 1
    18   16   18 2
    19   16   19 1
    20   17   18 1
    21   17   21 2
    22   19   20 2
    23   20   21 1
    24   21   22 1
    25   23   24 1
    26   24   25 1
    27   25   27 1
    28   25   28 1
    29   26   27 1
    30   26   30 1
    31   28   29 1
    32   29   30 1
    33    1   31 1
    34    1   32 1
    35    2   33 1
    36    2   34 1
    37    3   35 1
    38    3   36 1
    39    4   37 1
    40    4   38 1
    41    9   39 1
    42    9   40 1
    43   12   41 1
    44   13   42 1
    45   13   43 1
    46   14   44 1
    47   14   45 1
    48   15   46 1
    49   17   47 1
    50   18   48 1
    51   19   49 1
    52   20   50 1
    53   23   51 1
    54   24   52 1
    55   24   53 1
    56   25   54 1
    57   26   55 1
    58   26   56 1
    59   27   57 1
    60   27   58 1
    61   28   59 1
    62   28   60 1
    63   29   61 1
    64   29   62 1
    65   30   63 1
    66   30   64 1
@<TRIPOS>PROPERTY_DATA
  Total_Score	| 3.5195
  Crash		| -4.0882
  Polar		| 0.9095
  FragIndex	| 1
  FragRMSD	| 1.035

