@<TRIPOS>MOLECULE
BindingDB_19658
 70 71 0 0 0
SMALL
NO_CHARGES


@<TRIPOS>ATOM
1    C        -4.3455    3.1283   16.7680  C     
2    C        -2.5400    3.9640   15.4060  C     
3    C        -3.5493    4.2824   14.2652  C     
4    C        -5.3685    3.4051   15.6292  C     
5    O        -3.2121    4.0205   16.6867  O     
6    N        -4.6647    3.3458   14.3492  N     
7    C        -5.0201    2.5160   13.3462  C     
8    O        -4.5297    2.6888   12.2299  O     
9    C        -6.0799    1.5062   13.4074  C     
10   C        -7.4847   -0.1016   12.1699  C     
11   O        -7.8923   -0.9938   12.9005  O     
12   N        -8.2940    0.5182   11.3228  N     
13   C        -9.5928    0.1238   10.8681  C     
14   C       -10.1438    1.2632    9.9595  C     
15   N       -10.3353    2.4910   10.6810  N     
16   C       -10.9886    3.5701   10.1890  C     
17   C       -12.0614    4.0912   10.9771  C     
18   C       -10.7448    4.1333    8.9228  C     
19   C       -11.5604    5.1503    8.4254  C     
20   C       -12.6734    5.6125    9.1641  C     
21   C       -12.9139    5.0712   10.4541  C     
22   O       -13.5768    6.4920    8.6290  O     
23   C       -13.0977    7.7332    8.0740  C     
24   F       -14.1738    8.5744    7.9194  F     
25   F       -12.1781    8.3587    8.8801  F     
26   F       -12.5578    7.5294    6.8266  F     
27   C        -6.1120    0.3919   12.3002  C     
28   C        -5.0221   -0.7277   12.5402  C     
29   C        -3.8992   -0.8393   11.4689  C     
30   C       -10.6070   -0.2576   11.9967  C     
31   C        -4.1451   -1.7180   10.1906  C     
32   C        -4.3608   -3.2133   10.5839  C     
33   C        -5.3761   -1.2604    9.3437  C     
34   C        -2.8699   -1.5912    9.2906  C     
35   H        -4.8264    3.2919   17.7391  H     
36   H        -4.0068    2.0840   16.7256  H     
37   H        -2.0810    2.9779   15.2422  H     
38   H        -1.7499    4.7186   15.3851  H     
39   H        -3.9436    5.2927   14.3985  H     
40   H        -3.0137    4.2644   13.3125  H     
41   H        -6.2012    2.7074   15.7406  H     
42   H        -5.7855    4.4122   15.7662  H     
43   H        -6.0303    1.0062   14.3689  H     
44   H        -7.0089    2.0803   13.3918  H     
45   H        -7.9280    1.3135   10.8878  H     
46   H        -9.4639   -0.7624   10.2296  H     
47   H        -9.4593    1.4329    9.1311  H     
48   H       -11.1063    0.9653    9.5451  H     
49   H       -10.2008    2.4533   11.6491  H     
50   H       -12.2735    3.6859   11.8936  H     
51   H        -9.9724    3.7832    8.3377  H     
52   H       -11.3761    5.5255    7.4812  H     
53   H       -13.7402    5.3847   10.9757  H     
54   H        -5.8861    0.8948   11.3522  H     
55   H        -4.5104   -0.5315   13.4916  H     
56   H        -5.4680   -1.7132   12.6954  H     
57   H        -3.6224    0.1746   11.1684  H     
58   H        -3.0266   -1.2504   11.9931  H     
59   H       -10.3249   -1.2033   12.4620  H     
60   H       -11.6169   -0.3688   11.5870  H     
61   H       -10.6124    0.5151   12.7692  H     
62   H        -3.6205   -3.5250   11.3271  H     
63   H        -4.2821   -3.8719    9.7167  H     
64   H        -5.3514   -3.3685   11.0167  H     
65   H        -6.3083   -1.4187    9.8882  H     
66   H        -5.4433   -1.8339    8.4140  H     
67   H        -5.3074   -0.2049    9.0803  H     
68   H        -2.7219   -0.5520    8.9793  H     
69   H        -2.9488   -2.1977    8.3830  H     
70   H        -1.9715   -1.9049    9.8336  H     
@<TRIPOS>BOND
     1    1    4 1
     2    1    5 1
     3    2    3 1
     4    2    5 1
     5    3    6 1
     6    4    6 1
     7    6    7 am
     8    7    8 2
     9    7    9 1
    10    9   27 1
    11   10   11 2
    12   10   12 am
    13   10   27 1
    14   12   13 1
    15   13   14 1
    16   13   30 1
    17   14   15 1
    18   15   16 1
    19   16   17 2
    20   16   18 1
    21   17   21 1
    22   18   19 2
    23   19   20 1
    24   20   21 2
    25   20   22 1
    26   22   23 1
    27   23   24 1
    28   23   25 1
    29   23   26 1
    30   27   28 1
    31   28   29 1
    32   29   31 1
    33   31   32 1
    34   31   33 1
    35   31   34 1
    36    1   35 1
    37    1   36 1
    38    2   37 1
    39    2   38 1
    40    3   39 1
    41    3   40 1
    42    4   41 1
    43    4   42 1
    44    9   43 1
    45    9   44 1
    46   12   45 1
    47   13   46 1
    48   14   47 1
    49   14   48 1
    50   15   49 1
    51   17   50 1
    52   18   51 1
    53   19   52 1
    54   21   53 1
    55   27   54 1
    56   28   55 1
    57   28   56 1
    58   29   57 1
    59   29   58 1
    60   30   59 1
    61   30   60 1
    62   30   61 1
    63   32   62 1
    64   32   63 1
    65   32   64 1
    66   33   65 1
    67   33   66 1
    68   33   67 1
    69   34   68 1
    70   34   69 1
    71   34   70 1
@<TRIPOS>PROPERTY_DATA
  Total_Score	| 3.4744
  Crash		| -3.4396
  Polar		| 0.3272
  FragIndex	| 1
  FragRMSD	| 1.341

