@<TRIPOS>MOLECULE
BindingDB_19654
 74 76 0 0 0
SMALL
NO_CHARGES


@<TRIPOS>ATOM
1    C        -4.5317    2.2413   16.6264  C     
2    C        -2.8931    3.7497   15.6989  C     
3    C        -3.8013    4.0171   14.4689  C     
4    C        -5.4682    2.5313   15.4323  C     
5    O        -3.6661    3.3706   16.8534  O     
6    N        -4.6602    2.8584   14.2650  N     
7    C        -4.6325    2.1454   13.1145  C     
8    O        -4.0550    2.5981   12.1302  O     
9    C        -5.0984    0.7653   12.9154  C     
10   C        -7.6336    1.0506   12.6259  C     
11   O        -7.5991    1.6379   13.7042  O     
12   N        -8.8034    0.7737   12.0662  N     
13   C       -10.1189    1.0112   12.6012  C     
14   C       -10.4647    2.5209   12.6915  C     
15   N       -10.1426    3.1948   11.4667  N     
16   C       -10.9311    4.0107   10.7134  C     
17   C       -10.6091    4.1345    9.3457  C     
18   C       -12.0296    4.7514   11.2115  C     
19   C       -12.8129    5.5447   10.3555  C     
20   C       -12.4997    5.6507    8.9906  C     
21   C       -11.3810    4.9363    8.4883  C     
22   O       -13.3620    6.4234    8.2457  O     
23   C       -12.9713    7.7455    7.8141  C     
24   F       -12.1967    7.6876    6.6704  F     
25   F       -14.1280    8.4159    7.4995  F     
26   F       -12.3184    8.4785    8.7887  F     
27   C        -6.3872    0.5702   12.0161  C     
28   C       -10.3427    0.2665   13.9528  C     
29   C        -6.5371   -0.9478   11.6260  C     
30   C        -6.4761   -1.3648   10.1208  C     
31   C        -5.2043   -2.1188    9.5918  C     
32   C        -4.1647   -1.2195    8.8667  C     
33   C        -3.3162   -0.3911    9.8508  C     
34   C        -2.5618   -1.2831   10.8705  C     
35   C        -3.4162   -2.4060   11.5527  C     
36   C        -4.4838   -3.0627   10.6106  C     
37   H        -5.1242    2.0669   17.5292  H     
38   H        -3.9345    1.3457   16.4315  H     
39   H        -2.1721    2.9630   15.4649  H     
40   H        -2.3395    4.6476   15.9577  H     
41   H        -4.4144    4.9012   14.6567  H     
42   H        -3.1591    4.2517   13.6218  H     
43   H        -6.1595    1.6976   15.3213  H     
44   H        -6.0938    3.3931   15.6775  H     
45   H        -4.2542    0.2424   12.4541  H     
46   H        -5.2518    0.2368   13.8542  H     
47   H        -8.7758    0.3119   11.2135  H     
48   H       -10.8235    0.5628   11.8931  H     
49   H       -11.5193    2.5963   12.9414  H     
50   H        -9.9064    2.9958   13.5007  H     
51   H        -9.2359    3.0500   11.1392  H     
52   H        -9.8067    3.6361    8.9465  H     
53   H       -12.2796    4.7282   12.1986  H     
54   H       -13.6160    6.0519   10.7466  H     
55   H       -11.1425    5.0001    7.4996  H     
56   H        -6.2299    1.1563   11.1087  H     
57   H       -10.0438   -0.7803   13.8636  H     
58   H       -11.3986    0.2973   14.2319  H     
59   H        -9.7657    0.7253   14.7598  H     
60   H        -5.7482   -1.4833   12.1228  H     
61   H        -7.4581   -1.3431   12.0810  H     
62   H        -7.3299   -2.0197    9.9431  H     
63   H        -6.6500   -0.4875    9.4995  H     
64   H        -5.6081   -2.7657    8.8041  H     
65   H        -3.4937   -1.8428    8.2660  H     
66   H        -4.6685   -0.5434    8.1722  H     
67   H        -2.5939    0.1964    9.2804  H     
68   H        -3.9487    0.3188   10.3751  H     
69   H        -1.7114   -1.7374   10.3618  H     
70   H        -2.1650   -0.6347   11.6545  H     
71   H        -2.7340   -3.1895   11.9122  H     
72   H        -3.8917   -2.0310   12.4656  H     
73   H        -5.2449   -3.5612   11.2147  H     
74   H        -3.9827   -3.8496   10.0316  H     
@<TRIPOS>BOND
     1    1    4 1
     2    1    5 1
     3    2    3 1
     4    2    5 1
     5    3    6 1
     6    4    6 1
     7    6    7 am
     8    7    8 2
     9    7    9 1
    10    9   27 1
    11   10   11 2
    12   10   12 am
    13   10   27 1
    14   12   13 1
    15   13   14 1
    16   13   28 1
    17   14   15 1
    18   15   16 1
    19   16   17 2
    20   16   18 1
    21   17   21 1
    22   18   19 2
    23   19   20 1
    24   20   21 2
    25   20   22 1
    26   22   23 1
    27   23   24 1
    28   23   25 1
    29   23   26 1
    30   27   29 1
    31   29   30 1
    32   30   31 1
    33   31   32 1
    34   31   36 1
    35   32   33 1
    36   33   34 1
    37   34   35 1
    38   35   36 1
    39    1   37 1
    40    1   38 1
    41    2   39 1
    42    2   40 1
    43    3   41 1
    44    3   42 1
    45    4   43 1
    46    4   44 1
    47    9   45 1
    48    9   46 1
    49   12   47 1
    50   13   48 1
    51   14   49 1
    52   14   50 1
    53   15   51 1
    54   17   52 1
    55   18   53 1
    56   19   54 1
    57   21   55 1
    58   27   56 1
    59   28   57 1
    60   28   58 1
    61   28   59 1
    62   29   60 1
    63   29   61 1
    64   30   62 1
    65   30   63 1
    66   31   64 1
    67   32   65 1
    68   32   66 1
    69   33   67 1
    70   33   68 1
    71   34   69 1
    72   34   70 1
    73   35   71 1
    74   35   72 1
    75   36   73 1
    76   36   74 1
@<TRIPOS>PROPERTY_DATA
  Total_Score	| 4.9810
  Crash		| -3.1391
  Polar		| 0.0547
  FragIndex	| 1
  FragRMSD	| 1.346

