@<TRIPOS>MOLECULE
BindingDB_19641
 64 66 0 0 0
SMALL
NO_CHARGES


@<TRIPOS>ATOM
1    C        -9.3125    1.2195   12.3669  C     
2    C       -10.5706    1.0650   11.4583  C     
3    C        -9.1765    1.9845    9.7065  C     
4    C        -7.9634    1.2175   10.2848  C     
5    N        -8.0215    0.9807   11.7163  N     
6    O       -10.3755    1.2812   10.0484  O     
7    C        -6.9211    0.7290   12.4739  C     
8    O        -7.0703    0.8426   13.6914  O     
9    C        -5.5325    0.2945   12.1387  C     
10   C        -4.1997    2.0239   13.5933  C     
11   O        -4.5668    2.9284   12.8563  O     
12   N        -3.4895    2.2837   14.6830  N     
13   C        -3.1322    3.5762   15.1839  C     
14   C        -3.6683    3.8643   16.6132  C     
15   N        -3.9905    2.6841   17.3542  N     
16   C        -3.1756    1.6509   17.6922  C     
17   C        -2.9155   -0.4079   19.0043  C     
18   C        -3.6990    0.6808   18.5765  C     
19   C        -1.8436    1.4941   17.2337  C     
20   C        -1.0597    0.4055   17.6595  C     
21   C        -1.5896   -0.5392   18.5593  C     
22   F        -0.8567   -1.5395   18.9657  F     
23   C        -4.5293    0.6385   13.3062  C     
24   C        -4.9125    0.5532   10.7169  C     
25   C        -3.9728   -0.4784    9.9752  C     
26   C        -3.0766   -1.4506   10.8083  C     
27   C        -3.8468   -2.6415   11.4438  C     
28   C        -4.8540   -3.3117   10.4583  C     
29   C        -5.6505   -2.3688    9.5217  C     
30   C        -4.7241   -1.3083    8.8873  C     
31   H        -9.2951    2.2410   12.7603  H     
32   H        -9.4577    0.5435   13.2169  H     
33   H       -10.9591    0.0494   11.5585  H     
34   H       -11.3505    1.7486   11.8033  H     
35   H        -9.2089    3.0043   10.1005  H     
36   H        -9.1015    2.0398    8.6190  H     
37   H        -7.9125    0.2709    9.7462  H     
38   H        -7.0842    1.8047   10.0437  H     
39   H        -5.6377   -0.7901   12.1495  H     
40   H        -3.1926    1.5151   15.2018  H     
41   H        -2.0434    3.6249   15.2025  H     
42   H        -3.4796    4.3509   14.4953  H     
43   H        -2.9528    4.4744   17.1700  H     
44   H        -4.5845    4.4535   16.5268  H     
45   H        -4.9080    2.6276   17.6722  H     
46   H        -3.3082   -1.0933   19.6531  H     
47   H        -4.6597    0.7605   18.9214  H     
48   H        -1.4216    2.1766   16.6041  H     
49   H        -0.0970    0.3144   17.3291  H     
50   H        -4.9216    0.2043   14.2307  H     
51   H        -3.5826    0.1369   13.1322  H     
52   H        -5.7433    0.6799   10.0361  H     
53   H        -4.3914    1.5112   10.7446  H     
54   H        -3.2665    0.1406    9.4093  H     
55   H        -2.3227   -1.8779   10.1381  H     
56   H        -2.5189   -0.9015   11.5674  H     
57   H        -3.1223   -3.3916   11.7720  H     
58   H        -4.3508   -2.3213   12.3557  H     
59   H        -4.3088   -4.0118    9.8219  H     
60   H        -5.5754   -3.8825   11.0370  H     
61   H        -6.1184   -2.9589    8.7328  H     
62   H        -6.4640   -1.8840   10.0611  H     
63   H        -5.3121   -0.6549    8.2366  H     
64   H        -3.9906   -1.8082    8.2474  H     
@<TRIPOS>BOND
     1    1    2 1
     2    1    5 1
     3    2    6 1
     4    3    4 1
     5    3    6 1
     6    4    5 1
     7    5    7 am
     8    7    8 2
     9    7    9 1
    10    9   23 1
    11    9   24 1
    12   10   11 2
    13   10   12 am
    14   10   23 1
    15   12   13 1
    16   13   14 1
    17   14   15 1
    18   15   16 1
    19   16   18 2
    20   16   19 1
    21   17   18 1
    22   17   21 2
    23   19   20 2
    24   20   21 1
    25   21   22 1
    26   24   25 1
    27   25   26 1
    28   25   30 1
    29   26   27 1
    30   27   28 1
    31   28   29 1
    32   29   30 1
    33    1   31 1
    34    1   32 1
    35    2   33 1
    36    2   34 1
    37    3   35 1
    38    3   36 1
    39    4   37 1
    40    4   38 1
    41    9   39 1
    42   12   40 1
    43   13   41 1
    44   13   42 1
    45   14   43 1
    46   14   44 1
    47   15   45 1
    48   17   46 1
    49   18   47 1
    50   19   48 1
    51   20   49 1
    52   23   50 1
    53   23   51 1
    54   24   52 1
    55   24   53 1
    56   25   54 1
    57   26   55 1
    58   26   56 1
    59   27   57 1
    60   27   58 1
    61   28   59 1
    62   28   60 1
    63   29   61 1
    64   29   62 1
    65   30   63 1
    66   30   64 1
@<TRIPOS>PROPERTY_DATA
  Total_Score	| 5.3707
  Crash		| -3.5763
  Polar		| 1.0805
  FragIndex	| 1
  FragRMSD	| 1.027

