@<TRIPOS>MOLECULE
BindingDB_19855
 64 66 0 0 0
SMALL
NO_CHARGES


@<TRIPOS>ATOM
1    C       -12.8994    3.3023    9.4459  C     
2    C       -11.8663    2.6251   10.0897  C     
3    C       -10.5435    3.1438   10.1223  C     
4    C       -10.3404    4.4076    9.5097  C     
5    C       -11.3812    5.0996    8.8835  C     
6    C       -12.6929    4.5589    8.8140  C     
7    C       -13.7243    5.2011    8.1414  C     
8    O       -14.8428    4.6896    8.1132  O     
9    N       -13.5095    6.3661    7.5353  N     
10   C       -14.4275    7.2138    6.8190  C     
11   C       -15.6419   10.0317    6.8574  C     
12   C       -16.4892    8.8014    7.2582  C     
13   C       -15.6110    7.6293    7.7734  C     
14   C       -13.6241    8.5166    6.4625  C     
15   C       -14.5053    9.6518    5.8747  C     
16   C       -14.8578    6.5257    5.5803  C     
17   O       -16.0464    6.3847    5.3056  O     
18   N       -13.9403    6.0222    4.7533  N     
19   C       -14.1749    5.3708    3.5047  C     
20   C       -14.5287    6.2677    2.5303  C     
21   N       -14.8328    7.0297    1.7257  N     
22   C        -8.4874    1.8177    9.8854  C     
23   C        -8.3285    0.3319   10.3024  C     
24   C        -9.2157    0.8455   12.5404  C     
25   C        -9.3621    2.3354   12.1359  C     
26   N        -9.5098    2.4605   10.6943  N     
27   N        -8.1289    0.1524   11.7770  N     
28   C        -6.7272    0.4356   12.2517  C     
29   C        -5.8535   -0.8415   12.1397  C     
30   C        -4.3392   -0.6175   12.3543  C     
31   H       -13.8329    2.8771    9.4389  H     
32   H       -12.0657    1.7033   10.4881  H     
33   H        -9.4139    4.8480    9.5314  H     
34   H       -11.1667    6.0067    8.4498  H     
35   H       -12.6052    6.7029    7.5976  H     
36   H       -16.2810   10.7846    6.3893  H     
37   H       -15.2037   10.4794    7.7546  H     
38   H       -17.1932    9.1016    8.0426  H     
39   H       -17.0812    8.4823    6.3989  H     
40   H       -16.2761    6.7813    7.9593  H     
41   H       -15.2019    7.9247    8.7430  H     
42   H       -13.1482    8.9014    7.3684  H     
43   H       -12.8195    8.2867    5.7609  H     
44   H       -14.9269    9.3318    4.9208  H     
45   H       -13.8798   10.5293    5.6868  H     
46   H       -13.0039    6.0765    5.0313  H     
47   H       -13.2427    4.8889    3.1843  H     
48   H       -14.9467    4.5949    3.6086  H     
49   H        -7.5422    2.3400   10.0191  H     
50   H        -8.7240    1.8238    8.8158  H     
51   H        -9.2387   -0.2075   10.0285  H     
52   H        -7.5084   -0.1251    9.7356  H     
53   H        -9.0435    0.7759   13.6213  H     
54   H       -10.1597    0.3333   12.3359  H     
55   H       -10.1888    2.7779   12.6993  H     
56   H        -8.4580    2.8708   12.4361  H     
57   H        -8.2676   -0.8406   11.9634  H     
58   H        -6.2507    1.2494   11.6946  H     
59   H        -6.7104    0.7305   13.3081  H     
60   H        -6.1950   -1.5502   12.9047  H     
61   H        -5.9973   -1.3174   11.1640  H     
62   H        -3.9158   -0.0761   11.4997  H     
63   H        -3.8250   -1.5802   12.4456  H     
64   H        -4.1579   -0.0386   13.2654  H     
@<TRIPOS>BOND
     1    1    2 1
     2    1    6 2
     3    2    3 2
     4    3    4 1
     5    3   26 1
     6    4    5 2
     7    5    6 1
     8    6    7 1
     9    7    8 2
    10    7    9 am
    11    9   10 1
    12   10   13 1
    13   10   14 1
    14   10   16 1
    15   11   12 1
    16   11   15 1
    17   12   13 1
    18   14   15 1
    19   16   17 2
    20   16   18 am
    21   18   19 1
    22   19   20 1
    23   20   21 3
    24   22   23 1
    25   22   26 1
    26   23   27 1
    27   24   25 1
    28   24   27 1
    29   25   26 1
    30   27   28 1
    31   28   29 1
    32   29   30 1
    33    1   31 1
    34    2   32 1
    35    4   33 1
    36    5   34 1
    37    9   35 1
    38   11   36 1
    39   11   37 1
    40   12   38 1
    41   12   39 1
    42   13   40 1
    43   13   41 1
    44   14   42 1
    45   14   43 1
    46   15   44 1
    47   15   45 1
    48   18   46 1
    49   19   47 1
    50   19   48 1
    51   22   49 1
    52   22   50 1
    53   23   51 1
    54   23   52 1
    55   24   53 1
    56   24   54 1
    57   25   55 1
    58   25   56 1
    59   27   57 1
    60   28   58 1
    61   28   59 1
    62   29   60 1
    63   29   61 1
    64   30   62 1
    65   30   63 1
    66   30   64 1
@<TRIPOS>PROPERTY_DATA
  Total_Score	| 1.6572
  Crash		| -1.1016
  Polar		| 1.0300
  FragIndex	| 1
  FragRMSD	| 1.083

