@<TRIPOS>MOLECULE
BindingDB_19644
 74 76 0 0 0
SMALL
NO_CHARGES


@<TRIPOS>ATOM
1    C        -3.7681    3.8632   14.4131  C     
2    C        -2.5496    3.9886   15.3694  C     
3    C        -4.0491    3.8872   17.2803  C     
4    C        -5.2587    3.6993   16.3234  C     
5    N        -4.7797    3.0726   15.1007  N     
6    O        -2.9627    4.5758   16.6257  O     
7    C        -5.1258    1.8186   14.7590  C     
8    O        -6.0025    1.2367   15.3985  O     
9    C        -4.5257    0.9932   13.7058  C     
10   C        -6.6042    0.6356   12.2308  C     
11   O        -6.9830   -0.2343   13.0103  O     
12   N        -7.3590    0.9958   11.2009  N     
13   C        -8.5370    0.3697   10.6613  C     
14   C        -9.3688    1.4325    9.8739  C     
15   N        -9.4097    2.7712   10.4061  N     
16   C       -10.3995    3.6575   10.1801  C     
17   C       -11.4189    5.1514    8.5290  C     
18   C       -10.3573    4.3512    8.9385  C     
19   C       -11.4899    3.9311   11.0498  C     
20   C       -12.5135    4.8030   10.6729  C     
21   C       -12.5034    5.4227    9.4035  C     
22   C        -5.2482    1.1859   12.3336  C     
23   O       -13.5867    6.1263    8.9673  O     
24   C       -13.6763    7.4969    9.4052  C     
25   F       -14.7937    8.0478    8.8337  F     
26   F       -13.8282    7.5852   10.7677  F     
27   F       -12.6053    8.2631    9.0068  F     
28   C        -4.3631    0.7505   11.1110  C     
29   C        -3.5394   -0.5943   11.1654  C     
30   C        -5.4460   -2.3164   10.9499  C     
31   C        -4.2708   -1.8000   11.8311  C     
32   C        -3.0226   -1.0110    9.7470  C     
33   C        -4.1493   -1.5663    8.8293  C     
34   C        -4.9814   -2.6795    9.5204  C     
35   C        -9.4041   -0.4359   11.6958  C     
36   C        -9.1055   -1.9533   11.7314  C     
37   H        -4.1647    4.8627   14.2057  H     
38   H        -3.4411    3.4831   13.4455  H     
39   H        -2.1108    2.9999   15.5372  H     
40   H        -1.7863    4.6239   14.9116  H     
41   H        -4.3663    4.4676   18.1475  H     
42   H        -3.7134    2.9093   17.6248  H     
43   H        -6.0338    3.1289   16.8492  H     
44   H        -5.6824    4.6802   16.0738  H     
45   H        -3.4502    1.2023   13.5951  H     
46   H        -4.5794   -0.0780   13.9482  H     
47   H        -6.9911    1.7186   10.6647  H     
48   H        -8.1838   -0.3355    9.8991  H     
49   H        -8.8672    1.5656    8.9137  H     
50   H       -10.3703    1.0468    9.6522  H     
51   H        -8.5236    3.1782   10.4804  H     
52   H       -11.4133    5.5597    7.5922  H     
53   H        -9.5762    4.1828    8.2886  H     
54   H       -11.5247    3.4871   11.9673  H     
55   H       -13.2939    4.9737   11.3168  H     
56   H        -5.3716    2.2656   12.2169  H     
57   H        -4.9802    0.7595   10.2016  H     
58   H        -3.6195    1.5441   10.9473  H     
59   H        -2.6518   -0.3988   11.7727  H     
60   H        -5.8888   -3.1996   11.4111  H     
61   H        -6.2381   -1.5628   10.8814  H     
62   H        -3.5572   -2.6286   11.9772  H     
63   H        -4.6473   -1.5129   12.8244  H     
64   H        -2.5561   -0.1557    9.2447  H     
65   H        -2.2586   -1.7945    9.8646  H     
66   H        -4.8157   -0.7520    8.5308  H     
67   H        -3.6988   -1.9612    7.9105  H     
68   H        -4.3720   -3.5965    9.5743  H     
69   H        -5.8758   -2.8824    8.9134  H     
70   H        -9.2833   -0.0262   12.7000  H     
71   H       -10.4644   -0.3629   11.4570  H     
72   H        -9.3146   -2.3969   10.7526  H     
73   H        -9.7365   -2.4410   12.4812  H     
74   H        -8.0605   -2.1446   11.9803  H     
@<TRIPOS>BOND
     1    1    2 1
     2    1    5 1
     3    2    6 1
     4    3    4 1
     5    3    6 1
     6    4    5 1
     7    5    7 am
     8    7    8 2
     9    7    9 1
    10    9   22 1
    11   10   11 2
    12   10   12 am
    13   10   22 1
    14   12   13 1
    15   13   14 1
    16   13   35 1
    17   14   15 1
    18   15   16 1
    19   16   18 2
    20   16   19 1
    21   17   18 1
    22   17   21 2
    23   19   20 2
    24   20   21 1
    25   21   23 1
    26   22   28 1
    27   23   24 1
    28   24   25 1
    29   24   26 1
    30   24   27 1
    31   28   29 1
    32   29   31 1
    33   29   32 1
    34   30   31 1
    35   30   34 1
    36   32   33 1
    37   33   34 1
    38   35   36 1
    39    1   37 1
    40    1   38 1
    41    2   39 1
    42    2   40 1
    43    3   41 1
    44    3   42 1
    45    4   43 1
    46    4   44 1
    47    9   45 1
    48    9   46 1
    49   12   47 1
    50   13   48 1
    51   14   49 1
    52   14   50 1
    53   15   51 1
    54   17   52 1
    55   18   53 1
    56   19   54 1
    57   20   55 1
    58   22   56 1
    59   28   57 1
    60   28   58 1
    61   29   59 1
    62   30   60 1
    63   30   61 1
    64   31   62 1
    65   31   63 1
    66   32   64 1
    67   32   65 1
    68   33   66 1
    69   33   67 1
    70   34   68 1
    71   34   69 1
    72   35   70 1
    73   35   71 1
    74   36   72 1
    75   36   73 1
    76   36   74 1
@<TRIPOS>PROPERTY_DATA
  Total_Score	| 5.8474
  Crash		| -2.9972
  Polar		| 0.0059
  FragIndex	| 1
  FragRMSD	| 1.428

