@<TRIPOS>MOLECULE
BindingDB_19638
 64 66 0 0 0
SMALL
NO_CHARGES


@<TRIPOS>ATOM
1    C        -5.0865    3.5562   16.1055  C     
2    C        -3.8685    3.6644   17.0523  C     
3    C        -2.4196    4.0579   15.1849  C     
4    C        -3.6177    4.0243   14.2044  C     
5    N        -4.6302    3.1502   14.7728  N     
6    O        -2.8398    4.5027   16.4881  O     
7    C        -5.0696    2.0355   14.1527  C     
8    O        -5.8531    1.2869   14.7255  O     
9    C        -4.7159    1.6260   12.7994  C     
10   C        -6.8575    0.4410   12.2308  C     
11   O        -7.4457   -0.1387   13.1434  O     
12   N        -7.5647    1.0643   11.2907  N     
13   C        -8.9879    1.0032   11.1476  C     
14   C        -9.7544    2.0713   11.9733  C     
15   N        -9.5304    3.4475   11.6285  N     
16   C       -10.4170    4.1610   10.8987  C     
17   C       -11.3027    5.0165    8.7758  C     
18   C       -10.3129    4.3375    9.5022  C     
19   C       -11.6028    4.6331   11.5441  C     
20   C       -12.6239    5.2430   10.8085  C     
21   C       -12.5048    5.4226    9.4173  C     
22   F       -13.4279    6.0305    8.7487  F     
23   C        -5.3969    0.3914   12.1251  C     
24   C        -4.7315   -0.9802   12.5212  C     
25   C        -4.0167   -1.8446   11.4285  C     
26   C        -5.2779   -1.8491    9.1187  C     
27   C        -4.9423   -2.6071   10.4234  C     
28   C        -2.8299   -1.1334   10.6954  C     
29   C        -3.1890   -0.3818    9.3828  C     
30   C        -4.0164   -1.2758    8.4282  C     
31   H        -5.8193    2.8919   16.5728  H     
32   H        -5.5769    4.5370   16.0309  H     
33   H        -4.1860    4.1011   18.0017  H     
34   H        -3.4710    2.6616   17.2571  H     
35   H        -1.9707    3.0647   15.2588  H     
36   H        -1.6630    4.7396   14.8087  H     
37   H        -4.0440    5.0285   14.0866  H     
38   H        -3.2467    3.7325   13.2211  H     
39   H        -4.8626    2.4777   12.1450  H     
40   H        -3.6526    1.3998   12.7925  H     
41   H        -7.0827    1.5179   10.5771  H     
42   H        -9.2224    1.1100   10.0897  H     
43   H        -9.3514    0.0061   11.4414  H     
44   H       -10.8325    1.8321   11.9582  H     
45   H        -9.4535    1.9827   13.0249  H     
46   H        -9.0515    3.9475   12.3107  H     
47   H       -11.2009    5.1386    7.7703  H     
48   H        -9.4702    4.0349    9.0117  H     
49   H       -11.7006    4.5228   12.5595  H     
50   H       -13.4854    5.5373   11.2830  H     
51   H        -5.1713    0.5454   11.0771  H     
52   H        -3.9649   -0.7863   13.2761  H     
53   H        -5.4555   -1.6268   13.0269  H     
54   H        -3.5448   -2.6373   12.0243  H     
55   H        -5.7915   -2.5231    8.4233  H     
56   H        -5.9816   -1.0384    9.3309  H     
57   H        -4.4303   -3.5344   10.1292  H     
58   H        -5.8695   -2.9066   10.9278  H     
59   H        -2.3513   -0.4292   11.3863  H     
60   H        -2.0717   -1.8889   10.4460  H     
61   H        -3.7400    0.5370    9.5794  H     
62   H        -2.2691   -0.0814    8.8798  H     
63   H        -3.3843   -2.0929    8.0825  H     
64   H        -4.3161   -0.6904    7.5537  H     
@<TRIPOS>BOND
     1    1    2 1
     2    1    5 1
     3    2    6 1
     4    3    4 1
     5    3    6 1
     6    4    5 1
     7    5    7 am
     8    7    8 2
     9    7    9 1
    10    9   23 1
    11   10   11 2
    12   10   12 am
    13   10   23 1
    14   12   13 1
    15   13   14 1
    16   14   15 1
    17   15   16 1
    18   16   18 2
    19   16   19 1
    20   17   18 1
    21   17   21 2
    22   19   20 2
    23   20   21 1
    24   21   22 1
    25   23   24 1
    26   24   25 1
    27   25   27 1
    28   25   28 1
    29   26   27 1
    30   26   30 1
    31   28   29 1
    32   29   30 1
    33    1   31 1
    34    1   32 1
    35    2   33 1
    36    2   34 1
    37    3   35 1
    38    3   36 1
    39    4   37 1
    40    4   38 1
    41    9   39 1
    42    9   40 1
    43   12   41 1
    44   13   42 1
    45   13   43 1
    46   14   44 1
    47   14   45 1
    48   15   46 1
    49   17   47 1
    50   18   48 1
    51   19   49 1
    52   20   50 1
    53   23   51 1
    54   24   52 1
    55   24   53 1
    56   25   54 1
    57   26   55 1
    58   26   56 1
    59   27   57 1
    60   27   58 1
    61   28   59 1
    62   28   60 1
    63   29   61 1
    64   29   62 1
    65   30   63 1
    66   30   64 1
@<TRIPOS>PROPERTY_DATA
  Total_Score	| 3.7997
  Crash		| -3.6232
  Polar		| 0.4903
  FragIndex	| 1
  FragRMSD	| 1.222

