@<TRIPOS>MOLECULE
BindingDB_19642
 68 70 0 0 0
SMALL
NO_CHARGES


@<TRIPOS>ATOM
1    C        -5.2080    3.7067   16.3515  C     
2    C        -3.9981    3.8981   17.3084  C     
3    C        -2.4941    3.9891   15.4028  C     
4    C        -3.7034    3.8704   14.4395  C     
5    N        -4.7293    3.0932   15.1172  N     
6    O        -2.9077    4.5877   16.6529  O     
7    C        -5.1564    1.8835   14.7172  C     
8    O        -6.1556    1.3913   15.2354  O     
9    C        -4.5285    1.0369   13.6998  C     
10   C        -6.5443    0.6554   12.1643  C     
11   O        -7.0130   -0.1039   13.0093  O     
12   N        -7.2668    0.9822   11.0948  N     
13   C        -8.5376    0.4265   10.7354  C     
14   C        -9.3329    1.3799    9.8131  C     
15   N        -9.6333    2.6030   10.4936  N     
16   C       -10.5081    3.5636   10.1007  C     
17   C       -11.4645    5.1324    8.4832  C     
18   C       -10.4879    4.1911    8.8358  C     
19   C       -11.5354    3.9210   11.0103  C     
20   C       -12.5215    4.8543   10.6507  C     
21   C       -12.4950    5.4779    9.3854  C     
22   C        -5.1910    1.2070   12.2970  C     
23   O       -13.5247    6.3255    9.0710  O     
24   C       -13.2526    7.5168    8.3036  C     
25   F       -14.3478    8.3334    8.4038  F     
26   F       -12.1617    8.2257    8.7635  F     
27   F       -13.0875    7.2324    6.9682  F     
28   C        -4.2661    0.7394   11.1208  C     
29   C        -3.4852   -0.6240   11.2122  C     
30   C        -5.4194   -2.3103   10.9783  C     
31   C        -4.2386   -1.8259   11.8504  C     
32   C        -2.9618   -1.0531    9.8008  C     
33   C        -4.0768   -1.6298    8.8819  C     
34   C        -4.9226   -2.7310    9.5802  C     
35   H        -5.9671    3.1213   16.8865  H     
36   H        -5.6551    4.6809   16.1272  H     
37   H        -4.3110    4.4961   18.1692  H     
38   H        -3.6530    2.9266   17.6710  H     
39   H        -2.0528    3.0060   15.5819  H     
40   H        -1.7330    4.6251   14.9509  H     
41   H        -4.0964    4.8713   14.2303  H     
42   H        -3.3779    3.4527   13.4820  H     
43   H        -3.4599    1.2566   13.6477  H     
44   H        -4.5962   -0.0028   14.0229  H     
45   H        -6.8721    1.6137   10.4730  H     
46   H        -8.3653   -0.5221   10.2154  H     
47   H        -9.1254    0.2215   11.6374  H     
48   H        -8.7622    1.5797    8.9003  H     
49   H       -10.2701    0.8865    9.5379  H     
50   H        -9.2093    2.7242   11.3603  H     
51   H       -11.4317    5.5390    7.5494  H     
52   H        -9.7617    3.9582    8.1532  H     
53   H       -11.5795    3.4859   11.9372  H     
54   H       -13.2689    5.0839   11.3135  H     
55   H        -5.3093    2.2913   12.1553  H     
56   H        -4.8454    0.7593   10.1960  H     
57   H        -3.5013    1.5188   10.9999  H     
58   H        -2.6024   -0.4381   11.8359  H     
59   H        -5.9117   -3.1610   11.4577  H     
60   H        -6.1613   -1.5197   10.8645  H     
61   H        -3.5377   -2.6542   11.9925  H     
62   H        -4.6113   -1.5708   12.8370  H     
63   H        -2.5065   -0.1974    9.2916  H     
64   H        -2.1765   -1.8061    9.9285  H     
65   H        -4.7383   -0.8282    8.5555  H     
66   H        -3.6120   -2.0497    7.9811  H     
67   H        -4.3247   -3.6432    9.6804  H     
68   H        -5.7965   -2.9488    8.9644  H     
@<TRIPOS>BOND
     1    1    2 1
     2    1    5 1
     3    2    6 1
     4    3    4 1
     5    3    6 1
     6    4    5 1
     7    5    7 am
     8    7    8 2
     9    7    9 1
    10    9   22 1
    11   10   11 2
    12   10   12 am
    13   10   22 1
    14   12   13 1
    15   13   14 1
    16   14   15 1
    17   15   16 1
    18   16   18 2
    19   16   19 1
    20   17   18 1
    21   17   21 2
    22   19   20 2
    23   20   21 1
    24   21   23 1
    25   22   28 1
    26   23   24 1
    27   24   25 1
    28   24   26 1
    29   24   27 1
    30   28   29 1
    31   29   31 1
    32   29   32 1
    33   30   31 1
    34   30   34 1
    35   32   33 1
    36   33   34 1
    37    1   35 1
    38    1   36 1
    39    2   37 1
    40    2   38 1
    41    3   39 1
    42    3   40 1
    43    4   41 1
    44    4   42 1
    45    9   43 1
    46    9   44 1
    47   12   45 1
    48   13   46 1
    49   13   47 1
    50   14   48 1
    51   14   49 1
    52   15   50 1
    53   17   51 1
    54   18   52 1
    55   19   53 1
    56   20   54 1
    57   22   55 1
    58   28   56 1
    59   28   57 1
    60   29   58 1
    61   30   59 1
    62   30   60 1
    63   31   61 1
    64   31   62 1
    65   32   63 1
    66   32   64 1
    67   33   65 1
    68   33   66 1
    69   34   67 1
    70   34   68 1
@<TRIPOS>PROPERTY_DATA
  Total_Score	| 5.1000
  Crash		| -2.8788
  Polar		| 0.0245
  FragIndex	| 1
  FragRMSD	| 1.411

