@<TRIPOS>MOLECULE
BindingDB_19655
 77 79 0 0 0
SMALL
NO_CHARGES


@<TRIPOS>ATOM
1    C       -10.1468    0.3998   10.6933  C     
2    C        -9.7359    2.0906   12.3729  C     
3    C        -8.2358    2.1312   11.9807  C     
4    C        -8.6499    0.4333   10.2878  C     
5    O       -10.5482    1.6723   11.2558  O     
6    N        -7.8581    0.8375   11.4430  N     
7    C        -6.9361    0.0319   12.0011  C     
8    O        -6.8547   -1.1218   11.5760  O     
9    C        -6.0354    0.3201   13.1356  C     
10   C        -4.2838    2.1399   13.4927  C     
11   O        -4.6318    3.1531   12.9016  O     
12   N        -3.6965    2.2163   14.6880  N     
13   C        -3.3515    3.4080   15.4286  C     
14   C        -1.9915    3.1811   16.1785  C     
15   N        -1.4793    1.8559   16.3877  N     
16   C        -1.6980    0.9800   17.4057  C     
17   C        -2.9425    0.7057   18.0146  C     
18   C        -0.5571    0.3035   17.9199  C     
19   C        -0.6715   -0.6198   18.9731  C     
20   C        -1.9228   -0.8694   19.5682  C     
21   C        -3.0652   -0.2158   19.0579  C     
22   O        -2.0418   -1.7945   20.5700  O     
23   C        -2.1705   -1.2489   21.8993  C     
24   F        -2.3393   -2.2938   22.7713  F     
25   F        -1.0400   -0.5656   22.2849  F     
26   F        -3.2672   -0.4294   22.0420  F     
27   C        -4.5635    0.8434   12.8610  C     
28   C        -4.0538    0.8173   11.3676  C     
29   C        -2.8300   -0.1098   11.0649  C     
30   C        -3.1189   -1.5116   10.4440  C     
31   C        -3.9707   -2.4643   11.3345  C     
32   C        -5.0392   -3.0789   10.4091  C     
33   C        -5.2564   -2.0000    9.3375  C     
34   C        -3.8419   -1.4575    9.0671  C     
35   C        -4.5909    3.8995   16.2699  C     
36   C        -4.2297    4.7472   17.5277  C     
37   C        -5.5968    4.7170   15.4009  C     
38   H       -10.7581    0.2033    9.8079  H     
39   H       -10.3149   -0.4071   11.4151  H     
40   H        -9.8772    1.4270   13.2255  H     
41   H       -10.0484    3.0984   12.6614  H     
42   H        -8.0841    2.8908   11.2047  H     
43   H        -7.6585    2.4468   12.8476  H     
44   H        -8.3831   -0.5449    9.8704  H     
45   H        -8.5140    1.1627    9.4752  H     
46   H        -6.5480    0.9687   13.8531  H     
47   H        -5.9317   -0.6153   13.7095  H     
48   H        -3.5005    1.3687   15.1191  H     
49   H        -3.1471    4.2190   14.7227  H     
50   H        -1.2195    3.6597   15.5768  H     
51   H        -1.9526    3.7031   17.1271  H     
52   H        -0.7810    1.5919   15.7567  H     
53   H        -3.7804    1.1794   17.7031  H     
54   H         0.3692    0.5052   17.5246  H     
55   H         0.1728   -1.0910   19.3190  H     
56   H        -3.9719   -0.3946   19.4871  H     
57   H        -3.9361    0.1304   13.4102  H     
58   H        -4.8655    0.5540   10.6992  H     
59   H        -3.7716    1.8204   11.0409  H     
60   H        -2.1880    0.4260   10.3545  H     
61   H        -2.2308   -0.2455   11.9676  H     
62   H        -2.1441   -1.9884   10.2861  H     
63   H        -3.3534   -3.2481   11.7944  H     
64   H        -4.4704   -1.9241   12.1345  H     
65   H        -4.6633   -3.9925    9.9309  H     
66   H        -5.9650   -3.3077   10.9405  H     
67   H        -5.7440   -2.3902    8.4425  H     
68   H        -5.8711   -1.2044    9.7430  H     
69   H        -3.8831   -0.4549    8.6343  H     
70   H        -3.3443   -2.1168    8.3486  H     
71   H        -5.1561    3.0284   16.6159  H     
72   H        -3.7364    4.1395   18.2867  H     
73   H        -5.1214    5.1695   17.9940  H     
74   H        -3.5642    5.5667   17.2555  H     
75   H        -5.0879    5.5505   14.9084  H     
76   H        -6.4111    5.1198   16.0084  H     
77   H        -6.0472    4.0764   14.6445  H     
@<TRIPOS>BOND
     1    1    4 1
     2    1    5 1
     3    2    3 1
     4    2    5 1
     5    3    6 1
     6    4    6 1
     7    6    7 am
     8    7    8 2
     9    7    9 1
    10    9   27 1
    11   10   11 2
    12   10   12 am
    13   10   27 1
    14   12   13 1
    15   13   14 1
    16   13   35 1
    17   14   15 1
    18   15   16 1
    19   16   17 2
    20   16   18 1
    21   17   21 1
    22   18   19 2
    23   19   20 1
    24   20   21 2
    25   20   22 1
    26   22   23 1
    27   23   24 1
    28   23   25 1
    29   23   26 1
    30   27   28 1
    31   28   29 1
    32   29   30 1
    33   30   31 1
    34   30   34 1
    35   31   32 1
    36   32   33 1
    37   33   34 1
    38   35   36 1
    39   35   37 1
    40    1   38 1
    41    1   39 1
    42    2   40 1
    43    2   41 1
    44    3   42 1
    45    3   43 1
    46    4   44 1
    47    4   45 1
    48    9   46 1
    49    9   47 1
    50   12   48 1
    51   13   49 1
    52   14   50 1
    53   14   51 1
    54   15   52 1
    55   17   53 1
    56   18   54 1
    57   19   55 1
    58   21   56 1
    59   27   57 1
    60   28   58 1
    61   28   59 1
    62   29   60 1
    63   29   61 1
    64   30   62 1
    65   31   63 1
    66   31   64 1
    67   32   65 1
    68   32   66 1
    69   33   67 1
    70   33   68 1
    71   34   69 1
    72   34   70 1
    73   35   71 1
    74   36   72 1
    75   36   73 1
    76   36   74 1
    77   37   75 1
    78   37   76 1
    79   37   77 1
@<TRIPOS>PROPERTY_DATA
  Total_Score	| 8.3036
  Crash		| -3.3529
  Polar		| 2.0462
  FragIndex	| 1
  FragRMSD	| 1.306

