@<TRIPOS>MOLECULE
BindingDB_13954
 87 91 0 0 0
SMALL
NO_CHARGES


@<TRIPOS>ATOM
1    C        35.0783   28.2942   21.9192  C     
2    C        33.9931   30.3986   20.2949  C     
3    C        33.2606   29.8528   21.3693  C     
4    C        33.7904   28.8296   22.1639  C     
5    N        35.5205   27.2761   22.7744  N     
6    C        35.8488   27.5647   24.0562  C     
7    O        35.9359   26.6847   24.9052  O     
8    C        35.8385   28.8264   20.8370  C     
9    C        35.3008   29.8898   20.0316  C     
10   C        37.1340   28.3665   20.5323  C     
11   C        37.8549   28.9061   19.5395  C     
12   C        37.3563   29.9157   18.7820  C     
13   C        36.1194   30.4027   19.0031  C     
14   C        35.3463   25.9565   22.3634  C     
15   C        36.0551   23.6405   21.9868  C     
16   C        34.7737   23.2985   21.5218  C     
17   C        33.7688   24.2690   21.4941  C     
18   C        34.0500   25.5753   21.9182  C     
19   C        36.3758   24.9575   22.4155  C     
20   C        37.7144   25.1953   22.8613  C     
21   O        38.6833   24.2543   22.7545  O     
22   O        38.1545   26.3678   23.3651  O     
23   C        36.1967   28.8280   24.4935  C     
24   O        37.3988   29.3515   24.1534  O     
25   O        35.4337   29.5024   25.3783  O     
26   C        33.3353   31.4896   19.4982  C     
27   C        32.5682   30.9640   18.2474  C     
28   N        32.1169   32.0820   17.4621  N     
29   C        32.8336   32.7987   16.6029  C     
30   C        32.1875   33.8897   15.9122  C     
31   O        34.0208   32.5688   16.4045  O     
32   C        31.4085   30.1542   18.5799  C     
33   O        31.3206   29.0277   18.1082  O     
34   N        30.4504   30.6596   19.3509  N     
35   C        29.1809   30.0756   19.6481  C     
36   C        28.3623   30.9520   20.6252  C     
37   C        28.4063   30.3999   22.0886  C     
38   C        27.3742   31.0130   23.0669  C     
39   C        26.0918   30.1748   23.2962  C     
40   O        25.4599   29.7056   22.0807  O     
41   C        25.5617   28.3820   21.6924  C     
42   C        25.4396   25.9823   22.0214  C     
43   C        24.9880   27.2715   22.3861  C     
44   C        26.3097   28.1707   20.5175  C     
45   C        26.2648   25.7603   20.8988  C     
46   C        26.6753   26.8759   20.1126  C     
47   C        26.6863   24.4593   20.5135  C     
48   C        27.4884   26.6739   18.9723  C     
49   C        27.9080   25.3759   18.6143  C     
50   C        27.5090   24.2673   19.3839  C     
51   C        24.0046   27.4310   23.3967  C     
52   O        23.6675   26.4220   24.2448  O     
53   O        23.3549   28.6063   23.5645  O     
54   H        32.3185   30.1940   21.5922  H     
55   H        33.2198   28.4620   22.9330  H     
56   H        37.5333   27.6286   21.0493  H     
57   H        38.7740   28.5686   19.3590  H     
58   H        37.9186   30.3034   18.0533  H     
59   H        35.8204   31.1527   18.4246  H     
60   H        36.7575   22.8914   21.9922  H     
61   H        34.5770   22.3442   21.2057  H     
62   H        32.8311   24.0237   21.1611  H     
63   H        33.2826   26.2475   21.9087  H     
64   H        32.6605   32.0831   20.1221  H     
65   H        34.1089   32.1901   19.1768  H     
66   H        33.2634   30.3628   17.6428  H     
67   H        31.1913   32.3654   17.5771  H     
68   H        31.3709   33.5022   15.2956  H     
69   H        32.8888   34.4215   15.2625  H     
70   H        31.7751   34.5999   16.6342  H     
71   H        30.6067   31.5644   19.6713  H     
72   H        28.6357   29.9287   18.7148  H     
73   H        29.3334   29.0991   20.0689  H     
74   H        28.7514   31.9754   20.6109  H     
75   H        27.3245   30.9951   20.2556  H     
76   H        28.2431   29.3225   22.1191  H     
77   H        29.4070   30.5519   22.4928  H     
78   H        27.8639   31.1605   24.0323  H     
79   H        27.1030   32.0175   22.7164  H     
80   H        26.2711   29.3767   24.0379  H     
81   H        25.3577   30.8458   23.7384  H     
82   H        25.1677   25.1659   22.5753  H     
83   H        26.6336   28.9594   19.9713  H     
84   H        26.4045   23.6335   21.0586  H     
85   H        27.7956   27.4684   18.4033  H     
86   H        28.5053   25.2409   17.7914  H     
87   H        27.8168   23.3251   19.1186  H     
@<TRIPOS>BOND
     1    1    4 1
     2    1    5 1
     3    1    8 2
     4    2    3 1
     5    2    9 2
     6    2   26 1
     7    3    4 2
     8    5    6 am
     9    5   14 1
    10    6    7 2
    11    6   23 1
    12    8    9 1
    13    8   10 1
    14    9   13 1
    15   10   11 2
    16   11   12 1
    17   12   13 2
    18   14   18 2
    19   14   19 1
    20   15   16 1
    21   15   19 2
    22   16   17 2
    23   17   18 1
    24   19   20 1
    25   20   21 2
    26   20   22 1
    27   23   24 2
    28   23   25 1
    29   26   27 1
    30   27   28 1
    31   27   32 1
    32   28   29 am
    33   29   30 1
    34   29   31 2
    35   32   33 2
    36   32   34 am
    37   34   35 1
    38   35   36 1
    39   36   37 1
    40   37   38 1
    41   38   39 1
    42   39   40 1
    43   40   41 1
    44   41   43 1
    45   41   44 2
    46   42   43 2
    47   42   45 1
    48   43   51 1
    49   44   46 1
    50   45   46 2
    51   45   47 1
    52   46   48 1
    53   47   50 2
    54   48   49 2
    55   49   50 1
    56   51   52 2
    57   51   53 1
    58    3   54 1
    59    4   55 1
    60   10   56 1
    61   11   57 1
    62   12   58 1
    63   13   59 1
    64   15   60 1
    65   16   61 1
    66   17   62 1
    67   18   63 1
    68   26   64 1
    69   26   65 1
    70   27   66 1
    71   28   67 1
    72   30   68 1
    73   30   69 1
    74   30   70 1
    75   34   71 1
    76   35   72 1
    77   35   73 1
    78   36   74 1
    79   36   75 1
    80   37   76 1
    81   37   77 1
    82   38   78 1
    83   38   79 1
    84   39   80 1
    85   39   81 1
    86   42   82 1
    87   44   83 1
    88   47   84 1
    89   48   85 1
    90   49   86 1
    91   50   87 1
@<TRIPOS>PROPERTY_DATA
  Total_Score	| 18.6673
  Crash		| -2.2925
  Polar		| 12.9181
  FragIndex	| 1
  FragRMSD	| 0.130

