@<TRIPOS>MOLECULE
BindingDB_50131555
 79 81 0 0 0
SMALL
NO_CHARGES


@<TRIPOS>ATOM
1    N        35.5553   27.2888   22.7213  N     
2    C        35.3634   25.9743   22.2874  C     
3    C        35.8706   27.5366   24.0201  C     
4    C        36.3994   24.9783   22.2943  C     
5    C        35.0904   28.3258   21.9028  C     
6    C        24.1902   27.4115   23.4361  C     
7    C        37.7465   25.2173   22.7028  C     
8    C        36.2296   28.7771   24.5008  C     
9    C        24.8027   26.2433   22.9446  C     
10   C        35.7310   28.7602   20.7035  C     
11   C        31.4298   30.2084   18.5441  C     
12   C        32.6010   31.0367   18.2424  C     
13   N        32.1895   32.1521   17.4230  N     
14   C        33.8707   28.9472   22.2837  C     
15   C        32.9445   32.8424   16.5771  C     
16   O        35.9187   26.6259   24.8506  O     
17   C        22.8427   27.3597   23.8685  C     
18   C        24.9328   28.6100   23.5901  C     
19   C        35.1258   29.7960   19.9433  C     
20   C        33.3288   31.5280   19.5364  C     
21   C        33.9251   30.4204   20.3402  C     
22   O        38.6508   24.2139   22.8147  O     
23   O        35.4466   29.4606   25.3730  O     
24   O        25.5091   25.4837   23.8163  O     
25   O        31.4397   29.0365   18.1746  O     
26   O        34.1193   32.5554   16.3868  O     
27   N        30.3997   30.7038   19.2173  N     
28   C        33.3045   29.9843   21.5258  C     
29   O        38.2665   26.4549   22.8882  O     
30   O        37.4138   29.3306   24.1490  O     
31   O        25.0735   26.1148   21.6239  O     
32   C        36.0718   23.6594   21.8580  C     
33   C        34.0586   25.5963   21.8749  C     
34   O        22.1059   26.2298   23.7017  O     
35   O        26.2707   28.6174   23.2546  O     
36   C        37.0235   28.2094   20.1998  C     
37   C        23.0004   29.6629   24.6476  C     
38   C        32.3514   33.9391   15.8425  C     
39   C        22.2476   28.4934   24.4565  C     
40   C        24.3391   29.7163   24.2338  C     
41   C        29.2409   29.9950   19.6867  C     
42   C        26.7397   29.6900   22.4088  C     
43   C        28.9445   30.4061   21.1516  C     
44   C        28.1979   29.3557   22.0126  C     
45   C        34.7741   23.3293   21.4328  C     
46   C        38.0559   29.2956   19.8183  C     
47   C        33.7664   24.3001   21.4475  C     
48   H        33.3130   30.4442   17.6503  H     
49   H        31.2617   32.4326   17.5000  H     
50   H        33.3797   28.6448   23.1292  H     
51   H        35.5736   30.1210   19.0782  H     
52   H        34.1347   32.2122   19.2633  H     
53   H        32.6241   32.1122   20.1397  H     
54   H        30.4541   31.6429   19.4633  H     
55   H        32.4393   30.4187   21.8568  H     
56   H        36.7778   22.9272   21.8255  H     
57   H        33.2929   26.2733   21.8981  H     
58   H        21.4002   26.2431   24.3959  H     
59   H        37.4829   27.5610   20.9369  H     
60   H        36.8272   27.5838   19.3225  H     
61   H        22.5782   30.4728   25.1023  H     
62   H        31.4974   33.5776   15.2706  H     
63   H        33.0651   34.3876   15.1496  H     
64   H        32.0135   34.7104   16.5341  H     
65   H        21.2776   28.4630   24.7629  H     
66   H        24.8863   30.5586   24.4198  H     
67   H        28.3877   30.2577   19.0597  H     
68   H        29.3790   28.9096   19.6286  H     
69   H        26.1212   29.7765   21.5091  H     
70   H        26.7225   30.6424   22.9474  H     
71   H        29.8968   30.5974   21.6563  H     
72   H        28.3698   31.3388   21.1625  H     
73   H        28.7718   29.2239   22.9387  H     
74   H        28.2139   28.4016   21.4791  H     
75   H        34.5710   22.3805   21.1174  H     
76   H        37.7065   29.8751   18.9595  H     
77   H        39.0012   28.8206   19.5465  H     
78   H        38.2322   29.9746   20.6570  H     
79   H        32.8246   24.0565   21.1386  H     
@<TRIPOS>BOND
     1    1    2 1
     2    1    3 am
     3    1    5 1
     4    2    4 2
     5    2   33 1
     6    3    8 1
     7    3   16 2
     8    4    7 1
     9    4   32 1
    10    5   10 2
    11    5   14 1
    12    6    9 1
    13    6   17 1
    14    6   18 2
    15    7   22 2
    16    7   29 1
    17    8   23 2
    18    8   30 1
    19    9   24 2
    20    9   31 1
    21   10   19 1
    22   10   36 1
    23   11   12 1
    24   11   25 2
    25   11   27 am
    26   12   13 1
    27   12   20 1
    28   13   15 am
    29   14   28 2
    30   15   26 2
    31   15   38 1
    32   17   34 1
    33   17   39 2
    34   18   35 1
    35   18   40 1
    36   19   21 2
    37   20   21 1
    38   21   28 1
    39   27   41 1
    40   32   45 2
    41   33   47 2
    42   35   42 1
    43   36   46 1
    44   37   39 1
    45   37   40 2
    46   41   43 1
    47   42   44 1
    48   43   44 1
    49   45   47 1
    50   12   48 1
    51   13   49 1
    52   14   50 1
    53   19   51 1
    54   20   52 1
    55   20   53 1
    56   27   54 1
    57   28   55 1
    58   32   56 1
    59   33   57 1
    60   34   58 1
    61   36   59 1
    62   36   60 1
    63   37   61 1
    64   38   62 1
    65   38   63 1
    66   38   64 1
    67   39   65 1
    68   40   66 1
    69   41   67 1
    70   41   68 1
    71   42   69 1
    72   42   70 1
    73   43   71 1
    74   43   72 1
    75   44   73 1
    76   44   74 1
    77   45   75 1
    78   46   76 1
    79   46   77 1
    80   46   78 1
    81   47   79 1
@<TRIPOS>PROPERTY_DATA
  Total_Score	| 19.0334
  Crash		| -2.6712
  Polar		| 15.7965
  FragIndex	| 1
  FragRMSD	| 0.743

