@<TRIPOS>MOLECULE
BindingDB_50131545
 82 84 0 0 0
SMALL
NO_CHARGES


@<TRIPOS>ATOM
1    N        35.4281   27.1315   22.8421  N     
2    C        35.2510   25.8118   22.3896  C     
3    C        36.2839   24.8149   22.3346  C     
4    C        35.9011   27.4544   24.0565  C     
5    C        23.9785   31.2622   23.5853  C     
6    C        37.5780   25.0049   22.8514  C     
7    C        36.1905   28.7374   24.4803  C     
8    C        23.8773   30.1363   24.4522  C     
9    C        33.0974   32.5926   16.5862  C     
10   N        32.2749   32.0292   17.4968  N     
11   C        31.4011   30.1006   18.5466  C     
12   C        32.6045   30.8876   18.3007  C     
13   C        34.9200   28.1447   22.0410  C     
14   O        36.2019   26.5872   24.8800  O     
15   C        22.9807   32.2801   23.5988  C     
16   C        25.0473   31.3801   22.6540  C     
17   C        33.3308   31.3602   19.5944  C     
18   O        32.6800   33.6980   15.9286  O     
19   O        37.7497   24.6678   24.1611  O     
20   O        35.4113   29.3603   25.3916  O     
21   O        24.8625   29.2121   24.5243  O     
22   O        31.2927   29.0150   17.9841  O     
23   C        33.7191   28.8025   22.3982  C     
24   C        35.5674   28.5234   20.8448  C     
25   N        30.4373   30.5428   19.3454  N     
26   C        36.5444   31.8222   15.5804  C     
27   C        36.9816   31.3591   16.7566  C     
28   C        33.8631   30.2418   20.4238  C     
29   O        38.6558   24.7144   22.0746  O     
30   O        37.4175   29.2603   24.2237  O     
31   O        34.3293   32.0747   16.3368  O     
32   O        22.7477   29.9442   25.1884  O     
33   C        36.0183   23.5476   21.7572  C     
34   C        33.9705   25.4463   21.8822  C     
35   C        33.2027   29.8472   21.6077  C     
36   C        35.0461   29.5612   20.0463  C     
37   O        21.9683   32.3161   24.5071  O     
38   O        26.0492   30.4449   22.5550  O     
39   C        24.0322   33.3912   21.7031  C     
40   C        35.3127   32.5667   15.4247  C     
41   C        23.0091   33.3278   22.6619  C     
42   C        25.0389   32.4174   21.6953  C     
43   C        29.1962   29.8640   19.5688  C     
44   C        27.3673   30.9009   22.9354  C     
45   C        22.4731   28.8536   26.0649  C     
46   C        28.2573   30.6238   20.5376  C     
47   C        28.4310   30.2338   22.0336  C     
48   C        34.7504   23.2367   21.2433  C     
49   C        33.7175   24.1867   21.3153  C     
50   H        31.4171   32.4538   17.6494  H     
51   H        33.3142   30.2549   17.7500  H     
52   H        34.1765   31.9973   19.3181  H     
53   H        32.6495   31.9875   20.1798  H     
54   H        33.2175   28.5366   23.2518  H     
55   H        36.4331   28.0550   20.5654  H     
56   H        30.5620   31.4041   19.7726  H     
57   H        37.1037   31.6574   14.7775  H     
58   H        37.8361   30.8555   16.8057  H     
59   H        36.4565   31.4823   17.5822  H     
60   H        36.7515   22.8270   21.7153  H     
61   H        33.1946   26.1134   21.8976  H     
62   H        32.3423   30.3200   21.9056  H     
63   H        35.5507   29.8331   19.2010  H     
64   H        22.3978   32.4965   25.3696  H     
65   H        24.0490   34.1445   21.0189  H     
66   H        35.5013   33.6252   15.6134  H     
67   H        34.9401   32.4536   14.4011  H     
68   H        22.2911   34.0519   22.6791  H     
69   H        25.7778   32.4657   20.9904  H     
70   H        28.6874   29.7563   18.6047  H     
71   H        29.3905   28.8598   19.9600  H     
72   H        27.4751   31.9886   22.8456  H     
73   H        27.5510   30.6263   23.9789  H     
74   H        22.4754   27.9176   25.5071  H     
75   H        21.4893   29.0022   26.5078  H     
76   H        23.2192   28.8073   26.8609  H     
77   H        28.3993   31.6989   20.4143  H     
78   H        27.2296   30.3922   20.2430  H     
79   H        29.4270   30.5392   22.3720  H     
80   H        28.3574   29.1479   22.1370  H     
81   H        34.5733   22.3138   20.8339  H     
82   H        32.7898   23.9535   20.9524  H     
@<TRIPOS>BOND
     1    1    2 1
     2    1    4 am
     3    1   13 1
     4    2    3 1
     5    2   34 2
     6    3    6 1
     7    3   33 2
     8    4    7 1
     9    4   14 2
    10    5    8 1
    11    5   15 2
    12    5   16 1
    13    6   19 2
    14    6   29 1
    15    7   20 2
    16    7   30 1
    17    8   21 2
    18    8   32 1
    19    9   10 am
    20    9   18 2
    21    9   31 1
    22   12   10 1
    23   11   12 1
    24   11   22 2
    25   11   25 am
    26   12   17 1
    27   13   23 2
    28   13   24 1
    29   15   37 1
    30   15   41 1
    31   16   38 1
    32   16   42 2
    33   17   28 1
    34   23   35 1
    35   24   36 2
    36   25   43 1
    37   26   27 2
    38   26   40 1
    39   28   35 2
    40   28   36 1
    41   31   40 1
    42   32   45 1
    43   33   48 1
    44   34   49 1
    45   38   44 1
    46   39   41 2
    47   39   42 1
    48   43   46 1
    49   44   47 1
    50   46   47 1
    51   48   49 2
    52   10   50 1
    53   12   51 1
    54   17   52 1
    55   17   53 1
    56   23   54 1
    57   24   55 1
    58   25   56 1
    59   26   57 1
    60   27   58 1
    61   27   59 1
    62   33   60 1
    63   34   61 1
    64   35   62 1
    65   36   63 1
    66   37   64 1
    67   39   65 1
    68   40   66 1
    69   40   67 1
    70   41   68 1
    71   42   69 1
    72   43   70 1
    73   43   71 1
    74   44   72 1
    75   44   73 1
    76   45   74 1
    77   45   75 1
    78   45   76 1
    79   46   77 1
    80   46   78 1
    81   47   79 1
    82   47   80 1
    83   48   81 1
    84   49   82 1
@<TRIPOS>PROPERTY_DATA
  Total_Score	| 16.8089
  Crash		| -1.7673
  Polar		| 11.8425
  FragIndex	| 1
  FragRMSD	| 0.828

