@<TRIPOS>MOLECULE
BindingDB_50131546
 84 86 0 0 0
SMALL
NO_CHARGES


@<TRIPOS>ATOM
1    N        35.6791   27.1733   22.7512  N     
2    C        35.4584   25.8545   22.3535  C     
3    C        35.9687   27.4571   24.0457  C     
4    C        36.4771   24.8436   22.3584  C     
5    C        35.2768   28.1933   21.8774  C     
6    C        24.3809   27.7145   22.3986  C     
7    C        37.8305   25.0839   22.7377  C     
8    C        36.2746   28.7163   24.5236  C     
9    C        24.8628   26.9256   21.3640  C     
10   C        35.9813   28.5896   20.6993  C     
11   C        31.4412   30.4516   18.8993  C     
12   C        32.6793   30.9754   18.3293  C     
13   N        32.3452   32.1090   17.5043  N     
14   C        34.0716   28.8651   22.1970  C     
15   C        33.1199   32.7527   16.6451  C     
16   O        35.9904   26.5792   24.9038  O     
17   C        23.0070   27.7149   22.7390  C     
18   C        25.2631   28.5694   23.1105  C     
19   C        35.4454   29.6338   19.8988  C     
20   C        33.7113   31.4296   19.4151  C     
21   C        34.2538   30.3125   20.2434  C     
22   O        38.7282   24.0750   22.8504  O     
23   O        24.5181   27.1931   20.2214  O     
24   O        35.4098   29.3974   25.3189  O     
25   O        31.2243   29.2454   18.8561  O     
26   O        34.2910   32.4444   16.4658  O     
27   N        25.7120   25.9434   21.6265  N     
28   N        30.5764   31.2778   19.4952  N     
29   C        33.5864   29.9176   21.4139  C     
30   O        38.3544   26.3139   22.9269  O     
31   O        37.4161   29.3499   24.1542  O     
32   C        36.1331   23.5290   21.9491  C     
33   C        34.1412   25.4825   21.9686  C     
34   O        22.1302   26.9112   22.0903  O     
35   O        26.5901   28.6935   22.7818  O     
36   C        37.2903   28.0077   20.2846  C     
37   C        23.4214   29.3114   24.5359  C     
38   C        32.5430   33.8594   15.9117  C     
39   C        22.5327   28.5060   23.8034  C     
40   C        24.7821   29.3375   24.1910  C     
41   C        29.3140   30.9695   20.1114  C     
42   C        26.3531   25.1315   20.6491  C     
43   C        26.9345   29.9034   22.0688  C     
44   C        29.5016   30.2034   21.4561  C     
45   C        28.3579   30.3786   22.4916  C     
46   C        34.8329   23.2002   21.5343  C     
47   C        38.4864   28.8899   20.7234  C     
48   C        33.8350   24.1763   21.5534  C     
49   H        33.1650   30.2045   17.7231  H     
50   H        31.4444   32.4542   17.5968  H     
51   H        33.5318   28.5932   23.0228  H     
52   H        35.9481   29.9332   19.0512  H     
53   H        34.5442   31.9345   18.9254  H     
54   H        33.2380   32.1750   20.0589  H     
55   H        25.9097   25.7537   22.5588  H     
56   H        30.8358   32.2112   19.5182  H     
57   H        32.7337   30.4018   21.7129  H     
58   H        36.8316   22.7756   21.9318  H     
59   H        33.3815   26.1609   21.9972  H     
60   H        21.2680   27.3673   22.1222  H     
61   H        37.4289   27.0160   20.6949  H     
62   H        37.3241   27.8908   19.1990  H     
63   H        23.0787   29.8765   25.3168  H     
64   H        31.6790   33.5134   15.3396  H     
65   H        33.2638   34.2992   15.2185  H     
66   H        32.2128   34.6375   16.6052  H     
67   H        21.5429   28.4923   24.0616  H     
68   H        25.4269   29.9439   24.7081  H     
69   H        28.8176   31.9227   20.2880  H     
70   H        28.6742   30.3893   19.4419  H     
71   H        25.6089   24.6550   20.0100  H     
72   H        26.9358   24.3555   21.1447  H     
73   H        27.0253   25.7340   20.0368  H     
74   H        26.8871   29.6981   20.9940  H     
75   H        26.2331   30.7242   22.2717  H     
76   H        29.6449   29.1449   21.2426  H     
77   H        30.4180   30.5605   21.9426  H     
78   H        28.3165   31.4326   22.7690  H     
79   H        28.6554   29.8420   23.4020  H     
80   H        34.6174   22.2446   21.2280  H     
81   H        38.4241   29.8792   20.2681  H     
82   H        39.4225   28.4225   20.4135  H     
83   H        38.4967   28.9988   21.8088  H     
84   H        32.8816   23.9321   21.2673  H     
@<TRIPOS>BOND
     1    1    2 1
     2    1    3 am
     3    1    5 1
     4    2    4 2
     5    2   33 1
     6    3    8 1
     7    3   16 2
     8    4    7 1
     9    4   32 1
    10    5   10 2
    11    5   14 1
    12    6    9 1
    13    6   17 1
    14    6   18 2
    15    7   22 2
    16    7   30 1
    17    8   24 2
    18    8   31 1
    19    9   23 2
    20    9   27 am
    21   10   19 1
    22   10   36 1
    23   11   12 1
    24   11   25 2
    25   11   28 am
    26   12   13 1
    27   12   20 1
    28   13   15 am
    29   14   29 2
    30   15   26 2
    31   15   38 1
    32   17   34 1
    33   17   39 2
    34   18   35 1
    35   18   40 1
    36   19   21 2
    37   20   21 1
    38   21   29 1
    39   27   42 1
    40   28   41 1
    41   32   46 2
    42   33   48 2
    43   35   43 1
    44   36   47 1
    45   37   39 1
    46   37   40 2
    47   41   44 1
    48   43   45 1
    49   44   45 1
    50   46   48 1
    51   12   49 1
    52   13   50 1
    53   14   51 1
    54   19   52 1
    55   20   53 1
    56   20   54 1
    57   27   55 1
    58   28   56 1
    59   29   57 1
    60   32   58 1
    61   33   59 1
    62   34   60 1
    63   36   61 1
    64   36   62 1
    65   37   63 1
    66   38   64 1
    67   38   65 1
    68   38   66 1
    69   39   67 1
    70   40   68 1
    71   41   69 1
    72   41   70 1
    73   42   71 1
    74   42   72 1
    75   42   73 1
    76   43   74 1
    77   43   75 1
    78   44   76 1
    79   44   77 1
    80   45   78 1
    81   45   79 1
    82   46   80 1
    83   47   81 1
    84   47   82 1
    85   47   83 1
    86   48   84 1
@<TRIPOS>PROPERTY_DATA
  Total_Score	| 17.8284
  Crash		| -3.0070
  Polar		| 13.7067
  FragIndex	| 1
  FragRMSD	| 1.431

