@<TRIPOS>MOLECULE
BindingDB_13953
 68 70 0 0 0
SMALL
NO_CHARGES


@<TRIPOS>ATOM
1    C        35.1277   28.3973   21.9370  C     
2    C        34.0037   30.4651   20.2833  C     
3    C        33.3045   29.9398   21.3882  C     
4    C        33.8461   28.9326   22.1903  C     
5    N        35.5602   27.3493   22.7543  N     
6    C        35.8540   27.5855   24.0519  C     
7    O        35.8735   26.6781   24.8803  O     
8    C        35.8808   28.9425   20.8579  C     
9    C        35.3309   29.9860   20.0359  C     
10   C        37.1837   28.5021   20.5818  C     
11   C        37.9065   29.0362   19.5773  C     
12   C        37.3896   30.0086   18.7843  C     
13   C        36.1437   30.4825   18.9910  C     
14   C        35.3679   26.0437   22.2982  C     
15   C        36.0515   23.7283   21.8428  C     
16   C        34.7604   23.4103   21.3999  C     
17   C        33.7632   24.3893   21.4067  C     
18   C        34.0643   25.6857   21.8575  C     
19   C        36.3855   25.0331   22.3022  C     
20   C        37.7317   25.2514   22.7268  C     
21   O        38.2547   26.4578   23.0416  O     
22   O        38.6305   24.2407   22.7886  O     
23   C        36.2353   28.8237   24.5392  C     
24   O        35.4702   29.5033   25.4265  O     
25   O        37.4272   29.3564   24.1839  O     
26   C        33.2689   31.4515   19.4227  C     
27   C        32.2920   30.8011   18.3843  C     
28   N        32.9970   29.8660   17.5443  N     
29   C        32.6852   29.5163   16.3082  C     
30   C        33.5385   28.5618   15.6337  C     
31   O        31.7111   29.9764   15.7226  O     
32   C        31.1161   30.2271   19.0337  C     
33   O        30.9987   29.0143   19.1472  O     
34   N        30.2413   31.0653   19.5867  N     
35   C        29.0239   30.7274   20.2544  C     
36   C        29.2622   30.0561   21.6314  C     
37   C        27.9743   29.5972   22.3704  C     
38   C        26.8529   30.6713   22.4637  C     
39   C        26.1489   30.6827   23.8373  C     
40   H        32.3644   30.2698   21.6150  H     
41   H        33.2835   28.5708   22.9611  H     
42   H        37.6041   27.7965   21.1284  H     
43   H        38.8309   28.7072   19.4121  H     
44   H        37.9307   30.3646   18.0321  H     
45   H        35.8277   31.1806   18.3717  H     
46   H        36.7465   22.9801   21.8103  H     
47   H        34.5442   22.4633   21.0763  H     
48   H        32.8206   24.1591   21.0867  H     
49   H        33.3043   26.3673   21.8701  H     
50   H        32.6922   32.1395   20.0564  H     
51   H        33.9646   32.1083   18.8966  H     
52   H        31.9699   31.6146   17.7212  H     
53   H        33.7636   29.4302   17.9214  H     
54   H        34.4915   29.0358   15.3722  H     
55   H        33.0694   28.1840   14.7126  H     
56   H        33.7383   27.7066   16.2895  H     
57   H        30.4323   32.0107   19.5010  H     
58   H        28.4954   31.6743   20.3961  H     
59   H        28.4046   30.0938   19.6128  H     
60   H        29.8880   29.1714   21.4793  H     
61   H        29.8140   30.7428   22.2721  H     
62   H        27.5800   28.6989   21.8761  H     
63   H        28.2647   29.3169   23.3896  H     
64   H        27.2822   31.6608   22.2917  H     
65   H        26.0974   30.4852   21.7049  H     
66   H        25.7163   29.7021   24.0600  H     
67   H        25.3501   31.4291   23.8389  H     
68   H        26.8531   30.9419   24.6277  H     
@<TRIPOS>BOND
     1    1    4 1
     2    1    5 1
     3    1    8 2
     4    2    3 1
     5    2    9 2
     6    2   26 1
     7    3    4 2
     8    5    6 am
     9    5   14 1
    10    6    7 2
    11    6   23 1
    12    8    9 1
    13    8   10 1
    14    9   13 1
    15   10   11 2
    16   11   12 1
    17   12   13 2
    18   14   18 2
    19   14   19 1
    20   15   16 1
    21   15   19 2
    22   16   17 2
    23   17   18 1
    24   19   20 1
    25   20   21 2
    26   20   22 1
    27   23   24 2
    28   23   25 1
    29   26   27 1
    30   27   28 1
    31   27   32 1
    32   28   29 am
    33   29   30 1
    34   29   31 2
    35   32   33 2
    36   32   34 am
    37   34   35 1
    38   35   36 1
    39   36   37 1
    40   37   38 1
    41   38   39 1
    42    3   40 1
    43    4   41 1
    44   10   42 1
    45   11   43 1
    46   12   44 1
    47   13   45 1
    48   15   46 1
    49   16   47 1
    50   17   48 1
    51   18   49 1
    52   26   50 1
    53   26   51 1
    54   27   52 1
    55   28   53 1
    56   30   54 1
    57   30   55 1
    58   30   56 1
    59   34   57 1
    60   35   58 1
    61   35   59 1
    62   36   60 1
    63   36   61 1
    64   37   62 1
    65   37   63 1
    66   38   64 1
    67   38   65 1
    68   39   66 1
    69   39   67 1
    70   39   68 1
@<TRIPOS>PROPERTY_DATA
  Total_Score	| 13.3965
  Crash		| -2.1801
  Polar		| 9.7897
  FragIndex	| 1
  FragRMSD	| 0.102

