@<TRIPOS>MOLECULE
BindingDB_50308852
 83 85 0 0 0
SMALL
NO_CHARGES


@<TRIPOS>ATOM
1    C        34.7559   23.4298   21.3406  C     
2    C        33.7576   24.4085   21.3707  C     
3    C        34.0621   25.6908   21.8444  C     
4    C        35.3661   26.0441   22.2795  C     
5    C        36.3891   25.0354   22.2737  C     
6    C        36.0528   23.7415   21.7869  C     
7    N        35.5568   27.3435   22.7535  N     
8    C        35.0898   28.3989   21.9659  C     
9    C        35.8757   27.5725   24.0478  C     
10   C        36.2378   28.8176   24.5372  C     
11   O        35.9397   26.6605   24.8672  O     
12   C        37.7333   25.2358   22.7160  C     
13   O        38.6218   24.2201   22.7652  O     
14   O        38.2593   26.4325   23.0697  O     
15   C        35.7982   28.9521   20.8574  C     
16   C        35.1918   29.9854   20.0982  C     
17   C        33.9137   30.4917   20.4081  C     
18   C        33.2309   29.9509   21.5133  C     
19   C        33.8031   28.9167   22.2658  C     
20   C        37.1792   28.5374   20.4713  C     
21   C        37.2641   27.9837   19.0299  C     
22   O        35.4816   29.4683   25.4536  O     
23   O        37.4497   29.3341   24.2220  O     
24   C        33.2932   31.5389   19.5567  C     
25   C        32.4810   30.9359   18.3689  C     
26   N        32.0447   31.9813   17.4842  N     
27   C        32.7903   32.6340   16.5986  C     
28   O        33.9769   32.3716   16.4431  O     
29   C        32.1701   33.6715   15.8101  C     
30   C        31.3009   30.1931   18.8191  C     
31   N        30.3422   30.8227   19.4885  N     
32   O        31.2233   28.9927   18.5882  O     
33   C        29.1404   30.2789   20.0487  C     
34   C        29.2851   30.0794   21.5888  C     
35   C        28.0779   30.5610   22.4408  C     
36   C        26.7121   29.8765   22.1467  C     
37   O        26.4289   28.8704   23.1485  O     
38   C        25.1056   28.7287   23.5083  C     
39   C        24.4275   29.8466   24.0402  C     
40   C        23.1031   29.7267   24.4925  C     
41   C        22.4417   28.4886   24.4027  C     
42   C        23.1077   27.3615   23.8873  C     
43   C        24.4473   27.4735   23.4400  C     
44   C        25.1268   26.3503   22.9321  C     
45   O        25.4622   26.3280   21.6165  O     
46   O        25.4057   25.3114   23.7557  O     
47   C        26.1515   25.2854   20.9292  C     
48   O        22.4409   26.1879   23.7606  O     
49   H        34.5435   22.4888   20.9913  H     
50   H        32.8141   24.1807   21.0522  H     
51   H        33.2995   26.3695   21.8728  H     
52   H        36.7481   22.9937   21.7455  H     
53   H        35.6993   30.3927   19.3070  H     
54   H        32.3076   30.3017   21.7770  H     
55   H        33.2648   28.5301   23.0471  H     
56   H        37.8515   29.3985   20.5642  H     
57   H        37.5639   27.7770   21.1432  H     
58   H        36.5843   27.1361   18.9113  H     
59   H        38.2807   27.6512   18.8183  H     
60   H        36.9964   28.7584   18.3062  H     
61   H        32.6512   32.1910   20.1594  H     
62   H        34.0887   32.1772   19.1729  H     
63   H        33.1334   30.2546   17.8133  H     
64   H        31.1188   32.2620   17.5521  H     
65   H        31.3187   33.2597   15.2701  H     
66   H        32.8711   34.0933   15.0859  H     
67   H        31.8255   34.4717   16.4630  H     
68   H        30.4767   31.7728   19.6397  H     
69   H        28.3447   30.9862   19.8225  H     
70   H        28.8676   29.3218   19.5894  H     
71   H        29.4776   29.0232   21.8066  H     
72   H        30.1571   30.6308   21.9520  H     
73   H        28.3349   30.4267   23.4960  H     
74   H        27.9742   31.6425   22.2929  H     
75   H        25.9406   30.6548   22.0983  H     
76   H        26.7174   29.3817   21.1770  H     
77   H        24.9071   30.7497   24.1056  H     
78   H        22.6216   30.5455   24.8795  H     
79   H        21.4753   28.4206   24.7245  H     
80   H        27.1494   25.1527   21.3449  H     
81   H        26.2428   25.5622   19.8806  H     
82   H        25.5988   24.3481   21.0002  H     
83   H        21.6673   26.2299   24.3799  H     
@<TRIPOS>BOND
     1    1    2 2
     2    1    6 1
     3    2    3 1
     4    3    4 2
     5    4    5 1
     6    4    7 1
     7    5    6 2
     8    5   12 1
     9    7    8 1
    10    7    9 am
    11    8   15 2
    12    8   19 1
    13    9   10 1
    14    9   11 2
    15   10   22 1
    16   10   23 2
    17   12   13 2
    18   12   14 1
    19   15   16 1
    20   15   20 1
    21   16   17 2
    22   17   18 1
    23   17   24 1
    24   18   19 2
    25   20   21 1
    26   24   25 1
    27   25   26 1
    28   25   30 1
    29   26   27 am
    30   27   28 2
    31   27   29 1
    32   30   31 am
    33   30   32 2
    34   31   33 1
    35   33   34 1
    36   34   35 1
    37   35   36 1
    38   36   37 1
    39   37   38 1
    40   38   39 2
    41   38   43 1
    42   39   40 1
    43   40   41 2
    44   41   42 1
    45   42   43 2
    46   42   48 1
    47   43   44 1
    48   44   45 1
    49   44   46 2
    50   45   47 1
    51    1   49 1
    52    2   50 1
    53    3   51 1
    54    6   52 1
    55   16   53 1
    56   18   54 1
    57   19   55 1
    58   20   56 1
    59   20   57 1
    60   21   58 1
    61   21   59 1
    62   21   60 1
    63   24   61 1
    64   24   62 1
    65   25   63 1
    66   26   64 1
    67   29   65 1
    68   29   66 1
    69   29   67 1
    70   31   68 1
    71   33   69 1
    72   33   70 1
    73   34   71 1
    74   34   72 1
    75   35   73 1
    76   35   74 1
    77   36   75 1
    78   36   76 1
    79   39   77 1
    80   40   78 1
    81   41   79 1
    82   47   80 1
    83   47   81 1
    84   47   82 1
    85   48   83 1
@<TRIPOS>PROPERTY_DATA
  Total_Score	| 19.2243
  Crash		| -2.6045
  Polar		| 15.2377
  FragIndex	| 1
  FragRMSD	| 0.440

