@<TRIPOS>MOLECULE
BindingDB_50149232
 87 91 0 0 0
SMALL
NO_CHARGES


@<TRIPOS>ATOM
1    C        38.9310   27.4792   24.0172  C     
2    C        40.1561   28.0493   23.6316  C     
3    C        40.3678   28.4149   22.2943  C     
4    C        39.3554   28.2085   21.3480  C     
5    C        38.1185   27.6224   21.7148  C     
6    C        37.8863   27.2581   23.0820  C     
7    C        36.6704   26.6600   23.5473  C     
8    O        35.5552   26.5708   22.7863  O     
9    O        36.5087   26.2588   24.8319  O     
10   N        37.2257   27.3559   20.6915  N     
11   C        36.5294   28.4447   20.1612  C     
12   C        37.0448   26.1046   20.2081  C     
13   C        37.8037   24.9679   20.5055  C     
14   O        36.1194   25.9010   19.4264  O     
15   O        38.8451   24.9587   21.3710  O     
16   O        37.5939   23.7973   19.8509  O     
17   C        34.8686   30.5207   19.0569  C     
18   C        34.6347   29.9944   20.3464  C     
19   C        35.4415   28.9821   20.8848  C     
20   C        35.9981   30.0382   18.3285  C     
21   C        36.8387   29.0195   18.8915  C     
22   C        37.9749   28.6167   18.1571  C     
23   C        38.2381   29.1356   16.9436  C     
24   C        37.4285   30.0743   16.3904  C     
25   C        33.8985   31.5447   18.5349  C     
26   C        32.6981   30.9242   17.7467  C     
27   C        31.8341   30.1094   18.5994  C     
28   N        31.9016   31.9436   17.1138  N     
29   C        36.3416   30.5272   17.0479  C     
30   C        32.2014   32.5994   16.0003  C     
31   C        31.2419   33.5494   15.4843  C     
32   O        33.2413   32.3930   15.3839  O     
33   O        31.7692   28.9026   18.3917  O     
34   N        31.1659   30.6564   19.6138  N     
35   C        30.3700   29.9814   20.5968  C     
36   C        28.9100   30.5007   20.6329  C     
37   C        28.0783   29.9445   21.8335  C     
38   C        27.1542   31.0215   22.4774  C     
39   C        26.0770   30.4551   23.4462  C     
40   O        24.9405   29.9870   22.6810  O     
41   C        23.8387   29.6508   23.3836  C     
42   C        22.8562   30.5859   23.4616  C     
43   C        22.4254   28.0220   24.3983  C     
44   C        23.6351   28.3501   23.8566  C     
45   C        21.3804   28.9455   24.4639  C     
46   C        21.6056   30.2680   23.9905  C     
47   C        20.5487   31.2071   24.0228  C     
48   C        19.2911   30.8471   24.5489  C     
49   C        19.0725   29.5454   25.0377  C     
50   C        20.1068   28.5927   24.9832  C     
51   C        24.6397   27.3804   23.7900  C     
52   O        25.7074   27.5064   22.9649  O     
53   O        24.6067   26.2395   24.5296  O     
54   H        38.8133   27.2378   25.0044  H     
55   H        40.8954   28.1931   24.3222  H     
56   H        41.2610   28.8279   22.0130  H     
57   H        39.5399   28.4637   20.3751  H     
58   H        33.8397   30.3218   20.9061  H     
59   H        35.2093   28.6196   21.8111  H     
60   H        38.6116   27.9533   18.5307  H     
61   H        39.0458   28.8293   16.4477  H     
62   H        37.6459   30.4344   15.4889  H     
63   H        33.5068   32.1611   19.3517  H     
64   H        34.4415   32.2420   17.8960  H     
65   H        33.1052   30.2762   16.9601  H     
66   H        31.0392   32.1530   17.5123  H     
67   H        35.7924   31.2163   16.5938  H     
68   H        30.2817   33.0530   15.3176  H     
69   H        31.5734   33.9817   14.5373  H     
70   H        31.1017   34.3631   16.2007  H     
71   H        31.2689   31.6115   19.7320  H     
72   H        30.3573   28.8974   20.4486  H     
73   H        30.8391   30.1740   21.5649  H     
74   H        28.9462   31.5897   20.6824  H     
75   H        28.4116   30.2252   19.6981  H     
76   H        27.4757   29.1001   21.4777  H     
77   H        28.7523   29.5702   22.6131  H     
78   H        27.7904   31.7155   23.0365  H     
79   H        26.6583   31.5994   21.6936  H     
80   H        26.5099   29.6388   24.0341  H     
81   H        25.7777   31.2537   24.1328  H     
82   H        23.0018   31.4925   23.0704  H     
83   H        22.2467   27.0902   24.7156  H     
84   H        20.6890   32.1641   23.6857  H     
85   H        18.5349   31.5364   24.5865  H     
86   H        18.1535   29.2872   25.4182  H     
87   H        19.9274   27.6476   25.3253  H     
@<TRIPOS>BOND
     1    1    2 2
     2    1    6 1
     3    2    3 1
     4    3    4 2
     5    4    5 1
     6    5    6 2
     7    5   10 1
     8    6    7 1
     9    7    8 1
    10    7    9 2
    11   10   11 1
    12   10   12 am
    13   11   19 1
    14   11   21 2
    15   12   13 1
    16   12   14 2
    17   13   15 2
    18   13   16 1
    19   17   18 1
    20   17   20 2
    21   17   25 1
    22   18   19 2
    23   20   21 1
    24   20   29 1
    25   21   22 1
    26   22   23 2
    27   23   24 1
    28   24   29 2
    29   25   26 1
    30   26   27 1
    31   26   28 1
    32   27   33 2
    33   27   34 am
    34   28   30 am
    35   30   31 1
    36   30   32 2
    37   34   35 1
    38   35   36 1
    39   36   37 1
    40   37   38 1
    41   38   39 1
    42   39   40 1
    43   40   41 1
    44   41   42 2
    45   41   44 1
    46   42   46 1
    47   43   44 2
    48   43   45 1
    49   44   51 1
    50   45   46 1
    51   45   50 2
    52   46   47 2
    53   47   48 1
    54   48   49 2
    55   49   50 1
    56   51   52 1
    57   51   53 2
    58    1   54 1
    59    2   55 1
    60    3   56 1
    61    4   57 1
    62   18   58 1
    63   19   59 1
    64   22   60 1
    65   23   61 1
    66   24   62 1
    67   25   63 1
    68   25   64 1
    69   26   65 1
    70   28   66 1
    71   29   67 1
    72   31   68 1
    73   31   69 1
    74   31   70 1
    75   34   71 1
    76   35   72 1
    77   35   73 1
    78   36   74 1
    79   36   75 1
    80   37   76 1
    81   37   77 1
    82   38   78 1
    83   38   79 1
    84   39   80 1
    85   39   81 1
    86   42   82 1
    87   43   83 1
    88   47   84 1
    89   48   85 1
    90   49   86 1
    91   50   87 1
@<TRIPOS>PROPERTY_DATA
  Total_Score	| 12.1191
  Crash		| -1.9763
  Polar		| 7.9661
  FragIndex	| 1
  FragRMSD	| 0.832

