@<TRIPOS>MOLECULE
BindingDB_50131548
 93 96 0 0 0
SMALL
NO_CHARGES


@<TRIPOS>ATOM
1    N        35.5485   27.2675   22.7655  N     
2    C        35.3470   25.9379   22.3739  C     
3    C        24.5556   28.2351   22.2443  C     
4    C        35.8348   27.5890   24.0363  C     
5    C        23.1501   28.3184   22.4542  C     
6    C        36.3519   24.9114   22.4645  C     
7    C        35.0949   28.2895   21.9187  C     
8    C        22.6357   29.1390   23.4892  C     
9    C        37.6777   25.0949   22.9507  C     
10   C        25.0646   27.3000   21.3196  C     
11   C        36.1730   28.8558   24.4761  C     
12   C        35.7916   28.7437   20.7590  C     
13   C        31.4530   29.9559   18.7789  C     
14   C        32.5361   30.8376   18.3390  C     
15   N        32.0029   31.9091   17.5427  N     
16   C        23.5226   29.8837   24.2954  C     
17   C        25.4383   29.0180   23.0386  C     
18   C        33.8645   28.9048   22.2625  C     
19   C        32.6302   32.5894   16.5932  C     
20   O        35.9476   26.7126   24.8902  O     
21   C        35.2345   29.8097   20.0055  C     
22   C        33.3724   31.4568   19.5031  C     
23   C        34.0121   30.4242   20.3654  C     
24   O        38.6798   24.2493   22.5998  O     
25   O        24.4372   27.0910   20.1385  O     
26   O        35.4098   29.5099   25.3866  O     
27   C        21.2540   29.1606   23.7861  C     
28   O        31.2878   28.9057   18.1643  O     
29   C        24.9065   29.8183   24.0718  C     
30   O        33.7704   32.3149   16.2317  O     
31   O        22.3031   27.5361   21.7098  O     
32   N        30.7313   30.2260   19.8651  N     
33   C        33.3367   29.9587   21.5115  C     
34   O        38.0384   26.0638   23.8309  O     
35   O        37.3979   29.3726   24.1956  O     
36   O        26.1051   26.5057   21.6955  O     
37   C        36.0199   23.5990   22.0318  C     
38   C        34.0589   25.5759   21.8844  C     
39   O        26.8042   28.9244   22.8870  O     
40   C        37.0642   28.1444   20.2768  C     
41   C        31.9596   33.7055   15.9753  C     
42   C        20.7433   28.3736   24.8436  C     
43   C        20.3649   29.9023   22.9778  C     
44   C        29.8002   29.3345   20.5080  C     
45   C        27.5831   30.1400   22.7762  C     
46   C        26.6650   25.4479   20.9096  C     
47   C        28.3202   29.7472   20.2843  C     
48   C        27.6999   30.7053   21.3384  C     
49   C        34.7562   23.2908   21.5106  C     
50   C        38.3154   28.9318   20.7341  C     
51   C        33.7683   24.2763   21.4452  C     
52   C        19.3540   28.3040   25.0659  C     
53   C        18.9793   29.8315   23.2024  C     
54   C        18.4743   29.0277   24.2418  C     
55   H        33.2414   30.2443   17.7434  H     
56   H        31.0989   32.1994   17.7499  H     
57   H        23.1654   30.4743   25.0492  H     
58   H        33.3334   28.5756   23.0763  H     
59   H        35.7076   30.1374   19.1561  H     
60   H        34.1559   32.0907   19.0753  H     
61   H        32.7369   32.1149   20.1098  H     
62   H        25.5356   30.3338   24.6877  H     
63   H        21.5726   28.1178   21.4139  H     
64   H        30.9059   31.0668   20.3164  H     
65   H        32.4387   30.3658   21.7955  H     
66   H        36.6995   22.8364   22.0831  H     
67   H        33.3105   26.2668   21.8300  H     
68   H        37.1679   27.1091   20.6200  H     
69   H        37.0474   28.1036   19.1853  H     
70   H        31.0218   33.3754   15.5240  H     
71   H        32.5754   34.1634   15.1960  H     
72   H        31.7432   34.4661   16.7283  H     
73   H        21.3730   27.8279   25.4411  H     
74   H        20.7199   30.4816   22.2100  H     
75   H        29.9087   28.3095   20.1588  H     
76   H        30.0276   29.3270   21.5757  H     
77   H        27.2006   30.9382   23.4232  H     
78   H        28.5811   29.9062   23.1447  H     
79   H        25.8901   24.7239   20.6380  H     
80   H        27.4296   24.9365   21.4954  H     
81   H        27.1191   25.8518   20.0016  H     
82   H        28.2519   30.2303   19.3003  H     
83   H        27.7116   28.8460   20.2447  H     
84   H        26.6912   30.9696   21.0072  H     
85   H        28.2888   31.6250   21.3696  H     
86   H        34.5542   22.3341   21.1988  H     
87   H        38.2800   29.9618   20.3597  H     
88   H        39.2151   28.4475   20.3410  H     
89   H        38.3767   28.9480   21.8263  H     
90   H        32.8419   24.0453   21.0822  H     
91   H        18.9841   27.7133   25.8125  H     
92   H        18.3393   30.3505   22.5997  H     
93   H        17.4652   28.9586   24.3869  H     
@<TRIPOS>BOND
     1    1    2 1
     2    1    4 am
     3    1    7 1
     4    2    6 2
     5    2   38 1
     6    3    5 1
     7    3   10 1
     8    3   17 2
     9    4   11 1
    10    4   20 2
    11    5    8 2
    12    5   31 1
    13    6    9 1
    14    6   37 1
    15    7   12 2
    16    7   18 1
    17    8   16 1
    18    8   27 1
    19    9   24 2
    20    9   34 1
    21   10   25 2
    22   10   36 1
    23   11   26 2
    24   11   35 1
    25   12   21 1
    26   12   40 1
    27   13   14 1
    28   13   28 2
    29   13   32 am
    30   14   15 1
    31   14   22 1
    32   15   19 am
    33   16   29 2
    34   17   29 1
    35   17   39 1
    36   18   33 2
    37   19   30 2
    38   19   41 1
    39   21   23 2
    40   22   23 1
    41   23   33 1
    42   27   42 1
    43   27   43 2
    44   32   44 1
    45   36   46 1
    46   37   49 2
    47   38   51 2
    48   39   45 1
    49   40   50 1
    50   42   52 2
    51   43   53 1
    52   44   47 1
    53   45   48 1
    54   47   48 1
    55   49   51 1
    56   52   54 1
    57   53   54 2
    58   14   55 1
    59   15   56 1
    60   16   57 1
    61   18   58 1
    62   21   59 1
    63   22   60 1
    64   22   61 1
    65   29   62 1
    66   31   63 1
    67   32   64 1
    68   33   65 1
    69   37   66 1
    70   38   67 1
    71   40   68 1
    72   40   69 1
    73   41   70 1
    74   41   71 1
    75   41   72 1
    76   42   73 1
    77   43   74 1
    78   44   75 1
    79   44   76 1
    80   45   77 1
    81   45   78 1
    82   46   79 1
    83   46   80 1
    84   46   81 1
    85   47   82 1
    86   47   83 1
    87   48   84 1
    88   48   85 1
    89   49   86 1
    90   50   87 1
    91   50   88 1
    92   50   89 1
    93   51   90 1
    94   52   91 1
    95   53   92 1
    96   54   93 1
@<TRIPOS>PROPERTY_DATA
  Total_Score	| 17.4468
  Crash		| -2.5625
  Polar		| 13.9746
  FragIndex	| 1
  FragRMSD	| 0.746

