@<TRIPOS>MOLECULE
BindingDB_50008294
 56 58 0 0 0
SMALL
NO_CHARGES


@<TRIPOS>ATOM
1    N        13.8969   18.8069   32.6943  N     
2    C        13.0166   18.7824   31.6609  C     
3    N        13.1867   17.8810   30.6602  N     
4    C        14.9245   17.9835   32.7823  C     
5    C        15.1173   16.9968   31.8028  C     
6    C        14.2075   16.9721   30.7090  C     
7    C        14.3481   15.9898   29.7113  C     
8    C        15.3207   14.9792   29.8469  C     
9    C        16.1805   14.9443   30.9682  C     
10   C        16.1077   16.0002   31.9019  C     
11   O        15.6518   18.0957   33.7576  O     
12   N        11.9772   19.6290   31.6777  N     
13   C        17.0793   13.7659   31.1993  C     
14   N        17.3383   13.4358   32.6153  N     
15   C        16.2980   13.1233   33.4928  C     
16   C        18.7308   13.4943   33.0393  C     
17   C        19.0116   14.6586   33.6991  C     
18   C        16.5173   12.9196   34.8856  C     
19   C        15.4632   12.6598   35.7812  C     
20   C        14.1185   12.6081   35.3455  C     
21   C        13.8885   12.7887   33.9599  C     
22   C        14.9468   13.0198   33.0631  C     
23   C        13.0574   12.3783   36.2239  C     
24   N        13.2115   11.6106   37.3065  N     
25   O        11.9268   12.7921   35.9633  O     
26   C        12.1777   11.1303   38.1851  C     
27   C        11.5861   12.2406   38.9846  C     
28   C        11.1129   10.2750   37.4194  C     
29   C        11.4052    8.7553   37.3741  C     
30   O        11.2762   12.0746   40.2923  O     
31   O        11.2961   13.4463   38.4314  O     
32   C        12.4627    8.3859   36.4172  C     
33   O        12.1460    7.9710   35.1710  O     
34   O        13.7241    8.1936   36.8544  O     
35   C        19.2653   15.6762   34.2765  C     
36   H        12.5536   17.8555   29.9306  H     
37   H        13.7157   15.9760   28.9099  H     
38   H        15.3675   14.2416   29.1361  H     
39   H        16.7478   16.0152   32.7026  H     
40   H        11.3162   19.6135   30.9645  H     
41   H        11.8840   20.2533   32.4172  H     
42   H        16.6513   12.8761   30.7339  H     
43   H        17.9897   13.9933   30.6350  H     
44   H        18.9761   12.6399   33.6760  H     
45   H        19.4262   13.4347   32.1943  H     
46   H        17.4403   12.9940   35.2931  H     
47   H        15.6850   12.5491   36.7778  H     
48   H        12.9401   12.7257   33.5817  H     
49   H        14.7013   13.1116   32.0790  H     
50   H        14.1050   11.2677   37.4751  H     
51   H        12.6797   10.4884   38.9059  H     
52   H        10.1353   10.3766   37.9103  H     
53   H        11.0134   10.6234   36.3830  H     
54   H        11.6763    8.3921   38.3714  H     
55   H        10.4789    8.2451   37.0794  H     
56   H        19.4613   16.4601   34.7277  H     
@<TRIPOS>BOND
     1    1    2 2
     2    1    4 1
     3    2    3 1
     4    2   12 1
     5    3    6 1
     6    4    5 1
     7    4   11 2
     8    5    6 2
     9    5   10 1
    10    6    7 1
    11    7    8 2
    12    8    9 1
    13    9   10 2
    14    9   13 1
    15   13   14 1
    16   14   15 1
    17   14   16 1
    18   15   18 2
    19   15   22 1
    20   16   17 1
    21   17   35 3
    22   18   19 1
    23   19   20 2
    24   20   21 1
    25   20   23 1
    26   21   22 2
    27   23   24 am
    28   23   25 2
    29   24   26 1
    30   26   27 1
    31   26   28 1
    32   27   30 2
    33   27   31 1
    34   28   29 1
    35   29   32 1
    36   32   33 1
    37   32   34 2
    38    3   36 1
    39    7   37 1
    40    8   38 1
    41   10   39 1
    42   12   40 1
    43   12   41 1
    44   13   42 1
    45   13   43 1
    46   16   44 1
    47   16   45 1
    48   18   46 1
    49   19   47 1
    50   21   48 1
    51   22   49 1
    52   24   50 1
    53   26   51 1
    54   28   52 1
    55   28   53 1
    56   29   54 1
    57   29   55 1
    58   35   56 1
@<TRIPOS>PROPERTY_DATA
  Total_Score	| 7.5096
  Crash		| -1.1391
  Polar		| 4.2259
  FragIndex	| 1
  FragRMSD	| 0.908

