@<TRIPOS>MOLECULE
BindingDB_13174
 82 85 0 0 0
SMALL
NO_CHARGES


@<TRIPOS>ATOM
1    C        -8.8632  -10.6826   -2.5867  C     
2    N        -8.2594   -9.5193   -1.8876  N     
3    C        -7.0008   -9.7478   -1.1164  C     
4    C        -7.2460   -9.6111    0.3081  C     
5    C        -5.8703   -8.7875   -1.5925  C     
6    O        -7.8033   -8.5961    0.7232  O     
7    N        -6.9156  -10.5970    1.1501  N     
8    C        -7.2748  -10.7796    2.5347  C     
9    C        -7.3161  -13.4023    2.3887  C     
10   C        -8.1569  -12.1046    2.6389  C     
11   C        -8.8236  -12.2377    4.0455  C     
12   C        -9.3175  -12.0707    1.5837  C     
13   C        -6.0658  -10.7689    3.3911  C     
14   O        -5.0493  -11.2124    2.8716  O     
15   C        -4.8385  -10.6764    5.5340  C     
16   C        -6.9800   -9.6201    5.4070  C     
17   C        -6.3455   -9.2445    6.7657  C     
18   C        -5.3204  -10.3630    6.9602  C     
19   N        -5.9934  -10.4076    4.6940  N     
20   C        -4.2309  -12.0068    5.5074  C     
21   O        -4.9359  -12.9793    5.2838  O     
22   N        -2.9454  -12.1245    5.8156  N     
23   C        -2.1394  -13.3129    5.9027  C     
24   C         0.1568  -14.1897    7.6598  C     
25   C        -1.1960  -14.9441    7.6648  C     
26   C        -2.3470  -13.9747    7.3048  C     
27   C         0.3722  -13.3425    6.4545  C     
28   C        -0.7083  -12.9649    5.6021  C     
29   C         1.6813  -12.8934    6.1647  C     
30   C        -0.4144  -12.2232    4.4294  C     
31   C         0.8872  -11.7881    4.1507  C     
32   C         1.9354  -12.1048    5.0292  C     
33   O        -7.2397   -9.2523    7.8952  O     
34   C        -8.0388   -8.1795    8.1904  C     
35   C        -9.7228   -6.0836    9.0983  C     
36   C       -10.1838   -7.4156    9.1131  C     
37   C        -9.3501   -8.4495    8.6379  C     
38   C        -7.5835   -6.8383    8.1951  C     
39   C        -8.4131   -5.8016    8.6634  C     
40   H        -8.1697  -11.0691   -3.3292  H     
41   H        -9.7767  -10.3616   -3.0954  H     
42   H        -9.1165  -11.4786   -1.8798  H     
43   H        -8.1030   -8.7988   -2.6028  H     
44   H        -8.9743   -9.1616   -1.2459  H     
45   H        -6.6237  -10.7634   -1.3097  H     
46   H        -5.7037   -8.9080   -2.6653  H     
47   H        -4.9339   -9.0130   -1.0727  H     
48   H        -6.1316   -7.7451   -1.4061  H     
49   H        -6.4017  -11.3194    0.7525  H     
50   H        -7.9062   -9.9440    2.8466  H     
51   H        -6.8183  -13.3699    1.4213  H     
52   H        -7.9496  -14.2868    2.4061  H     
53   H        -6.5555  -13.5325    3.1571  H     
54   H        -8.0754  -12.3466    4.8289  H     
55   H        -9.4607  -13.1191    4.1024  H     
56   H        -9.4475  -11.3654    4.2601  H     
57   H        -9.9120  -11.1608    1.6898  H     
58   H        -9.9872  -12.9251    1.7026  H     
59   H        -8.9286  -12.1020    0.5666  H     
60   H        -4.0856   -9.9405    5.2354  H     
61   H        -7.9002  -10.1786    5.5881  H     
62   H        -7.2222   -8.6979    4.8677  H     
63   H        -5.7942   -8.2984    6.7033  H     
64   H        -5.8073  -11.2308    7.4219  H     
65   H        -4.4968  -10.0406    7.6067  H     
66   H        -2.4703  -11.2901    5.9805  H     
67   H        -2.4654  -14.0224    5.1393  H     
68   H         0.2213  -13.5462    8.5418  H     
69   H         0.9526  -14.9396    7.7296  H     
70   H        -1.1628  -15.7550    6.9328  H     
71   H        -1.3727  -15.3824    8.6532  H     
72   H        -2.4042  -13.1998    8.0803  H     
73   H        -3.2811  -14.5415    7.3257  H     
74   H         2.4564  -13.1387    6.7856  H     
75   H        -1.1622  -11.9752    3.7764  H     
76   H         1.0758  -11.2285    3.3193  H     
77   H         2.8868  -11.7905    4.8357  H     
78   H       -10.3223   -5.3216    9.4302  H     
79   H       -11.1174   -7.6253    9.4581  H     
80   H        -9.6982   -9.4111    8.6538  H     
81   H        -6.6515   -6.6179    7.8538  H     
82   H        -8.0760   -4.8346    8.6455  H     
@<TRIPOS>BOND
     1    1    2 1
     2    2    3 1
     3    3    4 1
     4    3    5 1
     5    4    6 2
     6    4    7 am
     7    7    8 1
     8    8   10 1
     9    8   13 1
    10    9   10 1
    11   10   11 1
    12   10   12 1
    13   13   14 2
    14   13   19 am
    15   15   18 1
    16   15   19 1
    17   15   20 1
    18   16   17 1
    19   16   19 1
    20   17   18 1
    21   17   33 1
    22   20   21 2
    23   20   22 am
    24   23   22 1
    25   23   26 1
    26   23   28 1
    27   24   25 1
    28   24   27 1
    29   25   26 1
    30   27   28 2
    31   27   29 1
    32   28   30 1
    33   29   32 2
    34   30   31 2
    35   31   32 1
    36   33   34 1
    37   34   37 1
    38   34   38 2
    39   35   36 1
    40   35   39 2
    41   36   37 2
    42   38   39 1
    43    1   40 1
    44    1   41 1
    45    1   42 1
    46    2   43 1
    47    2   44 1
    48    3   45 1
    49    5   46 1
    50    5   47 1
    51    5   48 1
    52    7   49 1
    53    8   50 1
    54    9   51 1
    55    9   52 1
    56    9   53 1
    57   11   54 1
    58   11   55 1
    59   11   56 1
    60   12   57 1
    61   12   58 1
    62   12   59 1
    63   15   60 1
    64   16   61 1
    65   16   62 1
    66   17   63 1
    67   18   64 1
    68   18   65 1
    69   22   66 1
    70   23   67 1
    71   24   68 1
    72   24   69 1
    73   25   70 1
    74   25   71 1
    75   26   72 1
    76   26   73 1
    77   29   74 1
    78   30   75 1
    79   31   76 1
    80   32   77 1
    81   35   78 1
    82   36   79 1
    83   37   80 1
    84   38   81 1
    85   39   82 1
@<TRIPOS>PROPERTY_DATA
  Total_Score	| 10.3963
  Crash		| -2.6285
  Polar		| 5.9985
  FragIndex	| 1
  FragRMSD	| 0.270

