@<TRIPOS>MOLECULE
BindingDB_11937
 43 45 0 0 0
SMALL
NO_CHARGES


@<TRIPOS>ATOM
1    C        -3.8434    3.8865   13.5312  C     
2    C        -4.2627    5.1823   12.7816  C     
3    N        -4.4058    6.3131   13.6770  N     
4    S        -5.6168    6.1550   14.8516  S     
5    O        -5.2857    6.9141   16.2149  O     
6    O        -7.0590    6.5594   14.3015  O     
7    C        -4.7733    3.5391   14.6373  C     
8    C        -5.6205    4.4709   15.2555  C     
9    C        -4.8599    2.2526   15.2198  C     
10   C        -5.7881    2.1461   16.2539  C     
11   S        -6.5150    3.6855   16.4949  S     
12   O        -5.9326   -0.5928   16.2978  O     
13   O        -5.1478    0.6167   18.3825  O     
14   S        -6.1545    0.7194   17.1588  S     
15   N        -7.6990    0.6511   17.7975  N     
16   C        -3.7349    7.4961   13.5146  C     
17   C        -3.1656    8.1998   14.6139  C     
18   C        -2.5221    9.4454   14.4067  C     
19   C        -2.4069    9.9589   13.0948  C     
20   C        -2.9573    9.2707   12.0012  C     
21   C        -3.6264    8.0512   12.2176  C     
22   O        -2.0873   10.2711   15.4131  O     
23   C        -1.5886    9.6705   16.6137  C     
24   N        -2.4889    3.9607   14.1265  N     
25   C        -1.3467    4.1828   13.2154  C     
26   H        -3.8623    3.0688   12.8028  H     
27   H        -3.5380    5.3829   11.9865  H     
28   H        -5.2192    5.0153   12.2681  H     
29   H        -4.2820    1.4698   14.9136  H     
30   H        -7.8220    0.6887   18.7626  H     
31   H        -8.4666    0.7405   17.2075  H     
32   H        -3.2462    7.7939   15.5643  H     
33   H        -1.9339   10.8573   12.9219  H     
34   H        -2.9048    9.6643   11.0603  H     
35   H        -4.0525    7.5828   11.4155  H     
36   H        -2.3904    9.1487   17.1384  H     
37   H        -1.1950   10.4705   17.2552  H     
38   H        -0.7704    8.9829   16.4017  H     
39   H        -2.4816    4.7101   14.8262  H     
40   H        -2.3193    3.0756   14.6020  H     
41   H        -1.3360    3.4290   12.4260  H     
42   H        -0.4277    4.1067   13.7873  H     
43   H        -1.3823    5.1786   12.7772  H     
@<TRIPOS>BOND
     1    1    2 1
     2    1    7 1
     3    1   24 1
     4    2    3 1
     5    3    4 1
     6    3   16 1
     7    4    5 2
     8    4    6 2
     9    4    8 1
    10    7    8 2
    11    7    9 1
    12    8   11 1
    13    9   10 2
    14   10   11 1
    15   10   14 1
    16   12   14 2
    17   13   14 2
    18   14   15 am
    19   16   17 2
    20   16   21 1
    21   17   18 1
    22   18   19 2
    23   18   22 1
    24   19   20 1
    25   20   21 2
    26   22   23 1
    27   24   25 1
    28    1   26 1
    29    2   27 1
    30    2   28 1
    31    9   29 1
    32   15   30 1
    33   15   31 1
    34   17   32 1
    35   19   33 1
    36   20   34 1
    37   21   35 1
    38   23   36 1
    39   23   37 1
    40   23   38 1
    41   24   39 1
    42   24   40 1
    43   25   41 1
    44   25   42 1
    45   25   43 1
@<TRIPOS>PROPERTY_DATA
  Total_Score	| 4.7646
  Crash		| -2.7582
  Polar		| 3.0300
  FragIndex	| 1
  FragRMSD	| 1.157

