@<TRIPOS>MOLECULE
BindingDB_11936
 43 45 0 0 0
SMALL
NO_CHARGES


@<TRIPOS>ATOM
1    C        -3.2411    4.0019   14.0717  C     
2    C        -3.6177    5.1885   13.1261  C     
3    N        -4.0899    6.3552   13.8349  N     
4    S        -5.4754    6.1682   14.7945  S     
5    O        -5.4556    7.0031   16.1514  O     
6    O        -6.8079    6.3807   13.9503  O     
7    C        -4.3613    3.6384   14.9935  C     
8    C        -5.4016    4.5242   15.3210  C     
9    C        -4.4953    2.4008   15.6537  C     
10   C        -5.6467    2.2661   16.4230  C     
11   S        -6.5208    3.7406   16.3560  S     
12   O        -6.0357   -0.4572   16.4023  O     
13   O        -5.1418    0.6934   18.5179  O     
14   S        -6.1367    0.8558   17.2891  S     
15   N        -7.6805    1.0157   17.9232  N     
16   C        -3.5855    7.6047   13.6299  C     
17   C        -3.1137    8.3843   14.7252  C     
18   C        -2.5375    9.6532   14.5094  C     
19   C        -2.4351   10.1492   13.1899  C     
20   C        -2.8874    9.3886   12.0966  C     
21   C        -3.4675    8.1270   12.3131  C     
22   O        -2.0939   10.4904   15.5063  O     
23   C        -1.4897    9.8896   16.6700  C     
24   N        -2.8251    2.8121   13.2841  N     
25   C        -1.6539    2.9203   12.3847  C     
26   H        -2.4009    4.3188   14.6916  H     
27   H        -2.7509    5.4553   12.5127  H     
28   H        -4.4168    4.8799   12.4460  H     
29   H        -3.8227    1.6406   15.5611  H     
30   H        -7.8216    0.8739   18.8788  H     
31   H        -8.3526    1.5077   17.4116  H     
32   H        -3.1615    8.0328   15.6923  H     
33   H        -2.0231   11.0636   13.0192  H     
34   H        -2.8046    9.7510   11.1467  H     
35   H        -3.7959    7.5802   11.5056  H     
36   H        -2.2564    9.3860   17.2670  H     
37   H        -1.0252   10.6883   17.2758  H     
38   H        -0.7099    9.1779   16.3973  H     
39   H        -2.5600    2.1008   13.9579  H     
40   H        -3.6207    2.4723   12.7350  H     
41   H        -1.9000    3.4963   11.4927  H     
42   H        -1.3584    1.9136   12.0767  H     
43   H        -0.8109    3.3794   12.9085  H     
@<TRIPOS>BOND
     1    1    2 1
     2    1    7 1
     3    1   24 1
     4    2    3 1
     5    3    4 1
     6    3   16 1
     7    4    5 2
     8    4    6 2
     9    4    8 1
    10    7    8 2
    11    7    9 1
    12    8   11 1
    13    9   10 2
    14   10   11 1
    15   10   14 1
    16   12   14 2
    17   13   14 2
    18   14   15 am
    19   16   17 2
    20   16   21 1
    21   17   18 1
    22   18   19 2
    23   18   22 1
    24   19   20 1
    25   20   21 2
    26   22   23 1
    27   24   25 1
    28    1   26 1
    29    2   27 1
    30    2   28 1
    31    9   29 1
    32   15   30 1
    33   15   31 1
    34   17   32 1
    35   19   33 1
    36   20   34 1
    37   21   35 1
    38   23   36 1
    39   23   37 1
    40   23   38 1
    41   24   39 1
    42   24   40 1
    43   25   41 1
    44   25   42 1
    45   25   43 1
@<TRIPOS>PROPERTY_DATA
  Total_Score	| 5.3510
  Crash		| -2.5187
  Polar		| 3.1456
  FragIndex	| 1
  FragRMSD	| 0.996

