@<TRIPOS>MOLECULE
BindingDB_50221593
 39 42 0 0 0
SMALL
NO_CHARGES


@<TRIPOS>ATOM
1    C        20.2172   -3.9231    8.2068  C     
2    C        20.3078   -5.0237    9.1000  C     
3    C        19.2186   -5.3288    9.9480  C     
4    C        19.0271   -3.1701    8.1233  C     
5    C        17.9534   -3.5156    8.9524  C     
6    C        18.0340   -4.5736    9.8603  C     
7    C        16.7683   -4.7353   10.6129  C     
8    C        16.6918   -2.9799    9.0540  C     
9    C        15.9653   -3.6614    9.9996  C     
10   C        14.7090   -3.0538   10.0184  C     
11   N        14.7907   -2.0687    9.0918  N     
12   N        15.9526   -2.0065    8.5180  N     
13   C        13.5595   -3.3222   10.8159  C     
14   C        12.3461   -2.6359   10.5609  C     
15   C        11.2159   -2.8201   11.3765  C     
16   C        11.2543   -3.7292   12.4513  C     
17   C        12.4438   -4.4449   12.7027  C     
18   C        13.5803   -4.2400   11.8945  C     
19   O        21.2293   -3.6033    7.3434  O     
20   C        22.3591   -2.9834    7.9778  C     
21   O        21.4622   -5.7527    9.2081  O     
22   C        21.4158   -7.0361    8.5520  C     
23   C        10.2017   -3.8902   13.2053  C     
24   N         9.2769   -4.0196   13.8733  N     
25   H        19.2809   -6.1041   10.6114  H     
26   H        18.9444   -2.3863    7.4739  H     
27   H        16.3214   -5.7151   10.4318  H     
28   H        16.9181   -4.5591   11.6808  H     
29   H        14.0730   -1.4515    8.8841  H     
30   H        12.2691   -1.9778    9.7818  H     
31   H        10.3709   -2.2777   11.1749  H     
32   H        12.5003   -5.1076   13.4822  H     
33   H        14.4286   -4.7593   12.1215  H     
34   H        23.0931   -2.7530    7.2070  H     
35   H        22.8249   -3.6497    8.7054  H     
36   H        22.0753   -2.0528    8.4663  H     
37   H        20.5898   -7.6507    8.9149  H     
38   H        22.3455   -7.5656    8.7628  H     
39   H        21.3310   -6.9226    7.4697  H     
@<TRIPOS>BOND
     1    1    2 2
     2    1    4 1
     3    1   19 1
     4    2    3 1
     5    2   21 1
     6    3    6 2
     7    4    5 2
     8    5    6 1
     9    5    8 1
    10    6    7 1
    11    7    9 1
    12    8    9 1
    13    8   12 2
    14    9   10 2
    15   10   11 1
    16   10   13 1
    17   11   12 1
    18   13   14 2
    19   13   18 1
    20   14   15 1
    21   15   16 2
    22   16   17 1
    23   16   23 1
    24   17   18 2
    25   19   20 1
    26   21   22 1
    27   23   24 3
    28    3   25 1
    29    4   26 1
    30    7   27 1
    31    7   28 1
    32   11   29 1
    33   14   30 1
    34   15   31 1
    35   17   32 1
    36   18   33 1
    37   20   34 1
    38   20   35 1
    39   20   36 1
    40   22   37 1
    41   22   38 1
    42   22   39 1
@<TRIPOS>PROPERTY_DATA
  Total_Score	| 7.1146
  Crash		| -1.2635
  Polar		| 2.6901
  FragIndex	| 1
  FragRMSD	| 0.311

