@<TRIPOS>MOLECULE
BindingDB_50221589
 45 48 0 0 0
SMALL
NO_CHARGES


@<TRIPOS>ATOM
1    C        20.0161   -4.2775    8.6791  C     
2    C        20.0098   -5.3181    9.6441  C     
3    C        18.8627   -5.5354   10.4473  C     
4    C        18.8643   -3.4847    8.4848  C     
5    C        17.7365   -3.7260    9.2848  C     
6    C        17.7217   -4.7384   10.2497  C     
7    C        16.4128   -4.8209   10.9362  C     
8    C        16.5076   -3.1142    9.3115  C     
9    C        15.7183   -3.7167   10.2601  C     
10   C        14.5164   -3.0164   10.2372  C     
11   N        14.6625   -2.0578    9.3008  N     
12   N        15.8365   -2.1023    8.7399  N     
13   C        13.4560   -3.1746   10.9709  C     
14   C        12.4684   -3.3201   11.6277  C     
15   C        11.3835   -3.5247   12.3058  C     
16   O        21.0931   -4.1131    7.8586  O     
17   C        22.1788   -3.4036    8.4742  C     
18   O        21.1073   -6.1127    9.7998  O     
19   C        21.1138   -7.2352    8.9060  C     
20   C        10.8749   -4.8336   12.4200  C     
21   C         9.7013   -5.0832   13.1505  C     
22   C         9.0063   -4.0227   13.7676  C     
23   C         9.4654   -2.6959   13.6214  C     
24   C        10.6631   -2.4470   12.9161  C     
25   O         8.6767   -1.7248   14.2260  O     
26   C         9.0433   -0.3512   14.0916  C     
27   O         7.9166   -4.2590   14.5412  O     
28   H        18.8539   -6.2822   11.1418  H     
29   H        18.8513   -2.7567    7.7627  H     
30   H        15.9277   -5.7831   10.7465  H     
31   H        16.5080   -4.6212   12.0041  H     
32   H        13.9778   -1.4023    9.0782  H     
33   H        21.8911   -2.3832    8.7163  H     
34   H        22.9949   -3.3696    7.7542  H     
35   H        22.5343   -3.9229    9.3734  H     
36   H        20.2322   -7.8648    9.0637  H     
37   H        22.0047   -7.8270    9.1031  H     
38   H        21.1390   -6.9110    7.8594  H     
39   H        11.3626   -5.6232   11.9949  H     
40   H         9.3643   -6.0425   13.2554  H     
41   H        11.0294   -1.5032   12.8567  H     
42   H         9.9721   -0.1570   14.6029  H     
43   H         8.2723    0.2882   14.5876  H     
44   H         9.0935   -0.0392   13.0525  H     
45   H         7.4931   -5.0612   14.1869  H     
@<TRIPOS>BOND
     1    1    2 2
     2    1    4 1
     3    1   16 1
     4    2    3 1
     5    2   18 1
     6    3    6 2
     7    4    5 2
     8    5    6 1
     9    5    8 1
    10    6    7 1
    11    7    9 1
    12    8    9 1
    13    8   12 2
    14    9   10 2
    15   10   11 1
    16   10   13 1
    17   11   12 1
    18   13   14 3
    19   14   15 1
    20   15   20 2
    21   15   24 1
    22   16   17 1
    23   18   19 1
    24   20   21 1
    25   21   22 2
    26   22   23 1
    27   22   27 1
    28   23   24 2
    29   23   25 1
    30   25   26 1
    31    3   28 1
    32    4   29 1
    33    7   30 1
    34    7   31 1
    35   11   32 1
    36   17   33 1
    37   17   34 1
    38   17   35 1
    39   19   36 1
    40   19   37 1
    41   19   38 1
    42   20   39 1
    43   21   40 1
    44   24   41 1
    45   26   42 1
    46   26   43 1
    47   26   44 1
    48   27   45 1
@<TRIPOS>PROPERTY_DATA
  Total_Score	| 10.6106
  Crash		| -1.1117
  Polar		| 4.7090
  FragIndex	| 1
  FragRMSD	| 0.630

