@<TRIPOS>MOLECULE
BindingDB_50221586
 45 49 0 0 0
SMALL
NO_CHARGES


@<TRIPOS>ATOM
1    C        20.2638   -4.2756    8.5240  C     
2    C        20.2158   -5.3416    9.4627  C     
3    C        19.0590   -5.5342   10.2552  C     
4    C        19.1340   -3.4461    8.3311  C     
5    C        17.9893   -3.6768    9.1065  C     
6    C        17.9376   -4.7122   10.0490  C     
7    C        16.6361   -4.7668   10.7422  C     
8    C        16.7441   -3.0770    9.1098  C     
9    C        15.9326   -3.6824   10.0444  C     
10   C        14.7070   -3.0264    9.9817  C     
11   N        14.8722   -2.0969    9.0154  N     
12   N        16.0620   -2.1081    8.4921  N     
13   C        13.5197   -3.2366   10.7481  C     
14   C        13.4761   -4.1015   11.8675  C     
15   C        12.2932   -4.2670   12.6180  C     
16   C        11.1457   -3.5268   12.2812  C     
17   C        11.1720   -2.6492   11.1913  C     
18   C        12.3355   -2.5288   10.4126  C     
19   O        21.3611   -4.1069    7.7231  O     
20   C        22.3153   -3.1745    8.2579  C     
21   O        21.3063   -6.1436    9.6575  O     
22   C        21.2922   -7.3249    8.8406  C     
23   C         9.9575   -3.7020   13.0030  C     
24   C         9.4527   -2.9002   14.0173  C     
25   N         8.3127   -3.4672   14.4653  N     
26   N         8.0878   -4.5288   13.7671  N     
27   C         9.0510   -4.7318   12.8540  C     
28   H        19.0308   -6.2818   10.9582  H     
29   H        19.1562   -2.6830    7.6524  H     
30   H        16.1421   -5.7264   10.5644  H     
31   H        16.7487   -4.5643   11.8124  H     
32   H        14.1877   -1.4718    8.7373  H     
33   H        14.2983   -4.6273   12.1621  H     
34   H        12.2870   -4.9071   13.4190  H     
35   H        10.3397   -2.1056   10.9404  H     
36   H        12.3005   -1.9037    9.6068  H     
37   H        23.1535   -3.1166    7.5667  H     
38   H        22.6924   -3.5039    9.2262  H     
39   H        21.8877   -2.1725    8.3544  H     
40   H        21.3014   -7.0725    7.7735  H     
41   H        20.4326   -7.9576    9.0552  H     
42   H        22.1968   -7.8912    9.0598  H     
43   H         9.8932   -2.0448   14.3901  H     
44   H         7.3321   -5.1182   13.8978  H     
45   H         9.1096   -5.4986   12.1867  H     
@<TRIPOS>BOND
     1    1    2 2
     2    1    4 1
     3    1   19 1
     4    2    3 1
     5    2   21 1
     6    3    6 2
     7    4    5 2
     8    5    6 1
     9    5    8 1
    10    6    7 1
    11    7    9 1
    12    8    9 1
    13    8   12 2
    14    9   10 2
    15   10   11 1
    16   10   13 1
    17   11   12 1
    18   13   14 2
    19   13   18 1
    20   14   15 1
    21   15   16 2
    22   16   17 1
    23   16   23 1
    24   17   18 2
    25   19   20 1
    26   21   22 1
    27   23   24 1
    28   23   27 2
    29   24   25 2
    30   25   26 1
    31   26   27 1
    32    3   28 1
    33    4   29 1
    34    7   30 1
    35    7   31 1
    36   11   32 1
    37   14   33 1
    38   15   34 1
    39   17   35 1
    40   18   36 1
    41   20   37 1
    42   20   38 1
    43   20   39 1
    44   22   40 1
    45   22   41 1
    46   22   42 1
    47   24   43 1
    48   26   44 1
    49   27   45 1
@<TRIPOS>PROPERTY_DATA
  Total_Score	| 9.8874
  Crash		| -1.5988
  Polar		| 4.4225
  FragIndex	| 1
  FragRMSD	| 0.105

