@<TRIPOS>MOLECULE
BindingDB_50221608
 44 47 0 0 0
SMALL
NO_CHARGES


@<TRIPOS>ATOM
1    C        20.1703   -3.7447    8.1198  C     
2    C        20.3178   -4.8973    8.9374  C     
3    C        19.2539   -5.3100    9.7710  C     
4    C        18.9578   -3.0236    8.1206  C     
5    C        17.9096   -3.4613    8.9432  C     
6    C        18.0443   -4.5864    9.7642  C     
7    C        16.7938   -4.8743   10.4986  C     
8    C        16.6244   -2.9892    9.1015  C     
9    C        15.9375   -3.7911    9.9834  C     
10   C        14.6511   -3.2591   10.0666  C     
11   N        14.6689   -2.1881    9.2339  N     
12   N        15.8193   -2.0194    8.6530  N     
13   C        13.5346   -3.6805   10.8454  C     
14   C        13.5493   -4.8884   11.5833  C     
15   C        12.4532   -5.2748   12.3781  C     
16   C        11.2977   -4.4671   12.4667  C     
17   C        11.2694   -3.2660   11.7215  C     
18   C        12.3613   -2.8882   10.9151  C     
19   O        21.1522   -3.3672    7.2475  O     
20   C        22.3135   -2.8187    7.8862  C     
21   O        21.4844   -5.6135    8.9338  O     
22   C        21.5502   -6.6079    7.8969  C     
23   C        10.1584   -4.8494   13.3396  C     
24   N         8.9197   -5.0651   12.5884  N     
25   H        19.3469   -6.1441   10.3590  H     
26   H        18.8321   -2.2068    7.5185  H     
27   H        16.4034   -5.8556   10.2232  H     
28   H        16.9381   -4.7939   11.5781  H     
29   H        13.9101   -1.6051    9.0723  H     
30   H        14.3561   -5.5123   11.5546  H     
31   H        12.5085   -6.1550   12.8966  H     
32   H        10.4495   -2.6540   11.7649  H     
33   H        12.2933   -2.0162   10.3879  H     
34   H        22.0629   -1.9245    8.4612  H     
35   H        23.0243   -2.5387    7.1077  H     
36   H        22.7889   -3.5530    8.5415  H     
37   H        22.4931   -7.1449    8.0020  H     
38   H        21.5261   -6.1512    6.9047  H     
39   H        20.7375   -7.3325    7.9807  H     
40   H        10.3708   -5.7719   13.8867  H     
41   H         9.9834   -4.0616   14.0720  H     
42   H         8.5643   -4.1642   12.2535  H     
43   H         8.2193   -5.5004   13.1993  H     
44   H         9.0969   -5.6767   11.7885  H     
@<TRIPOS>BOND
     1    1    2 2
     2    1    4 1
     3    1   19 1
     4    2    3 1
     5    2   21 1
     6    3    6 2
     7    4    5 2
     8    5    6 1
     9    5    8 1
    10    6    7 1
    11    7    9 1
    12    8    9 1
    13    8   12 2
    14    9   10 2
    15   10   11 1
    16   10   13 1
    17   11   12 1
    18   13   14 2
    19   13   18 1
    20   14   15 1
    21   15   16 2
    22   16   17 1
    23   16   23 1
    24   17   18 2
    25   19   20 1
    26   21   22 1
    27   23   24 1
    28    3   25 1
    29    4   26 1
    30    7   27 1
    31    7   28 1
    32   11   29 1
    33   14   30 1
    34   15   31 1
    35   17   32 1
    36   18   33 1
    37   20   34 1
    38   20   35 1
    39   20   36 1
    40   22   37 1
    41   22   38 1
    42   22   39 1
    43   23   40 1
    44   23   41 1
    45   24   42 1
    46   24   43 1
    47   24   44 1
@<TRIPOS>PROPERTY_DATA
  Total_Score	| 9.0035
  Crash		| -1.5101
  Polar		| 3.9751
  FragIndex	| 1
  FragRMSD	| 0.451

