@<TRIPOS>MOLECULE
BindingDB_50221607
 39 42 0 0 0
SMALL
NO_CHARGES


@<TRIPOS>ATOM
1    C         9.2352   -4.0312   13.6018  C     
2    C         9.4848   -2.6373   13.4881  C     
3    C        10.6456   -2.2024   12.8277  C     
4    C        10.1988   -4.9726   13.1836  C     
5    C        11.3796   -4.5058   12.5839  C     
6    C        11.6072   -3.1524   12.3630  C     
7    C        12.8904   -2.8875   11.7007  C     
8    C        12.5211   -5.1663   12.1853  C     
9    C        13.4053   -4.2606   11.6725  C     
10   C        14.5531   -4.9885   11.3669  C     
11   N        14.2714   -6.2617   11.7311  N     
12   N        13.0778   -6.3867   12.2137  N     
13   C        15.7636   -4.5184   10.8523  C     
14   C        15.8022   -3.8482    9.5995  C     
15   C        17.0138   -3.4001    9.0713  C     
16   C        18.2181   -3.6037    9.7831  C     
17   C        18.1915   -4.2570   11.0273  C     
18   C        16.9803   -4.7190   11.5569  C     
19   O         8.0478   -4.4604   14.1266  O     
20   C         7.0721   -4.6570   13.0826  C     
21   O         8.5097   -1.8160   14.0279  O     
22   C         8.6590   -0.4014   14.0937  C     
23   O        19.4061   -3.2175    9.2547  O     
24   H        10.8781   -1.2275   12.7063  H     
25   H        10.0505   -5.9869   13.3065  H     
26   H        12.7458   -2.4826   10.6962  H     
27   H        13.5098   -2.2331   12.3105  H     
28   H        14.8981   -7.0011   11.6448  H     
29   H        14.9386   -3.7234    9.0668  H     
30   H        17.0391   -2.9399    8.1591  H     
31   H        19.0634   -4.3910   11.5493  H     
32   H        16.9757   -5.1893   12.4654  H     
33   H         7.3124   -5.5397   12.4769  H     
34   H         6.9654   -3.7874   12.4188  H     
35   H         6.1032   -4.8174   13.5525  H     
36   H         8.6997    0.0572   13.1066  H     
37   H         9.5192   -0.1184   14.6926  H     
38   H         7.7502    0.0393   14.5671  H     
39   H        19.3723   -2.2321    9.2576  H     
@<TRIPOS>BOND
     1    1    2 2
     2    1    4 1
     3    1   19 1
     4    2    3 1
     5    2   21 1
     6    3    6 2
     7    4    5 2
     8    5    6 1
     9    5    8 1
    10    6    7 1
    11    7    9 1
    12    8    9 1
    13    8   12 2
    14    9   10 2
    15   10   11 1
    16   10   13 1
    17   11   12 1
    18   13   14 2
    19   13   18 1
    20   14   15 1
    21   15   16 2
    22   16   17 1
    23   16   23 1
    24   17   18 2
    25   19   20 1
    26   21   22 1
    27    3   24 1
    28    4   25 1
    29    7   26 1
    30    7   27 1
    31   11   28 1
    32   14   29 1
    33   15   30 1
    34   17   31 1
    35   18   32 1
    36   20   33 1
    37   20   34 1
    38   20   35 1
    39   22   36 1
    40   22   37 1
    41   22   38 1
    42   23   39 1
@<TRIPOS>PROPERTY_DATA
  Total_Score	| 6.9007
  Crash		| -1.5732
  Polar		| 1.8554
  FragIndex	| 1
  FragRMSD	| 0.601

