@<TRIPOS>MOLECULE
BindingDB_50221583
 41 44 0 0 0
SMALL
NO_CHARGES


@<TRIPOS>ATOM
1    C        20.1462   -4.2011    8.6042  C     
2    C        20.1495   -5.1993    9.6101  C     
3    C        18.9933   -5.4270   10.3946  C     
4    C        18.9869   -3.4181    8.3894  C     
5    C        17.8612   -3.6414    9.2006  C     
6    C        17.8482   -4.6342   10.1924  C     
7    C        16.5324   -4.7302   10.8684  C     
8    C        16.6099   -3.0582    9.2047  C     
9    C        15.8205   -3.6697   10.1482  C     
10   C        14.5883   -3.0385   10.0769  C     
11   N        14.7148   -2.0990    9.1153  N     
12   N        15.9042   -2.1080    8.5765  N     
13   C        13.5191   -3.2669   10.7774  C     
14   C        12.5242   -3.4535   11.4160  C     
15   C        11.4364   -3.6173   12.1201  C     
16   O        21.2256   -4.1169    7.7587  O     
17   C        21.9401   -2.8664    7.7789  C     
18   O        21.2510   -5.9879    9.7799  O     
19   C        22.3092   -5.3404   10.5037  C     
20   C        10.7931   -4.8778   12.1849  C     
21   C         9.6395   -5.0458   12.9786  C     
22   C         9.1126   -3.9644   13.7200  C     
23   C         9.7407   -2.7057   13.6326  C     
24   C        10.8907   -2.5247   12.8382  C     
25   O         8.0321   -4.1126   14.5289  O     
26   H        18.9852   -6.1710   11.0996  H     
27   H        18.9540   -2.7157    7.6418  H     
28   H        16.0753   -5.7076   10.6934  H     
29   H        16.6196   -4.5041   11.9336  H     
30   H        13.9974   -1.4942    8.8474  H     
31   H        21.3080   -2.0738    7.3626  H     
32   H        22.8293   -2.9737    7.1548  H     
33   H        22.2567   -2.5937    8.7933  H     
34   H        22.7091   -4.4992    9.9431  H     
35   H        23.1051   -6.0671   10.6473  H     
36   H        21.9760   -5.0029   11.4803  H     
37   H        11.1665   -5.6765   11.6625  H     
38   H         9.1902   -5.9649   13.0272  H     
39   H         9.3551   -1.9125   14.1493  H     
40   H        11.3237   -1.5965   12.8056  H     
41   H         7.5537   -4.9085   14.2192  H     
@<TRIPOS>BOND
     1    1    2 2
     2    1    4 1
     3    1   16 1
     4    2    3 1
     5    2   18 1
     6    3    6 2
     7    4    5 2
     8    5    6 1
     9    5    8 1
    10    6    7 1
    11    7    9 1
    12    8    9 1
    13    8   12 2
    14    9   10 2
    15   10   11 1
    16   10   13 1
    17   11   12 1
    18   13   14 3
    19   14   15 1
    20   15   20 2
    21   15   24 1
    22   16   17 1
    23   18   19 1
    24   20   21 1
    25   21   22 2
    26   22   23 1
    27   22   25 1
    28   23   24 2
    29    3   26 1
    30    4   27 1
    31    7   28 1
    32    7   29 1
    33   11   30 1
    34   17   31 1
    35   17   32 1
    36   17   33 1
    37   19   34 1
    38   19   35 1
    39   19   36 1
    40   20   37 1
    41   21   38 1
    42   23   39 1
    43   24   40 1
    44   25   41 1
@<TRIPOS>PROPERTY_DATA
  Total_Score	| 9.2491
  Crash		| -0.7655
  Polar		| 4.6098
  FragIndex	| 1
  FragRMSD	| 0.140

