@<TRIPOS>MOLECULE
BindingDB_50221611
 44 47 0 0 0
SMALL
NO_CHARGES


@<TRIPOS>ATOM
1    C        20.3446   -4.2589    8.4565  C     
2    C        20.3242   -5.3295    9.3817  C     
3    C        19.1948   -5.5346   10.2091  C     
4    C        19.2074   -3.4355    8.3104  C     
5    C        18.0877   -3.6736    9.1189  C     
6    C        18.0692   -4.7029   10.0656  C     
7    C        16.7730   -4.7686   10.7787  C     
8    C        16.8578   -3.0568    9.1549  C     
9    C        16.0747   -3.6675   10.1005  C     
10   C        14.8665   -2.9913   10.0592  C     
11   N        14.9882   -2.0495    9.1028  N     
12   N        16.1689   -2.0731    8.5572  N     
13   C        13.8061   -3.2178   10.7591  C     
14   C        12.8020   -3.4156   11.3728  C     
15   C        11.6779   -3.6210   11.9911  C     
16   O        21.4174   -4.1066    7.6185  O     
17   C        22.1846   -2.9096    7.8440  C     
18   O        21.4156   -6.1464    9.4966  O     
19   C        21.3160   -7.3430    8.7023  C     
20   C        10.9536   -4.8066   11.7500  C     
21   C         9.6715   -4.9697   12.3023  C     
22   C         9.0968   -3.9682   13.1214  C     
23   C         9.8621   -2.8096   13.4041  C     
24   C        11.1337   -2.6277   12.8324  C     
25   C         7.7995   -4.0891   13.5992  C     
26   O         7.4919   -3.6072   14.6787  O     
27   N         6.8621   -4.7337   12.9387  N     
28   H        19.1805   -6.3032   10.8826  H     
29   H        19.1918   -2.6840    7.6184  H     
30   H        16.2676   -5.7219   10.6073  H     
31   H        16.8880   -4.5667   11.8459  H     
32   H        14.2881   -1.4258    8.8508  H     
33   H        21.5844   -2.0106    7.6811  H     
34   H        23.0110   -2.8975    7.1318  H     
35   H        22.6018   -2.8930    8.8541  H     
36   H        20.4981   -7.9791    9.0493  H     
37   H        22.2474   -7.8991    8.8090  H     
38   H        21.1727   -7.1137    7.6416  H     
39   H        11.3281   -5.5426   11.1412  H     
40   H         9.1565   -5.8256   12.0856  H     
41   H         9.4796   -2.0604   13.9879  H     
42   H        11.6395   -1.7555   13.0191  H     
43   H         5.9664   -4.7957   13.3024  H     
44   H         7.0563   -5.1313   12.0764  H     
@<TRIPOS>BOND
     1    1    2 2
     2    1    4 1
     3    1   16 1
     4    2    3 1
     5    2   18 1
     6    3    6 2
     7    4    5 2
     8    5    6 1
     9    5    8 1
    10    6    7 1
    11    7    9 1
    12    8    9 1
    13    8   12 2
    14    9   10 2
    15   10   11 1
    16   10   13 1
    17   11   12 1
    18   13   14 3
    19   14   15 1
    20   15   20 2
    21   15   24 1
    22   16   17 1
    23   18   19 1
    24   20   21 1
    25   21   22 2
    26   22   23 1
    27   22   25 1
    28   23   24 2
    29   25   26 2
    30   25   27 am
    31    3   28 1
    32    4   29 1
    33    7   30 1
    34    7   31 1
    35   11   32 1
    36   17   33 1
    37   17   34 1
    38   17   35 1
    39   19   36 1
    40   19   37 1
    41   19   38 1
    42   20   39 1
    43   21   40 1
    44   23   41 1
    45   24   42 1
    46   27   43 1
    47   27   44 1
@<TRIPOS>PROPERTY_DATA
  Total_Score	| 9.1542
  Crash		| -1.2415
  Polar		| 3.6058
  FragIndex	| 1
  FragRMSD	| 0.278

