@<TRIPOS>MOLECULE
BindingDB_50214577
 49 53 0 0 0
SMALL
NO_CHARGES


@<TRIPOS>ATOM
1    C        20.7160   -4.3169    8.5899  C     
2    C        20.6433   -5.3491    9.5561  C     
3    C        19.4291   -5.6085   10.2345  C     
4    C        19.5892   -3.4922    8.3260  C     
5    C        18.4021   -3.7493    9.0351  C     
6    C        18.3145   -4.7971    9.9629  C     
7    C        16.9689   -4.9160   10.5427  C     
8    C        17.1604   -3.1529    8.9776  C     
9    C        16.3080   -3.8142    9.8285  C     
10   C        15.0856   -3.1631    9.7317  C     
11   N        15.2946   -2.1603    8.8438  N     
12   N        16.5049   -2.1500    8.3790  N     
13   C        13.8799   -3.4088   10.4225  C     
14   C        13.7673   -4.4390   11.3916  C     
15   C        12.5743   -4.6203   12.0997  C     
16   C        11.4757   -3.7715   11.8589  C     
17   C        11.5713   -2.7635   10.8774  C     
18   C        12.7530   -2.5984   10.1532  C     
19   C        10.2845   -3.9014   12.5841  C     
20   C         9.9064   -2.8828   13.4880  C     
21   C         8.6914   -2.9744   14.1771  C     
22   C         7.8381   -4.0685   13.9368  C     
23   C         8.1982   -5.0766   13.0266  C     
24   C         9.4271   -5.0032   12.3585  C     
25   O         6.6750   -4.1506   14.6123  O     
26   O        21.8500   -4.2537    7.8240  O     
27   O        21.7284   -6.1571    9.7582  O     
28   C        22.4791   -5.8348   10.9430  C     
29   C        22.4885   -2.9672    7.7728  C     
30   H        19.3515   -6.3932   10.8966  H     
31   H        19.6208   -2.7448    7.6194  H     
32   H        16.5264   -5.8760   10.2809  H     
33   H        16.9908   -4.7481   11.6211  H     
34   H        14.6111   -1.5221    8.5885  H     
35   H        14.5432   -5.0558   11.6082  H     
36   H        12.5152   -5.3618   12.8082  H     
37   H        10.7731   -2.1526   10.6799  H     
38   H        12.7735   -1.8652    9.4399  H     
39   H        10.5203   -2.0743   13.6543  H     
40   H         8.4341   -2.2540   14.8512  H     
41   H         7.5673   -5.8563   12.8463  H     
42   H         9.6850   -5.7345   11.6915  H     
43   H         6.8030   -4.9603   15.1842  H     
44   H        22.8437   -4.8031   10.9349  H     
45   H        23.3427   -6.5017   10.9835  H     
46   H        21.8810   -5.9985   11.8433  H     
47   H        23.4853   -3.0968    7.3423  H     
48   H        22.6129   -2.5178    8.7626  H     
49   H        21.9003   -2.3030    7.1341  H     
@<TRIPOS>BOND
     1    1    2 2
     2    1    4 1
     3    1   26 1
     4    2    3 1
     5    2   27 1
     6    3    6 2
     7    4    5 2
     8    5    6 1
     9    5    8 1
    10    6    7 1
    11    7    9 1
    12    8    9 1
    13    8   12 2
    14    9   10 2
    15   10   11 1
    16   10   13 1
    17   11   12 1
    18   13   14 2
    19   13   18 1
    20   14   15 1
    21   15   16 2
    22   16   17 1
    23   16   19 1
    24   17   18 2
    25   19   20 2
    26   19   24 1
    27   20   21 1
    28   21   22 2
    29   22   23 1
    30   22   25 1
    31   23   24 2
    32   26   29 1
    33   27   28 1
    34    3   30 1
    35    4   31 1
    36    7   32 1
    37    7   33 1
    38   11   34 1
    39   14   35 1
    40   15   36 1
    41   17   37 1
    42   18   38 1
    43   20   39 1
    44   21   40 1
    45   23   41 1
    46   24   42 1
    47   25   43 1
    48   28   44 1
    49   28   45 1
    50   28   46 1
    51   29   47 1
    52   29   48 1
    53   29   49 1
@<TRIPOS>PROPERTY_DATA
  Total_Score	| 7.8780
  Crash		| -2.3435
  Polar		| 2.8034
  FragIndex	| 1
  FragRMSD	| 0.499

