@<TRIPOS>MOLECULE
BindingDB_50221568
 42 45 0 0 0
SMALL
NO_CHARGES


@<TRIPOS>ATOM
1    C        19.9940   -4.1525    8.5321  C     
2    C        20.0028   -5.2451    9.4361  C     
3    C        18.8679   -5.5257   10.2321  C     
4    C        18.8345   -3.3537    8.4074  C     
5    C        17.7159   -3.6472    9.2073  C     
6    C        17.7143   -4.7364   10.0890  C     
7    C        16.4071   -4.9033   10.7598  C     
8    C        16.4670   -3.0646    9.2761  C     
9    C        15.6893   -3.7817   10.1492  C     
10   C        14.4610   -3.1424   10.1733  C     
11   N        14.5850   -2.0807    9.3466  N     
12   N        15.7675   -2.0249    8.8032  N     
13   C        13.3263   -3.4846   10.9388  C     
14   C        12.7103   -4.7502   10.8261  C     
15   C        11.5349   -5.0524   11.5424  C     
16   C        10.9656   -4.1024   12.4263  C     
17   C        11.6114   -2.8510   12.5699  C     
18   C        12.7740   -2.5469   11.8344  C     
19   O        21.0402   -3.9389    7.6722  O     
20   C        22.0030   -2.9858    8.1497  C     
21   O        21.1284   -6.0063    9.5663  O     
22   C        21.0981   -7.1939    8.7531  C     
23   C         9.6867   -4.4002   13.1297  C     
24   O         9.5433   -5.7880   13.4574  O     
25   H        18.8733   -6.3213   10.8742  H     
26   H        18.7957   -2.5826    7.7309  H     
27   H        15.9433   -5.8582   10.5073  H     
28   H        16.4840   -4.7755   11.8410  H     
29   H        13.8825   -1.4356    9.1638  H     
30   H        13.0949   -5.4545   10.1929  H     
31   H        11.0977   -5.9698   11.4145  H     
32   H        11.2331   -2.1482   13.2080  H     
33   H        13.2291   -1.6474   11.9688  H     
34   H        21.5430   -2.0107    8.3232  H     
35   H        22.7723   -2.8662    7.3848  H     
36   H        22.4840   -3.3384    9.0658  H     
37   H        20.2932   -7.8655    9.0683  H     
38   H        22.0484   -7.7169    8.8787  H     
39   H        20.9770   -6.9500    7.6919  H     
40   H         9.5963   -3.8353   14.0659  H     
41   H         8.8567   -4.1125   12.4802  H     
42   H         8.6156   -5.8902   13.7773  H     
@<TRIPOS>BOND
     1    1    2 2
     2    1    4 1
     3    1   19 1
     4    2    3 1
     5    2   21 1
     6    3    6 2
     7    4    5 2
     8    5    6 1
     9    5    8 1
    10    6    7 1
    11    7    9 1
    12    8    9 1
    13    8   12 2
    14    9   10 2
    15   10   11 1
    16   10   13 1
    17   11   12 1
    18   13   14 2
    19   13   18 1
    20   14   15 1
    21   15   16 2
    22   16   17 1
    23   16   23 1
    24   17   18 2
    25   19   20 1
    26   21   22 1
    27   23   24 1
    28    3   25 1
    29    4   26 1
    30    7   27 1
    31    7   28 1
    32   11   29 1
    33   14   30 1
    34   15   31 1
    35   17   32 1
    36   18   33 1
    37   20   34 1
    38   20   35 1
    39   20   36 1
    40   22   37 1
    41   22   38 1
    42   22   39 1
    43   23   40 1
    44   23   41 1
    45   24   42 1
@<TRIPOS>PROPERTY_DATA
  Total_Score	| 8.3674
  Crash		| -1.6343
  Polar		| 3.4485
  FragIndex	| 1
  FragRMSD	| 0.293

