@<TRIPOS>MOLECULE
BindingDB_50221603
 46 49 0 0 0
SMALL
NO_CHARGES


@<TRIPOS>ATOM
1    C        20.6985   -4.2859    8.4911  C     
2    C        20.6536   -5.3067    9.4742  C     
3    C        19.4637   -5.5475   10.2003  C     
4    C        19.5674   -3.4676    8.2658  C     
5    C        18.4052   -3.7055    9.0180  C     
6    C        18.3355   -4.7427    9.9566  C     
7    C        16.9902   -4.8590   10.5557  C     
8    C        17.1733   -3.0990    8.9754  C     
9    C        16.3368   -3.7593    9.8405  C     
10   C        15.1159   -3.1300    9.7128  C     
11   N        15.2809   -2.1326    8.8243  N     
12   N        16.5005   -2.1061    8.3729  N     
13   C        14.0292   -3.4429   10.3177  C     
14   C        13.0272   -3.7141   10.8990  C     
15   C        11.9528   -3.9485   11.5683  C     
16   O        21.8053   -4.1751    7.6947  O     
17   C        22.4821   -2.9101    7.7815  C     
18   O        21.7417   -6.1099    9.6774  O     
19   C        22.4288   -5.8311   10.9125  C     
20   C        11.4258   -2.9136   12.3680  C     
21   C        10.2502   -3.1221   13.0926  C     
22   C         9.5803   -4.3673   13.0484  C     
23   C        10.1232   -5.4018   12.2477  C     
24   C        11.3063   -5.2011   11.5179  C     
25   N         8.4831   -4.6527   13.7918  N     
26   C         7.6308   -3.8156   14.3599  C     
27   N         6.7273   -4.3275   15.1507  N     
28   O         7.6178   -2.6047   14.1914  O     
29   H        19.4155   -6.3034   10.8836  H     
30   H        19.5816   -2.7358    7.5553  H     
31   H        16.5220   -5.8178   10.3193  H     
32   H        17.0037   -4.6813   11.6343  H     
33   H        14.5798   -1.5146    8.5568  H     
34   H        21.8646   -2.1041    7.3792  H     
35   H        23.3906   -2.9760    7.1846  H     
36   H        22.7626   -2.6766    8.8097  H     
37   H        22.7788   -4.7975   10.9500  H     
38   H        23.2983   -6.4859   10.9744  H     
39   H        21.7907   -6.0295   11.7769  H     
40   H        11.8907   -2.0039   12.4267  H     
41   H         9.9086   -2.3604   13.6789  H     
42   H         9.6526   -6.3072   12.1853  H     
43   H        11.6805   -5.9703   10.9464  H     
44   H         8.2682   -5.5881   13.9081  H     
45   H         6.0821   -3.7553   15.5940  H     
46   H         6.7337   -5.2761   15.3186  H     
@<TRIPOS>BOND
     1    1    2 2
     2    1    4 1
     3    1   16 1
     4    2    3 1
     5    2   18 1
     6    3    6 2
     7    4    5 2
     8    5    6 1
     9    5    8 1
    10    6    7 1
    11    7    9 1
    12    8    9 1
    13    8   12 2
    14    9   10 2
    15   10   11 1
    16   10   13 1
    17   11   12 1
    18   13   14 3
    19   14   15 1
    20   15   20 2
    21   15   24 1
    22   16   17 1
    23   18   19 1
    24   20   21 1
    25   21   22 2
    26   22   23 1
    27   22   25 1
    28   23   24 2
    29   25   26 am
    30   26   27 am
    31   26   28 2
    32    3   29 1
    33    4   30 1
    34    7   31 1
    35    7   32 1
    36   11   33 1
    37   17   34 1
    38   17   35 1
    39   17   36 1
    40   19   37 1
    41   19   38 1
    42   19   39 1
    43   20   40 1
    44   21   41 1
    45   23   42 1
    46   24   43 1
    47   25   44 1
    48   27   45 1
    49   27   46 1
@<TRIPOS>PROPERTY_DATA
  Total_Score	| 4.9256
  Crash		| -4.3333
  Polar		| 4.0015
  FragIndex	| 1
  FragRMSD	| 0.602

