@<TRIPOS>MOLECULE
BindingDB_50221615
 47 51 0 0 0
SMALL
NO_CHARGES


@<TRIPOS>ATOM
1    C        20.5069   -4.3118    8.5943  C     
2    C        20.4394   -5.3240    9.5872  C     
3    C        19.2465   -5.5361   10.3131  C     
4    C        19.3758   -3.4988    8.3338  C     
5    C        18.1985   -3.7198    9.0859  C     
6    C        18.1333   -4.7267   10.0593  C     
7    C        16.8074   -4.7866   10.6981  C     
8    C        16.9519   -3.1150    9.0431  C     
9    C        16.1241   -3.7155    9.9577  C     
10   C        14.8932   -3.0802    9.8643  C     
11   N        15.0740   -2.1445    8.9007  N     
12   N        16.2769   -2.1504    8.4091  N     
13   C        13.6899   -3.2940   10.5995  C     
14   C        12.5389   -2.5352   10.2792  C     
15   C        11.3538   -2.6668   11.0192  C     
16   C        11.2686   -3.5801   12.0887  C     
17   C        12.3961   -4.3721   12.3975  C     
18   C        13.5901   -4.2243   11.6633  C     
19   O        21.6581   -4.2295    7.8456  O     
20   C        22.3192   -2.9448    7.8304  C     
21   O        21.5174   -6.1413    9.8037  O     
22   C        22.3288   -5.7451   10.9234  C     
23   C        10.0407   -3.7165   12.7752  C     
24   C         9.1819   -4.7971   12.4763  C     
25   C         7.8932   -4.8285   13.0402  C     
26   N         7.4970   -3.8370   13.8743  N     
27   C         8.2976   -2.7913   14.2032  C     
28   C         9.5913   -2.7040   13.6562  C     
29   H        19.1902   -6.2738   11.0124  H     
30   H        19.4142   -2.7712    7.5991  H     
31   H        16.3296   -5.7503   10.5259  H     
32   H        16.8632   -4.5600   11.7640  H     
33   H        14.3909   -1.5282    8.6042  H     
34   H        12.5464   -1.8636    9.5074  H     
35   H        10.5443   -2.1013   10.7632  H     
36   H        12.3575   -5.0489   13.1647  H     
37   H        14.3854   -4.8051   11.9299  H     
38   H        23.3063   -3.0716    7.3824  H     
39   H        22.4646   -2.5327    8.8381  H     
40   H        21.7505   -2.2231    7.2293  H     
41   H        22.6883   -4.7239   10.8077  H     
42   H        23.1906   -6.4055   10.9747  H     
43   H        21.7816   -5.8330   11.8613  H     
44   H         9.4592   -5.5266   11.8159  H     
45   H         7.2438   -5.5803   12.8039  H     
46   H         7.9461   -2.0585   14.8216  H     
47   H        10.1813   -1.8975   13.8811  H     
@<TRIPOS>BOND
     1    1    2 2
     2    1    4 1
     3    1   19 1
     4    2    3 1
     5    2   21 1
     6    3    6 2
     7    4    5 2
     8    5    6 1
     9    5    8 1
    10    6    7 1
    11    7    9 1
    12    8    9 1
    13    8   12 2
    14    9   10 2
    15   10   11 1
    16   10   13 1
    17   11   12 1
    18   13   14 2
    19   13   18 1
    20   14   15 1
    21   15   16 2
    22   16   17 1
    23   16   23 1
    24   17   18 2
    25   19   20 1
    26   21   22 1
    27   23   24 2
    28   23   28 1
    29   24   25 1
    30   25   26 2
    31   26   27 1
    32   27   28 2
    33    3   29 1
    34    4   30 1
    35    7   31 1
    36    7   32 1
    37   11   33 1
    38   14   34 1
    39   15   35 1
    40   17   36 1
    41   18   37 1
    42   20   38 1
    43   20   39 1
    44   20   40 1
    45   22   41 1
    46   22   42 1
    47   22   43 1
    48   24   44 1
    49   25   45 1
    50   27   46 1
    51   28   47 1
@<TRIPOS>PROPERTY_DATA
  Total_Score	| 8.7440
  Crash		| -1.8970
  Polar		| 2.9825
  FragIndex	| 1
  FragRMSD	| 0.284

