@<TRIPOS>MOLECULE
BindingDB_91895
 51 55 0 0 0
SMALL
NO_CHARGES


@<TRIPOS>ATOM
1    C        22.4036   -5.7460   10.7689  C     
2    O        21.6451   -5.9837    9.5699  O     
3    C        20.5063   -5.2290    9.4734  C     
4    C        20.4063   -4.2192    8.4818  C     
5    O        21.4389   -4.0175    7.6061  O     
6    C        22.2003   -2.8227    7.8505  C     
7    C        19.2006   -3.4986    8.3233  C     
8    C        18.1183   -3.7895    9.1700  C     
9    C        18.2137   -4.7804   10.1512  C     
10   C        16.9586   -4.9126   10.9120  C     
11   C        16.1454   -3.8938   10.2290  C     
12   C        16.8419   -3.2671    9.2298  C     
13   N        16.0508   -2.3617    8.6389  N     
14   N        14.8983   -2.4008    9.2456  N     
15   C        14.8784   -3.3152   10.2399  C     
16   C        13.7699   -3.5801   11.0906  C     
17   C        12.5394   -2.8999   10.8960  C     
18   C        11.4402   -3.1314   11.7426  C     
19   C        11.5306   -4.0767   12.7843  C     
20   O        10.4776   -4.3009   13.6278  O     
21   C         9.5444   -5.3289   13.2226  C     
22   C        10.0159   -6.6949   13.5781  C     
23   C        10.9803   -7.3499   12.7835  C     
24   C        11.4948   -8.6086   13.1580  C     
25   C        11.0272   -9.2403   14.3219  C     
26   C        10.0331   -8.6248   15.1058  C     
27   C         9.5315   -7.3589   14.7322  C     
28   C        12.7538   -4.7276   13.0151  C     
29   C        13.8497   -4.4984   12.1682  C     
30   C        19.4027   -5.5165   10.3051  C     
31   H        22.6982   -4.6991   10.8556  H     
32   H        23.3095   -6.3523   10.7226  H     
33   H        21.8439   -6.0395   11.6617  H     
34   H        21.5676   -1.9310    7.8446  H     
35   H        22.9348   -2.7211    7.0506  H     
36   H        22.7364   -2.8822    8.7979  H     
37   H        19.1117   -2.7883    7.5943  H     
38   H        17.1118   -4.6586   11.9632  H     
39   H        16.5310   -5.9117   10.8019  H     
40   H        12.4298   -2.2222   10.1351  H     
41   H        10.5700   -2.6120   11.6024  H     
42   H         8.6153   -5.1254   13.7581  H     
43   H         9.2984   -5.2721   12.1565  H     
44   H        11.3304   -6.9094   11.9299  H     
45   H        12.2056   -9.0684   12.5813  H     
46   H        11.3926  -10.1576   14.5941  H     
47   H         9.6765   -9.0930   15.9444  H     
48   H         8.8238   -6.9201   15.3282  H     
49   H        12.8488   -5.3778   13.7995  H     
50   H        14.7090   -5.0110   12.3629  H     
51   H        19.4521   -6.2588   11.0065  H     
@<TRIPOS>BOND
     1    1    2 1
     2    2    3 1
     3    3    4 ar
     4    4    5 1
     5    5    6 1
     6    4    7 ar
     7    7    8 ar
     8    8    9 ar
     9    9   10 1
    10   10   11 1
    11   11   12 ar
    12    8   12 1
    13   12   13 ar
    14   13   14 ar
    15   14   15 ar
    16   11   15 ar
    17   15   16 1
    18   16   17 ar
    19   17   18 ar
    20   18   19 ar
    21   19   20 1
    22   20   21 1
    23   21   22 1
    24   22   23 ar
    25   23   24 ar
    26   24   25 ar
    27   25   26 ar
    28   26   27 ar
    29   22   27 ar
    30   19   28 ar
    31   28   29 ar
    32   16   29 ar
    33    9   30 ar
    34    3   30 ar
    35    1   31 1
    36    1   32 1
    37    1   33 1
    38    6   34 1
    39    6   35 1
    40    6   36 1
    41    7   37 1
    42   10   38 1
    43   10   39 1
    44   17   40 1
    45   18   41 1
    46   21   42 1
    47   21   43 1
    48   23   44 1
    49   24   45 1
    50   25   46 1
    51   26   47 1
    52   27   48 1
    53   28   49 1
    54   29   50 1
    55   30   51 1
@<TRIPOS>PROPERTY_DATA
  Total_Score	| 7.4557
  Crash		| -1.0732
  Polar		| 1.5630
  FragIndex	| 1
  FragRMSD	| 0.332

