@<TRIPOS>MOLECULE
BindingDB_50221575
 36 39 0 0 0
SMALL
NO_CHARGES


@<TRIPOS>ATOM
1    C        20.2285   -4.1760    8.5320  C     
2    C        20.2722   -5.1787    9.5343  C     
3    C        19.1487   -5.4120   10.3571  C     
4    C        19.0595   -3.4049    8.3555  C     
5    C        17.9512   -3.6584    9.1756  C     
6    C        17.9817   -4.6456   10.1676  C     
7    C        16.6865   -4.7510   10.8696  C     
8    C        16.6903   -3.1051    9.1931  C     
9    C        15.9207   -3.7286   10.1446  C     
10   C        14.6615   -3.1252   10.0713  C     
11   N        14.7931   -2.1955    9.0893  N     
12   N        15.9781   -2.1705    8.5638  N     
13   C        13.4804   -3.3560   10.8365  C     
14   O        21.2672   -4.0034    7.6589  O     
15   C        22.2033   -2.9830    8.0533  C     
16   C        12.3081   -2.6094   10.5744  C     
17   C        11.1617   -2.7497   11.3771  C     
18   C        11.1406   -3.6719   12.4445  C     
19   C        12.2811   -4.4590   12.6947  C     
20   C        13.4318   -4.3033   11.8974  C     
21   C        10.0812   -3.7859   13.1990  C     
22   N         9.1548   -3.8728   13.8794  N     
23   O        21.3789   -5.9467    9.7225  O     
24   H        19.1760   -6.1380   11.0759  H     
25   H        19.0061   -2.6856    7.6281  H     
26   H        16.2444   -5.7439   10.7390  H     
27   H        16.7893   -4.5042   11.9290  H     
28   H        14.0836   -1.5962    8.8052  H     
29   H        22.9598   -2.8952    7.2730  H     
30   H        22.7001   -3.2522    8.9870  H     
31   H        21.7172   -2.0117    8.1611  H     
32   H        12.2816   -1.9412    9.8036  H     
33   H        10.3385   -2.1698   11.1769  H     
34   H        12.2931   -5.1480   13.4529  H     
35   H        14.2457   -4.8904   12.1168  H     
36   H        21.8332   -5.9939    8.8458  H     
@<TRIPOS>BOND
     1    1    2 2
     2    1    4 1
     3    1   14 1
     4    2    3 1
     5    2   23 1
     6    3    6 2
     7    4    5 2
     8    5    6 1
     9    5    8 1
    10    6    7 1
    11    7    9 1
    12    8    9 1
    13    8   12 2
    14    9   10 2
    15   10   11 1
    16   10   13 1
    17   11   12 1
    18   13   16 2
    19   13   20 1
    20   14   15 1
    21   16   17 1
    22   17   18 2
    23   18   19 1
    24   18   21 1
    25   19   20 2
    26   21   22 3
    27    3   24 1
    28    4   25 1
    29    7   26 1
    30    7   27 1
    31   11   28 1
    32   15   29 1
    33   15   30 1
    34   15   31 1
    35   16   32 1
    36   17   33 1
    37   19   34 1
    38   20   35 1
    39   23   36 1
@<TRIPOS>PROPERTY_DATA
  Total_Score	| 6.4479
  Crash		| -1.0774
  Polar		| 2.3244
  FragIndex	| 1
  FragRMSD	| 0.125

