@<TRIPOS>MOLECULE
BindingDB_50221612
 30 32 0 0 0
SMALL
NO_CHARGES


@<TRIPOS>ATOM
1    C        20.1762   -4.1996    8.6629  C     
2    C        20.1631   -5.1888    9.6823  C     
3    C        18.9804   -5.4300   10.4188  C     
4    C        19.0049   -3.4418    8.4005  C     
5    C        17.8543   -3.6732    9.1732  C     
6    C        17.8218   -4.6851   10.1372  C     
7    C        16.4924   -4.8106   10.7635  C     
8    C        16.6096   -3.0786    9.1550  C     
9    C        15.8041   -3.7118   10.0682  C     
10   C        14.5945   -3.0413   10.0186  C     
11   N        14.7444   -2.0634    9.1038  N     
12   N        15.9450   -2.0605    8.5980  N     
13   C        13.5375   -3.2850   10.7216  C     
14   C        12.5570   -3.5142   11.3685  C     
15   O        21.2658   -4.1125    7.8405  O     
16   C        21.9207   -2.8311    7.8006  C     
17   O        21.2531   -5.9687    9.9879  O     
18   C        22.2522   -5.3325   10.8092  C     
19   H        18.9679   -6.1530   11.1439  H     
20   H        18.9932   -2.7371    7.6652  H     
21   H        16.0249   -5.7740   10.5384  H     
22   H        16.5250   -4.6402   11.8453  H     
23   H        14.0531   -1.4189    8.8734  H     
24   H        11.8024   -3.7036   11.8684  H     
25   H        21.2159   -1.9958    7.6816  H     
26   H        22.5977   -2.8329    6.9373  H     
27   H        22.5122   -2.6846    8.6982  H     
28   H        22.8732   -4.6796   10.2124  H     
29   H        22.9013   -6.1197   11.2145  H     
30   H        21.8088   -4.7765   11.6412  H     
@<TRIPOS>BOND
     1    1    2 2
     2    1    4 1
     3    1   15 1
     4    2    3 1
     5    2   17 1
     6    3    6 2
     7    4    5 2
     8    5    6 1
     9    5    8 1
    10    6    7 1
    11    7    9 1
    12    8    9 1
    13    8   12 2
    14    9   10 2
    15   10   11 1
    16   10   13 1
    17   11   12 1
    18   13   14 3
    19   15   16 1
    20   17   18 1
    21    3   19 1
    22    4   20 1
    23    7   21 1
    24    7   22 1
    25   11   23 1
    26   14   24 1
    27   16   25 1
    28   16   26 1
    29   16   27 1
    30   18   28 1
    31   18   29 1
    32   18   30 1
@<TRIPOS>PROPERTY_DATA
  Total_Score	| 6.0502
  Crash		| -0.2900
  Polar		| 2.1809
  FragIndex	| 1
  FragRMSD	| 0.143

