@<TRIPOS>MOLECULE
BindingDB_50221600
 41 44 0 0 0
SMALL
NO_CHARGES


@<TRIPOS>ATOM
1    C        20.1948   -4.1922    8.4931  C     
2    C        20.2970   -5.1320    9.5556  C     
3    C        19.1879   -5.3284   10.4137  C     
4    C        19.0554   -3.3586    8.3806  C     
5    C        17.9759   -3.5823    9.2406  C     
6    C        18.0067   -4.5855   10.2202  C     
7    C        16.6969   -4.7109   10.8856  C     
8    C        16.7183   -3.0288    9.2374  C     
9    C        15.9449   -3.6707   10.1620  C     
10   C        14.7104   -3.0452   10.0985  C     
11   N        14.8110   -2.0989    9.1424  N     
12   N        16.0030   -2.0730    8.6220  N     
13   C        13.6615   -3.2545   10.8296  C     
14   C        12.6727   -3.4380   11.4743  C     
15   C        11.5658   -3.6144   12.1371  C     
16   O        21.1635   -4.1209    7.5260  O     
17   C        22.0221   -2.9808    7.7057  C     
18   O        21.3897   -5.9427    9.7054  O     
19   C        22.3799   -5.4546   10.6796  C     
20   C        10.8968   -4.8601   12.0898  C     
21   C         9.6363   -5.0120   12.7040  C     
22   C         9.0289   -3.9236   13.3631  C     
23   C         9.7006   -2.6833   13.4171  C     
24   C        10.9670   -2.5362   12.8229  C     
25   C         7.8621   -4.0476   13.9193  C     
26   N         6.8328   -4.1429   14.4319  N     
27   H        19.2380   -6.0374   11.1592  H     
28   H        19.0138   -2.6216    7.6776  H     
29   H        16.2539   -5.6979   10.7198  H     
30   H        16.7698   -4.4869   11.9535  H     
31   H        14.1047   -1.4829    8.8924  H     
32   H        21.4455   -2.0325    7.7070  H     
33   H        22.7426   -2.9742    6.8748  H     
34   H        22.5792   -3.0765    8.6430  H     
35   H        22.9510   -4.5922   10.2936  H     
36   H        23.0967   -6.2766   10.8538  H     
37   H        21.9180   -5.1663   11.6426  H     
38   H        11.3102   -5.6617   11.6040  H     
39   H         9.1625   -5.9230   12.6488  H     
40   H         9.2730   -1.8714   13.8807  H     
41   H        11.4375   -1.6294   12.8977  H     
@<TRIPOS>BOND
     1    1    2 2
     2    1    4 1
     3    1   16 1
     4    2    3 1
     5    2   18 1
     6    3    6 2
     7    4    5 2
     8    5    6 1
     9    5    8 1
    10    6    7 1
    11    7    9 1
    12    8    9 1
    13    8   12 2
    14    9   10 2
    15   10   11 1
    16   10   13 1
    17   11   12 1
    18   13   14 3
    19   14   15 1
    20   15   20 2
    21   15   24 1
    22   16   17 1
    23   18   19 1
    24   20   21 1
    25   21   22 2
    26   22   23 1
    27   22   25 1
    28   23   24 2
    29   25   26 3
    30    3   27 1
    31    4   28 1
    32    7   29 1
    33    7   30 1
    34   11   31 1
    35   17   32 1
    36   17   33 1
    37   17   34 1
    38   19   35 1
    39   19   36 1
    40   19   37 1
    41   20   38 1
    42   21   39 1
    43   23   40 1
    44   24   41 1
@<TRIPOS>PROPERTY_DATA
  Total_Score	| 7.7762
  Crash		| -0.7854
  Polar		| 2.2239
  FragIndex	| 1
  FragRMSD	| 0.171

