@<TRIPOS>MOLECULE
BindingDB_50317410
 46 47 0 0 0
SMALL
NO_CHARGES


@<TRIPOS>ATOM
1    C        36.2869   43.0019   93.5737  C     
2    C        35.4187   44.0564   93.2610  C     
3    C        34.1225   43.7500   92.8220  C     
4    N        33.7542   42.4574   92.7029  N     
5    C        34.5649   41.3970   92.9790  C     
6    C        35.8832   41.6309   93.4592  C     
7    S        35.9467   45.6990   93.4525  S     
8    N        34.6773   46.7473   93.7702  N     
9    O        36.9757   45.8305   94.6527  O     
10   O        36.6621   46.1507   92.1111  O     
11   S        33.8483   39.8240   92.6956  S     
12   C        33.0644   40.1365   91.1598  C     
13   C        36.7854   40.6354   93.8534  C     
14   N        38.1082   40.8226   93.7788  N     
15   O        36.3657   39.5550   94.2785  O     
16   C        39.1831   40.0008   94.2309  C     
17   C        31.6504   40.1368   91.0508  C     
18   C        31.0293   40.4155   89.8162  C     
19   C        31.8178   40.6808   88.6784  C     
20   C        33.2229   40.6710   88.7751  C     
21   C        33.8448   40.4128   90.0080  C     
22   F        29.7272   40.4353   89.7049  F     
23   F        35.1503   40.4187   90.0707  F     
24   F        33.9416   40.8963   87.7082  F     
25   F        30.8984   39.8779   92.0911  F     
26   C        39.1875   39.6793   95.7513  C     
27   C        38.8565   40.8275   96.7490  C     
28   C        39.7022   42.1256   96.6836  C     
29   N        41.1352   41.8482   96.8821  N     
30   H        37.2200   43.2301   93.9181  H     
31   H        33.4469   44.4839   92.5847  H     
32   H        34.6421   47.5889   93.3017  H     
33   H        33.8822   46.4122   94.2069  H     
34   H        38.4026   41.6444   93.3532  H     
35   H        39.1731   39.0639   93.6682  H     
36   H        40.1157   40.5264   93.9702  H     
37   H        31.3688   40.8725   87.7780  H     
38   H        38.4603   38.8807   95.9269  H     
39   H        40.1571   39.2685   96.0099  H     
40   H        37.8085   41.1027   96.6216  H     
41   H        38.9395   40.4239   97.7678  H     
42   H        39.5573   42.6303   95.7239  H     
43   H        39.3679   42.7974   97.4806  H     
44   H        41.2987   41.4983   97.8271  H     
45   H        41.6784   42.7027   96.7406  H     
46   H        41.4326   41.1414   96.2081  H     
@<TRIPOS>BOND
     1    1    2 2
     2    1    6 1
     3    2    3 1
     4    2    7 1
     5    3    4 2
     6    4    5 1
     7    5    6 2
     8    5   11 1
     9    6   13 1
    10    7    8 am
    11    7    9 2
    12    7   10 2
    13   11   12 1
    14   12   17 2
    15   12   21 1
    16   13   14 am
    17   13   15 2
    18   14   16 1
    19   16   26 1
    20   17   18 1
    21   17   25 1
    22   18   19 2
    23   18   22 1
    24   19   20 1
    25   20   21 2
    26   20   24 1
    27   21   23 1
    28   26   27 1
    29   27   28 1
    30   28   29 1
    31    1   30 1
    32    3   31 1
    33    8   32 1
    34    8   33 1
    35   14   34 1
    36   16   35 1
    37   16   36 1
    38   19   37 1
    39   26   38 1
    40   26   39 1
    41   27   40 1
    42   27   41 1
    43   28   42 1
    44   28   43 1
    45   29   44 1
    46   29   45 1
    47   29   46 1
@<TRIPOS>PROPERTY_DATA
  Total_Score	| 9.1906
  Crash		| -2.1421
  Polar		| 6.0143
  FragIndex	| 1
  FragRMSD	| 0.832

