@<TRIPOS>MOLECULE
BindingDB_50317400
 44 45 0 0 0
SMALL
NO_CHARGES


@<TRIPOS>ATOM
1    C        36.2928   42.9012   93.5398  C     
2    C        35.4224   43.9790   93.2906  C     
3    C        34.1237   43.7047   92.8376  C     
4    N        33.7507   42.4185   92.6381  N     
5    C        34.5614   41.3497   92.8639  C     
6    C        35.8893   41.5509   93.3513  C     
7    S        35.9529   45.6162   93.5421  S     
8    N        34.7675   46.7293   93.9484  N     
9    O        37.0896   45.7118   94.6464  O     
10   O        36.6211   46.1288   92.1980  O     
11   S        33.8610   39.7951   92.4723  S     
12   C        33.0905   40.1736   90.9523  C     
13   C        36.7707   40.5154   93.6928  C     
14   N        38.0684   40.5460   93.3804  N     
15   O        36.3575   39.6006   94.3993  O     
16   C        39.0940   39.6143   93.7697  C     
17   C        39.0830   39.1796   95.2640  C     
18   C        31.6833   40.1050   90.8518  C     
19   C        31.0410   40.3764   89.6270  C     
20   C        31.8043   40.7085   88.4923  C     
21   C        33.2020   40.7865   88.5876  C     
22   C        33.8458   40.5120   89.8095  C     
23   C        38.9358   40.3473   96.2773  C     
24   O        38.4805   39.7925   97.5352  O     
25   C        37.5818   40.6423   98.2712  C     
26   H        37.2263   43.1162   93.8909  H     
27   H        33.4496   44.4515   92.6471  H     
28   H        34.6034   47.4835   93.3585  H     
29   H        34.4319   46.7527   94.8580  H     
30   H        38.3682   41.2827   92.8292  H     
31   H        39.0097   38.7260   93.1398  H     
32   H        40.0600   40.0817   93.5549  H     
33   H        38.2542   38.4796   95.4090  H     
34   H        40.0036   38.6315   95.4811  H     
35   H        31.1149   39.8568   91.6661  H     
36   H        30.0222   40.3267   89.5608  H     
37   H        31.3399   40.8983   87.6011  H     
38   H        33.7559   41.0375   87.7639  H     
39   H        34.8657   40.5677   89.8584  H     
40   H        39.9094   40.8417   96.4203  H     
41   H        38.2257   41.0842   95.8776  H     
42   H        38.0464   41.6071   98.5143  H     
43   H        37.3156   40.1352   99.2047  H     
44   H        36.6603   40.8119   97.6988  H     
@<TRIPOS>BOND
     1    1    2 2
     2    1    6 1
     3    2    3 1
     4    2    7 1
     5    3    4 2
     6    4    5 1
     7    5    6 2
     8    5   11 1
     9    6   13 1
    10    7    8 am
    11    7    9 2
    12    7   10 2
    13   11   12 1
    14   12   18 2
    15   12   22 1
    16   13   14 am
    17   13   15 2
    18   14   16 1
    19   16   17 1
    20   17   23 1
    21   18   19 1
    22   19   20 2
    23   20   21 1
    24   21   22 2
    25   23   24 1
    26   24   25 1
    27    1   26 1
    28    3   27 1
    29    8   28 1
    30    8   29 1
    31   14   30 1
    32   16   31 1
    33   16   32 1
    34   17   33 1
    35   17   34 1
    36   18   35 1
    37   19   36 1
    38   20   37 1
    39   21   38 1
    40   22   39 1
    41   23   40 1
    42   23   41 1
    43   25   42 1
    44   25   43 1
    45   25   44 1
@<TRIPOS>PROPERTY_DATA
  Total_Score	| 9.7162
  Crash		| -1.4339
  Polar		| 6.2157
  FragIndex	| 1
  FragRMSD	| 0.782

