@<TRIPOS>MOLECULE
BindingDB_50317404
 37 38 0 0 0
SMALL
NO_CHARGES


@<TRIPOS>ATOM
1    C        36.3139   42.9567   93.5431  C     
2    C        35.4554   44.0344   93.2485  C     
3    C        34.1790   43.7490   92.7364  C     
4    N        33.8094   42.4630   92.5478  N     
5    C        34.6034   41.3948   92.8248  C     
6    C        35.9098   41.6089   93.3557  C     
7    S        35.9352   45.6826   93.5342  S     
8    N        34.6798   46.6063   94.1541  N     
9    O        37.0476   45.6994   94.6675  O     
10   O        36.5360   46.3596   92.2298  O     
11   S        33.9262   39.8211   92.4727  S     
12   C        33.1287   40.1783   90.9631  C     
13   C        36.7797   40.5786   93.7312  C     
14   N        38.0755   40.6290   93.4350  N     
15   O        36.3457   39.6314   94.3730  O     
16   C        39.0793   39.6721   93.7905  C     
17   C        39.2407   39.4998   95.3166  C     
18   C        31.7206   40.1166   90.8894  C     
19   C        31.0621   40.3923   89.6743  C     
20   C        31.8107   40.7229   88.5272  C     
21   C        33.2146   40.7852   88.5968  C     
22   C        33.8748   40.5130   89.8098  C     
23   F        29.7595   40.3413   89.6109  F     
24   H        37.2376   43.1624   93.9336  H     
25   H        33.5189   44.4937   92.5036  H     
26   H        34.8667   47.2372   94.8633  H     
27   H        33.7678   46.3108   94.0154  H     
28   H        38.3798   41.3745   92.8933  H     
29   H        38.8641   38.7056   93.3241  H     
30   H        40.0313   40.0303   93.3882  H     
31   H        39.3997   40.4710   95.7909  H     
32   H        40.1012   38.8618   95.5280  H     
33   H        38.3550   39.0368   95.7507  H     
34   H        31.1696   39.8746   91.7186  H     
35   H        31.3378   40.9202   87.6423  H     
36   H        33.7557   41.0301   87.7633  H     
37   H        34.8969   40.5690   89.8500  H     
@<TRIPOS>BOND
     1    1    2 2
     2    1    6 1
     3    2    3 1
     4    2    7 1
     5    3    4 2
     6    4    5 1
     7    5    6 2
     8    5   11 1
     9    6   13 1
    10    7    8 am
    11    7    9 2
    12    7   10 2
    13   11   12 1
    14   12   18 2
    15   12   22 1
    16   13   14 am
    17   13   15 2
    18   14   16 1
    19   16   17 1
    20   18   19 1
    21   19   20 2
    22   19   23 1
    23   20   21 1
    24   21   22 2
    25    1   24 1
    26    3   25 1
    27    8   26 1
    28    8   27 1
    29   14   28 1
    30   16   29 1
    31   16   30 1
    32   17   31 1
    33   17   32 1
    34   17   33 1
    35   18   34 1
    36   20   35 1
    37   21   36 1
    38   22   37 1
@<TRIPOS>PROPERTY_DATA
  Total_Score	| 7.4648
  Crash		| -1.1925
  Polar		| 5.0271
  FragIndex	| 1
  FragRMSD	| 0.825

