@<TRIPOS>MOLECULE
BindingDB_50317407
 44 45 0 0 0
SMALL
NO_CHARGES


@<TRIPOS>ATOM
1    C        36.3349   42.9502   93.5282  C     
2    C        35.4720   44.0347   93.2701  C     
3    C        34.1765   43.7589   92.8042  C     
4    N        33.7867   42.4761   92.6464  N     
5    C        34.5796   41.4025   92.8980  C     
6    C        35.9169   41.6028   93.3572  C     
7    S        35.9616   45.6807   93.5534  S     
8    N        34.7122   46.6138   94.1753  N     
9    O        37.0646   45.6957   94.6954  O     
10   O        36.5725   46.3675   92.2580  O     
11   S        33.8250   39.8491   92.6250  S     
12   C        33.0834   40.1946   91.0833  C     
13   C        36.7969   40.5590   93.6828  C     
14   N        38.0837   40.5830   93.3373  N     
15   O        36.3860   39.6147   94.3454  O     
16   C        39.0942   39.6275   93.6915  C     
17   C        39.1037   39.2105   95.1889  C     
18   C        31.6737   40.2059   90.9660  C     
19   C        31.0711   40.4705   89.7196  C     
20   C        31.8704   40.7107   88.5891  C     
21   C        33.2727   40.6931   88.6971  C     
22   C        33.8824   40.4360   89.9411  C     
23   F        29.7712   40.4875   89.5971  F     
24   C        39.0665   40.3906   96.1900  C     
25   O        38.5799   39.8915   97.4495  O     
26   C        37.6645   40.7436   98.1435  C     
27   F        35.1886   40.4152   90.0148  F     
28   F        34.0029   40.8991   87.6365  F     
29   F        30.9078   39.9729   92.0009  F     
30   H        37.2727   43.1541   93.8831  H     
31   H        33.5128   44.5069   92.5941  H     
32   H        34.8837   47.1837   94.9354  H     
33   H        33.7996   46.3942   93.9521  H     
34   H        38.3855   41.3234   92.7880  H     
35   H        38.9703   38.7358   93.0725  H     
36   H        40.0647   40.0659   93.4469  H     
37   H        38.2422   38.5662   95.3746  H     
38   H        39.9952   38.6079   95.3839  H     
39   H        31.4278   40.8909   87.6859  H     
40   H        40.0779   40.7792   96.3383  H     
41   H        38.4492   41.1985   95.7869  H     
42   H        38.1382   41.6955   98.3915  H     
43   H        37.3576   40.2482   99.0629  H     
44   H        36.7704   40.9200   97.5381  H     
@<TRIPOS>BOND
     1    1    2 2
     2    1    6 1
     3    2    3 1
     4    2    7 1
     5    3    4 2
     6    4    5 1
     7    5    6 2
     8    5   11 1
     9    6   13 1
    10    7    8 am
    11    7    9 2
    12    7   10 2
    13   11   12 1
    14   12   18 2
    15   12   22 1
    16   13   14 am
    17   13   15 2
    18   14   16 1
    19   16   17 1
    20   17   24 1
    21   18   19 1
    22   18   29 1
    23   19   20 2
    24   19   23 1
    25   20   21 1
    26   21   22 2
    27   21   28 1
    28   22   27 1
    29   24   25 1
    30   25   26 1
    31    1   30 1
    32    3   31 1
    33    8   32 1
    34    8   33 1
    35   14   34 1
    36   16   35 1
    37   16   36 1
    38   17   37 1
    39   17   38 1
    40   20   39 1
    41   24   40 1
    42   24   41 1
    43   26   42 1
    44   26   43 1
    45   26   44 1
@<TRIPOS>PROPERTY_DATA
  Total_Score	| 9.2182
  Crash		| -1.8842
  Polar		| 6.1479
  FragIndex	| 1
  FragRMSD	| 0.782

