@<TRIPOS>MOLECULE
BindingDB_50317402
 47 49 0 0 0
SMALL
NO_CHARGES


@<TRIPOS>ATOM
1    C        36.2549   42.9165   93.5221  C     
2    C        35.3941   43.9943   93.2571  C     
3    C        34.0954   43.7243   92.7844  C     
4    N        33.7108   42.4452   92.5940  N     
5    C        34.5014   41.3691   92.8321  C     
6    C        35.8288   41.5697   93.3350  C     
7    S        35.9097   45.6420   93.5016  S     
8    N        34.6830   46.6098   94.0854  N     
9    O        36.9799   45.6574   94.6734  O     
10   O        36.5738   46.2227   92.1839  O     
11   S        33.7864   39.8069   92.4757  S     
12   C        33.0388   40.1808   90.9451  C     
13   C        36.6773   40.5302   93.7045  C     
14   N        37.9711   40.5290   93.3946  N     
15   O        36.2526   39.5993   94.3972  O     
16   C        38.9221   39.5035   93.7283  C     
17   C        38.9692   39.1434   95.2374  C     
18   C        31.6342   40.1632   90.8209  C     
19   C        31.0311   40.4474   89.5829  C     
20   C        31.8252   40.7449   88.4610  C     
21   C        33.2274   40.7637   88.5836  C     
22   C        33.8334   40.4801   89.8199  C     
23   C        39.4497   40.2843   96.0911  C     
24   C        38.5783   40.8594   97.0450  C     
25   C        39.0320   41.8913   97.8905  C     
26   C        40.3474   42.3670   97.7803  C     
27   C        41.2204   41.8058   96.8387  C     
28   C        40.7757   40.7734   95.9943  C     
29   H        37.1866   43.1070   93.8826  H     
30   H        33.4373   44.4744   92.5737  H     
31   H        34.8983   47.2904   94.7433  H     
32   H        33.7644   46.3077   94.0144  H     
33   H        38.3140   41.2506   92.8488  H     
34   H        38.6735   38.6038   93.1533  H     
35   H        39.9021   39.8391   93.3778  H     
36   H        37.9687   38.8064   95.5360  H     
37   H        39.6731   38.2962   95.3879  H     
38   H        31.0416   39.9414   91.6231  H     
39   H        30.0104   40.4374   89.4903  H     
40   H        31.3867   40.9477   87.5576  H     
41   H        33.8047   40.9772   87.7674  H     
42   H        34.8522   40.4866   89.8879  H     
43   H        37.6141   40.5228   97.1432  H     
44   H        38.4050   42.2784   98.5952  H     
45   H        40.6704   43.1212   98.3957  H     
46   H        42.1808   42.1363   96.7755  H     
47   H        41.4262   40.3556   95.3292  H     
@<TRIPOS>BOND
     1    1    2 2
     2    1    6 1
     3    2    3 1
     4    2    7 1
     5    3    4 2
     6    4    5 1
     7    5    6 2
     8    5   11 1
     9    6   13 1
    10    7    8 am
    11    7    9 2
    12    7   10 2
    13   11   12 1
    14   12   18 2
    15   12   22 1
    16   13   14 am
    17   13   15 2
    18   14   16 1
    19   16   17 1
    20   17   23 1
    21   18   19 1
    22   19   20 2
    23   20   21 1
    24   21   22 2
    25   23   24 2
    26   23   28 1
    27   24   25 1
    28   25   26 2
    29   26   27 1
    30   27   28 2
    31    1   29 1
    32    3   30 1
    33    8   31 1
    34    8   32 1
    35   14   33 1
    36   16   34 1
    37   16   35 1
    38   17   36 1
    39   17   37 1
    40   18   38 1
    41   19   39 1
    42   20   40 1
    43   21   41 1
    44   22   42 1
    45   24   43 1
    46   25   44 1
    47   26   45 1
    48   27   46 1
    49   28   47 1
@<TRIPOS>PROPERTY_DATA
  Total_Score	| 9.2638
  Crash		| -2.2764
  Polar		| 5.2227
  FragIndex	| 1
  FragRMSD	| 0.824

