@<TRIPOS>MOLECULE
BindingDB_50317398
 46 47 0 0 0
SMALL
NO_CHARGES


@<TRIPOS>ATOM
1    C        36.3229   42.9765   93.4808  C     
2    C        35.4705   44.0664   93.2099  C     
3    C        34.1774   43.8003   92.7292  C     
4    N        33.7899   42.5144   92.5564  N     
5    C        34.5769   41.4372   92.8263  C     
6    C        35.8956   41.6352   93.3322  C     
7    S        35.9869   45.7009   93.5188  S     
8    N        34.8010   46.7618   94.0554  N     
9    O        37.1151   45.7431   94.6379  O     
10   O        36.6619   46.3548   92.2402  O     
11   S        33.8637   39.8713   92.5198  S     
12   C        33.0666   40.1962   91.0042  C     
13   C        36.7401   40.5996   93.7561  C     
14   N        38.0561   40.6102   93.5319  N     
15   O        36.2627   39.7165   94.4620  O     
16   C        39.0144   39.6638   94.0290  C     
17   C        39.8660   40.2299   95.1966  C     
18   C        33.8057   40.5999   89.8681  C     
19   C        33.1479   40.8371   88.6476  C     
20   C        31.7584   40.6723   88.5469  C     
21   C        31.0177   40.2747   89.6763  C     
22   C        31.6687   40.0340   90.8998  C     
23   N        39.0620   41.0938   96.1325  N     
24   C        39.4262   40.9394   97.5689  C     
25   C        39.0305   42.5352   95.7570  C     
26   H        37.2594   43.1766   93.8391  H     
27   H        33.5256   44.5563   92.5107  H     
28   H        34.7553   46.9721   95.0050  H     
29   H        34.3932   47.3690   93.4169  H     
30   H        38.4168   41.3268   92.9907  H     
31   H        38.5451   38.7350   94.3701  H     
32   H        39.6831   39.3981   93.2009  H     
33   H        40.3030   39.3655   95.7152  H     
34   H        40.7121   40.7775   94.7704  H     
35   H        34.8227   40.7151   89.9212  H     
36   H        33.6842   41.1194   87.8272  H     
37   H        31.2805   40.8401   87.6590  H     
38   H        30.0071   40.1452   89.6078  H     
39   H        31.1237   39.7379   91.7127  H     
40   H        38.0994   40.7572   96.0679  H     
41   H        39.3581   39.8905   97.8697  H     
42   H        38.7356   41.5075   98.1960  H     
43   H        40.4500   41.2931   97.7645  H     
44   H        39.9693   43.0369   96.0128  H     
45   H        38.2128   43.0335   96.2864  H     
46   H        38.8603   42.6578   94.6912  H     
@<TRIPOS>BOND
     1    1    2 2
     2    1    6 1
     3    2    3 1
     4    2    7 1
     5    3    4 2
     6    4    5 1
     7    5    6 2
     8    5   11 1
     9    6   13 1
    10    7    8 am
    11    7    9 2
    12    7   10 2
    13   11   12 1
    14   12   18 2
    15   12   22 1
    16   13   14 am
    17   13   15 2
    18   14   16 1
    19   16   17 1
    20   17   23 1
    21   18   19 1
    22   19   20 2
    23   20   21 1
    24   21   22 2
    25   23   24 1
    26   23   25 1
    27    1   26 1
    28    3   27 1
    29    8   28 1
    30    8   29 1
    31   14   30 1
    32   16   31 1
    33   16   32 1
    34   17   33 1
    35   17   34 1
    36   18   35 1
    37   19   36 1
    38   20   37 1
    39   21   38 1
    40   22   39 1
    41   23   40 1
    42   24   41 1
    43   24   42 1
    44   24   43 1
    45   25   44 1
    46   25   45 1
    47   25   46 1
@<TRIPOS>PROPERTY_DATA
  Total_Score	| 8.2347
  Crash		| -2.3527
  Polar		| 5.0522
  FragIndex	| 1
  FragRMSD	| 0.858

