@<TRIPOS>MOLECULE
BindingDB_50317397
 37 38 0 0 0
SMALL
NO_CHARGES


@<TRIPOS>ATOM
1    C        36.2752   42.9528   93.5256  C     
2    C        35.4172   44.0323   93.2527  C     
3    C        34.1239   43.7562   92.7827  C     
4    N        33.7536   42.4692   92.5906  N     
5    C        34.5534   41.4013   92.8285  C     
6    C        35.8689   41.6027   93.3369  C     
7    S        35.9235   45.6717   93.5319  S     
8    N        34.6437   46.6852   93.9224  N     
9    O        37.0193   45.7685   94.6763  O     
10   O        36.5632   46.2216   92.1887  O     
11   S        33.8679   39.8407   92.4487  S     
12   C        33.0918   40.1456   90.9126  C     
13   C        36.7387   40.5635   93.6901  C     
14   N        38.0273   40.5888   93.3607  N     
15   O        36.3241   39.6205   94.3570  O     
16   C        39.0207   39.6082   93.6791  C     
17   C        39.3258   39.4974   95.1997  C     
18   C        33.4775   41.2189   90.0730  C     
19   C        32.8512   41.4127   88.8304  C     
20   C        31.8490   40.5249   88.3969  C     
21   C        31.4680   39.4476   89.2186  C     
22   C        32.0812   39.2665   90.4712  C     
23   H        37.2092   43.1532   93.9064  H     
24   H        33.4645   44.5037   92.5645  H     
25   H        34.6404   47.5932   93.5832  H     
26   H        33.8240   46.3078   94.2771  H     
27   H        38.3443   41.3230   92.8116  H     
28   H        38.7149   38.6239   93.2876  H     
29   H        39.9613   39.9029   93.1825  H     
30   H        39.6407   40.4730   95.5987  H     
31   H        40.1233   38.7747   95.3726  H     
32   H        38.4328   39.1682   95.7427  H     
33   H        34.2162   41.8653   90.3698  H     
34   H        33.1302   42.1945   88.2360  H     
35   H        31.4069   40.6577   87.4820  H     
36   H        30.7389   38.8033   88.8999  H     
37   H        31.7886   38.4757   91.0547  H     
@<TRIPOS>BOND
     1    1    2 2
     2    1    6 1
     3    2    3 1
     4    2    7 1
     5    3    4 2
     6    4    5 1
     7    5    6 2
     8    5   11 1
     9    6   13 1
    10    7    8 am
    11    7    9 2
    12    7   10 2
    13   11   12 1
    14   12   18 2
    15   12   22 1
    16   13   14 am
    17   13   15 2
    18   14   16 1
    19   16   17 1
    20   18   19 1
    21   19   20 2
    22   20   21 1
    23   21   22 2
    24    1   23 1
    25    3   24 1
    26    8   25 1
    27    8   26 1
    28   14   27 1
    29   16   28 1
    30   16   29 1
    31   17   30 1
    32   17   31 1
    33   17   32 1
    34   18   33 1
    35   19   34 1
    36   20   35 1
    37   21   36 1
    38   22   37 1
@<TRIPOS>PROPERTY_DATA
  Total_Score	| 7.1660
  Crash		| -1.6305
  Polar		| 5.1204
  FragIndex	| 1
  FragRMSD	| 0.925

