@<TRIPOS>MOLECULE
BindingDB_50317406
 44 45 0 0 0
SMALL
NO_CHARGES


@<TRIPOS>ATOM
1    C        36.3096   42.9078   93.5404  C     
2    C        35.4426   43.9827   93.2668  C     
3    C        34.1510   43.7004   92.8047  C     
4    N        33.7748   42.4150   92.6300  N     
5    C        34.5757   41.3415   92.8722  C     
6    C        35.9002   41.5552   93.3622  C     
7    S        35.9454   45.6272   93.5337  S     
8    N        34.7084   46.7109   93.8684  N     
9    O        37.0044   45.7528   94.7077  O     
10   O        36.6747   46.1652   92.2272  O     
11   S        33.8876   39.7745   92.5111  S     
12   C        33.1439   40.1540   90.9792  C     
13   C        36.7710   40.5233   93.7105  C     
14   N        38.0646   40.5579   93.3924  N     
15   O        36.3492   39.6085   94.4125  O     
16   C        39.0702   39.6059   93.7643  C     
17   C        39.1029   39.1934   95.2643  C     
18   C        31.7392   40.2281   90.8798  C     
19   C        31.1313   40.5502   89.6495  C     
20   C        31.9267   40.7881   88.5133  C     
21   C        33.3277   40.7109   88.6086  C     
22   C        33.9368   40.3944   89.8362  C     
23   F        29.8318   40.6303   89.5604  F     
24   C        38.9805   40.3579   96.2864  C     
25   O        38.4971   39.8131   97.5315  O     
26   C        37.5912   40.6396   98.2779  C     
27   H        37.2417   43.1137   93.9058  H     
28   H        33.4887   44.4472   92.5872  H     
29   H        34.5054   47.4216   93.2424  H     
30   H        34.2471   46.6596   94.7183  H     
31   H        38.3809   41.3068   92.8623  H     
32   H        38.9367   38.7116   93.1499  H     
33   H        40.0370   40.0459   93.5016  H     
34   H        38.2848   38.4887   95.4451  H     
35   H        40.0339   38.6545   95.4576  H     
36   H        31.1528   40.0513   91.6993  H     
37   H        31.4915   41.0219   87.6183  H     
38   H        33.9035   40.8846   87.7839  H     
39   H        34.9559   40.3411   89.8901  H     
40   H        39.9587   40.8152   96.4538  H     
41   H        38.3051   41.1271   95.9033  H     
42   H        38.0392   41.6082   98.5099  H     
43   H        37.3569   40.1284   99.2120  H     
44   H        36.6607   40.7872   97.7254  H     
@<TRIPOS>BOND
     1    1    2 2
     2    1    6 1
     3    2    3 1
     4    2    7 1
     5    3    4 2
     6    4    5 1
     7    5    6 2
     8    5   11 1
     9    6   13 1
    10    7    8 am
    11    7    9 2
    12    7   10 2
    13   11   12 1
    14   12   18 2
    15   12   22 1
    16   13   14 am
    17   13   15 2
    18   14   16 1
    19   16   17 1
    20   17   24 1
    21   18   19 1
    22   19   20 2
    23   19   23 1
    24   20   21 1
    25   21   22 2
    26   24   25 1
    27   25   26 1
    28    1   27 1
    29    3   28 1
    30    8   29 1
    31    8   30 1
    32   14   31 1
    33   16   32 1
    34   16   33 1
    35   17   34 1
    36   17   35 1
    37   18   36 1
    38   20   37 1
    39   21   38 1
    40   22   39 1
    41   24   40 1
    42   24   41 1
    43   26   42 1
    44   26   43 1
    45   26   44 1
@<TRIPOS>PROPERTY_DATA
  Total_Score	| 9.7576
  Crash		| -1.5780
  Polar		| 6.3389
  FragIndex	| 1
  FragRMSD	| 0.786

