@<TRIPOS>MOLECULE
BindingDB_50317399
 41 42 0 0 0
SMALL
NO_CHARGES


@<TRIPOS>ATOM
1    C        36.3182   42.9540   93.6895  C     
2    C        35.4530   44.0028   93.3099  C     
3    C        34.2022   43.6762   92.7629  C     
4    N        33.8773   42.3753   92.5784  N     
5    C        34.6902   41.3351   92.9107  C     
6    C        35.9563   41.5957   93.5197  C     
7    S        35.9313   45.6599   93.5167  S     
8    N        34.6740   46.7371   93.7853  N     
9    O        36.9979   45.8487   94.6763  O     
10   O        36.6385   46.1270   92.1733  O     
11   S        34.1106   39.7386   92.4943  S     
12   C        33.2909   40.1263   91.0087  C     
13   C        36.8138   40.5910   93.9789  C     
14   N        38.1273   40.6661   93.7888  N     
15   O        36.3557   39.6592   94.6254  O     
16   C        39.1154   39.7169   94.2148  C     
17   C        39.6600   40.0331   95.6234  C     
18   C        31.8811   40.2013   90.9913  C     
19   C        31.2046   40.5829   89.8180  C     
20   C        31.9346   40.8626   88.6475  C     
21   C        33.3366   40.7617   88.6493  C     
22   C        34.0137   40.3845   89.8247  C     
23   O        38.7179   39.6779   96.6532  O     
24   C        38.1584   40.7614   97.4164  C     
25   H        37.2185   43.1918   94.1206  H     
26   H        33.5363   44.3968   92.4811  H     
27   H        34.5345   47.4855   93.1761  H     
28   H        34.0906   46.6217   94.5591  H     
29   H        38.4639   41.4138   93.2674  H     
30   H        38.7291   38.6959   94.1857  H     
31   H        39.9420   39.7746   93.4992  H     
32   H        40.5515   39.4202   95.7872  H     
33   H        39.9783   41.0803   95.6696  H     
34   H        31.3418   40.0141   91.8415  H     
35   H        30.1864   40.6620   89.8187  H     
36   H        31.4447   41.1510   87.7990  H     
37   H        33.8625   40.9646   87.7976  H     
38   H        35.0372   40.3278   89.8179  H     
39   H        38.9422   41.3075   97.9449  H     
40   H        37.4754   40.3418   98.1572  H     
41   H        37.6015   41.4472   96.7767  H     
@<TRIPOS>BOND
     1    1    2 2
     2    1    6 1
     3    2    3 1
     4    2    7 1
     5    3    4 2
     6    4    5 1
     7    5    6 2
     8    5   11 1
     9    6   13 1
    10    7    8 am
    11    7    9 2
    12    7   10 2
    13   11   12 1
    14   12   18 2
    15   12   22 1
    16   13   14 am
    17   13   15 2
    18   14   16 1
    19   16   17 1
    20   17   23 1
    21   18   19 1
    22   19   20 2
    23   20   21 1
    24   21   22 2
    25   23   24 1
    26    1   25 1
    27    3   26 1
    28    8   27 1
    29    8   28 1
    30   14   29 1
    31   16   30 1
    32   16   31 1
    33   17   32 1
    34   17   33 1
    35   18   34 1
    36   19   35 1
    37   20   36 1
    38   21   37 1
    39   22   38 1
    40   24   39 1
    41   24   40 1
    42   24   41 1
@<TRIPOS>PROPERTY_DATA
  Total_Score	| 8.7154
  Crash		| -1.5396
  Polar		| 6.3066
  FragIndex	| 1
  FragRMSD	| 0.880

