@<TRIPOS>MOLECULE
BindingDB_50317411
 54 56 0 0 0
SMALL
NO_CHARGES


@<TRIPOS>ATOM
1    C        36.2583   42.9619   93.4978  C     
2    C        35.3739   44.0361   93.2771  C     
3    C        34.0638   43.7524   92.8593  C     
4    N        33.6836   42.4638   92.7141  N     
5    C        34.4963   41.3984   92.9305  C     
6    C        35.8421   41.6146   93.3416  C     
7    S        35.8778   45.6862   93.5220  S     
8    N        34.6373   46.6307   94.1476  N     
9    O        36.9906   45.7243   94.6555  O     
10   O        36.4766   46.3583   92.2128  O     
11   S        33.7679   39.8395   92.6311  S     
12   C        33.0998   40.1633   91.0444  C     
13   C        36.7568   40.5868   93.5714  C     
14   N        37.9960   40.6788   93.0868  N     
15   O        36.3940   39.5908   94.1800  O     
16   C        39.1087   39.7736   93.1444  C     
17   C        31.6958   40.2785   90.8794  C     
18   C        31.1574   40.5446   89.5996  C     
19   C        32.0114   40.6719   88.4895  C     
20   C        33.4010   40.5553   88.6474  C     
21   C        33.9502   40.3070   89.9235  C     
22   F        29.8667   40.6744   89.4297  F     
23   F        35.2489   40.2027   90.0468  F     
24   F        34.1839   40.6742   87.6136  F     
25   F        30.8761   40.1420   91.8933  F     
26   C        38.9859   38.4154   93.8786  C     
27   C        38.9739   38.4728   95.4335  C     
28   C        39.2845   39.7754   96.0960  C     
29   C        38.3640   40.3750   96.9745  C     
30   C        38.7081   41.5367   97.6968  C     
31   C        39.9746   42.1268   97.5562  C     
32   C        40.8967   41.5471   96.6504  C     
33   C        40.5611   40.3945   95.9285  C     
34   O        40.1978   43.2587   98.3039  O     
35   C        41.5624   43.6286   98.5813  C     
36   H        37.2070   43.1704   93.8115  H     
37   H        33.3877   44.4935   92.6705  H     
38   H        34.8051   47.1896   94.9259  H     
39   H        33.7166   46.4193   93.9020  H     
40   H        38.1979   41.4781   92.5831  H     
41   H        39.4081   39.5876   92.1048  H     
42   H        39.9350   40.3040   93.6167  H     
43   H        31.6197   40.8410   87.5602  H     
44   H        38.0818   37.9095   93.5291  H     
45   H        39.8392   37.8043   93.5614  H     
46   H        38.0014   38.1104   95.7786  H     
47   H        39.7033   37.7520   95.7985  H     
48   H        37.4360   39.9683   97.1242  H     
49   H        38.0279   41.9304   98.3512  H     
50   H        41.8165   41.9788   96.5316  H     
51   H        41.2680   39.9570   95.3395  H     
52   H        42.1680   42.7792   98.9034  H     
53   H        41.5581   44.3881   99.3691  H     
54   H        42.0136   44.0665   97.6881  H     
@<TRIPOS>BOND
     1    1    2 2
     2    1    6 1
     3    2    3 1
     4    2    7 1
     5    3    4 2
     6    4    5 1
     7    5    6 2
     8    5   11 1
     9    6   13 1
    10    7    8 am
    11    7    9 2
    12    7   10 2
    13   11   12 1
    14   12   17 2
    15   12   21 1
    16   13   14 am
    17   13   15 2
    18   14   16 1
    19   16   26 1
    20   17   18 1
    21   17   25 1
    22   18   19 2
    23   18   22 1
    24   19   20 1
    25   20   21 2
    26   20   24 1
    27   21   23 1
    28   26   27 1
    29   27   28 1
    30   28   29 2
    31   28   33 1
    32   29   30 1
    33   30   31 2
    34   31   32 1
    35   31   34 1
    36   32   33 2
    37   34   35 1
    38    1   36 1
    39    3   37 1
    40    8   38 1
    41    8   39 1
    42   14   40 1
    43   16   41 1
    44   16   42 1
    45   19   43 1
    46   26   44 1
    47   26   45 1
    48   27   46 1
    49   27   47 1
    50   29   48 1
    51   30   49 1
    52   32   50 1
    53   33   51 1
    54   35   52 1
    55   35   53 1
    56   35   54 1
@<TRIPOS>PROPERTY_DATA
  Total_Score	| 8.6955
  Crash		| -4.2078
  Polar		| 4.5213
  FragIndex	| 1
  FragRMSD	| 1.004

