@<TRIPOS>MOLECULE
BindingDB_50317405
 48 50 0 0 0
SMALL
NO_CHARGES


@<TRIPOS>ATOM
1    C        36.3914   42.9582   93.7601  C     
2    C        35.5558   44.0087   93.3261  C     
3    C        34.3228   43.6758   92.7326  C     
4    N        33.9825   42.3816   92.5640  N     
5    C        34.7680   41.3368   92.9569  C     
6    C        36.0149   41.5998   93.6085  C     
7    S        36.0007   45.6777   93.5493  S     
8    N        34.7481   46.6116   94.1564  N     
9    O        37.1380   45.7885   94.6499  O     
10   O        36.5873   46.3689   92.2481  O     
11   S        34.1827   39.7293   92.5841  S     
12   C        33.3371   40.0346   91.0901  C     
13   C        36.8347   40.6035   94.1603  C     
14   N        38.1582   40.7141   94.1728  N     
15   O        36.3078   39.6758   94.7748  O     
16   C        39.0828   39.9222   94.9172  C     
17   C        39.7561   38.9035   94.0819  C     
18   C        34.0515   40.2506   89.8948  C     
19   C        33.3628   40.4940   88.6905  C     
20   C        31.9548   40.5068   88.6764  C     
21   C        31.2382   40.2714   89.8633  C     
22   C        31.9266   40.0294   91.0637  C     
23   F        34.0451   40.7064   87.5967  F     
24   C        39.9259   37.5706   94.5239  C     
25   C        40.6224   36.6367   93.7345  C     
26   C        41.1498   37.0103   92.4827  C     
27   C        40.9893   38.3313   92.0367  C     
28   C        40.2994   39.2655   92.8292  C     
29   O        41.9013   36.1492   91.7252  O     
30   C        41.1687   35.0247   91.2078  C     
31   F        31.3077   40.7518   87.5698  F     
32   H        37.2728   43.1880   94.2249  H     
33   H        33.6760   44.4022   92.4105  H     
34   H        34.7425   46.8368   95.0976  H     
35   H        33.9337   46.6989   93.6364  H     
36   H        38.5429   41.4334   93.6346  H     
37   H        39.8546   40.6008   95.2994  H     
38   H        38.6094   39.4822   95.8012  H     
39   H        35.0764   40.2348   89.8943  H     
40   H        30.2180   40.2688   89.8550  H     
41   H        31.3974   39.8565   91.9194  H     
42   H        39.5681   37.2753   95.4367  H     
43   H        40.7435   35.6866   94.0811  H     
44   H        41.3835   38.6247   91.1404  H     
45   H        40.2055   40.2251   92.4879  H     
46   H        40.7807   34.3988   92.0196  H     
47   H        41.8546   34.4223   90.6188  H     
48   H        40.3320   35.3509   90.5742  H     
@<TRIPOS>BOND
     1    1    2 2
     2    1    6 1
     3    2    3 1
     4    2    7 1
     5    3    4 2
     6    4    5 1
     7    5    6 2
     8    5   11 1
     9    6   13 1
    10    7    8 am
    11    7    9 2
    12    7   10 2
    13   11   12 1
    14   12   18 2
    15   12   22 1
    16   13   14 am
    17   13   15 2
    18   14   16 1
    19   16   17 1
    20   17   24 2
    21   17   28 1
    22   18   19 1
    23   19   20 2
    24   19   23 1
    25   20   21 1
    26   20   31 1
    27   21   22 2
    28   24   25 1
    29   25   26 2
    30   26   27 1
    31   26   29 1
    32   27   28 2
    33   29   30 1
    34    1   32 1
    35    3   33 1
    36    8   34 1
    37    8   35 1
    38   14   36 1
    39   16   37 1
    40   16   38 1
    41   18   39 1
    42   21   40 1
    43   22   41 1
    44   24   42 1
    45   25   43 1
    46   27   44 1
    47   28   45 1
    48   30   46 1
    49   30   47 1
    50   30   48 1
@<TRIPOS>PROPERTY_DATA
  Total_Score	| 6.5350
  Crash		| -2.5772
  Polar		| 5.7515
  FragIndex	| 1
  FragRMSD	| 1.203

