@<TRIPOS>MOLECULE
BindingDB_50317403
 43 45 0 0 0
SMALL
NO_CHARGES


@<TRIPOS>ATOM
1    C        36.2144   42.9599   93.4423  C     
2    C        35.3509   44.0477   93.1833  C     
3    C        34.0614   43.7655   92.6794  C     
4    N        33.6938   42.4811   92.4786  N     
5    C        34.4929   41.4047   92.7284  C     
6    C        35.8124   41.6075   93.2415  C     
7    S        35.8685   45.6885   93.4714  S     
8    N        34.6854   46.6932   94.1064  N     
9    O        36.9491   45.6658   94.6329  O     
10   O        36.5425   46.3645   92.2004  O     
11   S        33.7985   39.8184   92.4472  S     
12   C        32.6739   40.1319   91.1491  C     
13   C        36.6684   40.5674   93.6371  C     
14   N        37.9884   40.6577   93.4691  N     
15   O        36.2374   39.6753   94.3583  O     
16   C        38.9786   40.1074   94.3462  C     
17   C        38.8750   40.7008   95.7063  C     
18   C        33.1168   40.7209   89.9367  C     
19   C        32.1866   40.9510   88.8975  C     
20   C        30.8367   40.5914   89.0527  C     
21   C        30.4019   39.9937   90.2479  C     
22   C        31.3151   39.7625   91.2991  C     
23   C        37.9650   40.2142   96.6797  C     
24   C        37.9115   40.7933   97.9580  C     
25   C        38.7401   41.8893   98.2544  C     
26   C        39.6504   42.3431   97.2817  C     
27   N        39.6886   41.7437   96.0514  N     
28   F        29.1360   39.6917   90.3680  F     
29   F        34.3676   41.0660   89.7639  F     
30   F        32.5634   41.4799   87.7689  F     
31   F        30.8807   39.1940   92.3982  F     
32   H        37.1388   43.1721   93.8350  H     
33   H        33.3986   44.5156   92.4591  H     
34   H        34.9049   47.2566   94.8591  H     
35   H        33.7615   46.5005   93.9196  H     
36   H        38.3069   41.3289   92.8472  H     
37   H        38.8821   39.0199   94.4105  H     
38   H        39.9608   40.3356   93.9131  H     
39   H        30.1671   40.7643   88.2954  H     
40   H        37.3187   39.4551   96.4781  H     
41   H        37.2647   40.4193   98.6566  H     
42   H        38.6639   42.3418   99.1678  H     
43   H        40.2901   43.1079   97.4949  H     
@<TRIPOS>BOND
     1    1    2 2
     2    1    6 1
     3    2    3 1
     4    2    7 1
     5    3    4 2
     6    4    5 1
     7    5    6 2
     8    5   11 1
     9    6   13 1
    10    7    8 am
    11    7    9 2
    12    7   10 2
    13   11   12 1
    14   12   18 2
    15   12   22 1
    16   13   14 am
    17   13   15 2
    18   14   16 1
    19   16   17 1
    20   17   23 2
    21   17   27 1
    22   18   19 1
    23   18   29 1
    24   19   20 2
    25   19   30 1
    26   20   21 1
    27   21   22 2
    28   21   28 1
    29   22   31 1
    30   23   24 1
    31   24   25 2
    32   25   26 1
    33   26   27 2
    34    1   32 1
    35    3   33 1
    36    8   34 1
    37    8   35 1
    38   14   36 1
    39   16   37 1
    40   16   38 1
    41   20   39 1
    42   23   40 1
    43   24   41 1
    44   25   42 1
    45   26   43 1
@<TRIPOS>PROPERTY_DATA
  Total_Score	| 7.5754
  Crash		| -2.9443
  Polar		| 5.1711
  FragIndex	| 1
  FragRMSD	| 0.978

