@<TRIPOS>MOLECULE
BindingDB_50317415
 46 47 0 0 0
SMALL
NO_CHARGES


@<TRIPOS>ATOM
1    C        36.2828   42.8887   93.6420  C     
2    C        35.4478   43.9654   93.2844  C     
3    C        34.1826   43.6843   92.7459  C     
4    N        33.8133   42.3925   92.5607  N     
5    C        34.5844   41.3247   92.8684  C     
6    C        35.8610   41.5477   93.4398  C     
7    S        35.9344   45.6189   93.5200  S     
8    N        34.6887   46.5713   94.1009  N     
9    O        37.0183   45.6773   94.6845  O     
10   O        36.5883   46.2474   92.2053  O     
11   S        33.9032   39.7462   92.5302  S     
12   C        33.0824   40.0795   91.0266  C     
13   C        31.6784   39.9394   90.9312  C     
14   C        31.0140   40.2169   89.7209  C     
15   C        31.7479   40.6225   88.5915  C     
16   C        33.1491   40.7506   88.6743  C     
17   C        33.8127   40.4804   89.8828  C     
18   F        29.7125   40.0830   89.6535  F     
19   C        36.7589   40.4626   93.9561  C     
20   N        38.0433   40.4026   93.2130  N     
21   F        31.1453   40.8706   87.4609  F     
22   C        39.2124   39.6625   93.7846  C     
23   C        39.1917   39.2174   95.2697  C     
24   C        39.2552   40.3492   96.3313  C     
25   O        38.6483   39.8623   97.5590  O     
26   C        37.7054   40.7386   98.1848  C     
27   H        37.2016   43.0849   94.0497  H     
28   H        33.5326   44.4203   92.4832  H     
29   H        34.8699   47.1808   94.8404  H     
30   H        33.7660   46.3251   93.9057  H     
31   H        31.1372   39.6379   91.7478  H     
32   H        33.6854   41.0310   87.8542  H     
33   H        34.8270   40.5761   89.9272  H     
34   H        36.9379   40.7091   95.0033  H     
35   H        36.2992   39.4864   93.9144  H     
36   H        37.8223   39.9445   92.3111  H     
37   H        38.3721   41.3440   92.9771  H     
38   H        39.3414   38.7709   93.1754  H     
39   H        40.1042   40.2996   93.6187  H     
40   H        38.3094   38.6042   95.4286  H     
41   H        40.0510   38.5482   95.4365  H     
42   H        40.2979   40.5962   96.5512  H     
43   H        38.7886   41.2741   95.9512  H     
44   H        38.1858   41.6659   98.4912  H     
45   H        37.3080   40.2394   99.0808  H     
46   H        36.8679   40.9570   97.5246  H     
@<TRIPOS>BOND
     1    1    2 2
     2    1    6 1
     3    2    3 1
     4    2    7 1
     5    3    4 2
     6    4    5 1
     7    5    6 2
     8    5   11 1
     9    6   19 1
    10    7    8 am
    11    7    9 2
    12    7   10 2
    13   11   12 1
    14   12   13 2
    15   12   17 1
    16   13   14 1
    17   14   15 2
    18   14   18 1
    19   15   16 1
    20   15   21 1
    21   16   17 2
    22   19   20 1
    23   20   22 1
    24   22   23 1
    25   23   24 1
    26   24   25 1
    27   25   26 1
    28    1   27 1
    29    3   28 1
    30    8   29 1
    31    8   30 1
    32   13   31 1
    33   16   32 1
    34   17   33 1
    35   19   34 1
    36   19   35 1
    37   20   36 1
    38   20   37 1
    39   22   38 1
    40   22   39 1
    41   23   40 1
    42   23   41 1
    43   24   42 1
    44   24   43 1
    45   26   44 1
    46   26   45 1
    47   26   46 1
@<TRIPOS>PROPERTY_DATA
  Total_Score	| 9.0604
  Crash		| -1.5972
  Polar		| 5.2249
  FragIndex	| 1
  FragRMSD	| 0.815

