@<TRIPOS>MOLECULE
BindingDB_50317408
 44 45 0 0 0
SMALL
NO_CHARGES


@<TRIPOS>ATOM
1    C        36.3564   42.8323   93.5121  C     
2    C        35.4925   43.9194   93.2636  C     
3    C        34.1832   43.6499   92.8307  C     
4    N        33.7891   42.3703   92.6520  N     
5    C        34.5884   41.2952   92.8896  C     
6    C        35.9172   41.4904   93.3782  C     
7    S        36.0112   45.5624   93.5179  S     
8    N        34.8262   46.6540   93.9835  N     
9    O        37.1227   45.6494   94.6539  O     
10   O        36.7000   46.1350   92.2029  O     
11   S        33.8870   39.7344   92.5562  S     
12   C        33.1039   40.1007   91.0463  C     
13   C        36.7594   40.4482   93.7690  C     
14   N        38.0595   40.4210   93.5192  N     
15   O        36.2816   39.5752   94.4803  O     
16   C        39.0018   39.4482   93.9669  C     
17   C        39.8129   39.9986   95.1686  C     
18   C        33.8564   40.4165   89.8958  C     
19   C        33.2013   40.6905   88.6798  C     
20   C        31.7950   40.6451   88.6078  C     
21   C        31.0416   40.3389   89.7590  C     
22   C        31.6966   40.0636   90.9722  C     
23   C        38.9538   40.7456   96.2266  C     
24   O        38.3825   39.8195   97.1858  O     
25   C        37.4664   40.4518   98.1022  C     
26   F        29.7380   40.3041   89.7112  F     
27   F        31.1981   40.8780   87.4708  F     
28   H        37.3026   43.0333   93.8427  H     
29   H        33.5162   44.4059   92.6345  H     
30   H        34.5255   47.3252   93.3464  H     
31   H        34.6589   46.7888   94.9314  H     
32   H        38.4207   41.1499   92.9812  H     
33   H        38.5286   38.5022   94.2679  H     
34   H        39.6837   39.2078   93.1522  H     
35   H        40.3543   39.1767   95.6565  H     
36   H        40.5669   40.6953   94.7758  H     
37   H        34.8787   40.4433   89.9286  H     
38   H        33.7501   40.9139   87.8459  H     
39   H        31.1448   39.8344   91.8031  H     
40   H        39.6112   41.4613   96.7543  H     
41   H        38.1726   41.3040   95.6717  H     
42   H        37.9043   41.3421   98.5732  H     
43   H        37.2265   39.7347   98.8858  H     
44   H        36.5340   40.7310   97.5984  H     
@<TRIPOS>BOND
     1    1    2 2
     2    1    6 1
     3    2    3 1
     4    2    7 1
     5    3    4 2
     6    4    5 1
     7    5    6 2
     8    5   11 1
     9    6   13 1
    10    7    8 am
    11    7    9 2
    12    7   10 2
    13   11   12 1
    14   12   18 2
    15   12   22 1
    16   13   14 am
    17   13   15 2
    18   14   16 1
    19   16   17 1
    20   17   23 1
    21   18   19 1
    22   19   20 2
    23   20   21 1
    24   20   27 1
    25   21   22 2
    26   21   26 1
    27   23   24 1
    28   24   25 1
    29    1   28 1
    30    3   29 1
    31    8   30 1
    32    8   31 1
    33   14   32 1
    34   16   33 1
    35   16   34 1
    36   17   35 1
    37   17   36 1
    38   18   37 1
    39   19   38 1
    40   22   39 1
    41   23   40 1
    42   23   41 1
    43   25   42 1
    44   25   43 1
    45   25   44 1
@<TRIPOS>PROPERTY_DATA
  Total_Score	| 9.0458
  Crash		| -1.7063
  Polar		| 6.2751
  FragIndex	| 1
  FragRMSD	| 0.831

