@<TRIPOS>MOLECULE
BindingDB_50317401
 40 41 0 0 0
SMALL
NO_CHARGES


@<TRIPOS>ATOM
1    C        36.2947   42.9754   93.5697  C     
2    C        35.4592   44.0683   93.2648  C     
3    C        34.1694   43.8021   92.7904  C     
4    N        33.7839   42.5213   92.6046  N     
5    C        34.5681   41.4400   92.8644  C     
6    C        35.8799   41.6278   93.3892  C     
7    S        35.9983   45.6917   93.5420  S     
8    N        34.7979   46.7558   94.0351  N     
9    O        37.1294   45.7665   94.6534  O     
10   O        36.6502   46.2995   92.2309  O     
11   S        33.8405   39.8831   92.5227  S     
12   C        33.0832   40.2582   90.9996  C     
13   C        36.7358   40.5808   93.7646  C     
14   N        38.0354   40.6134   93.4731  N     
15   O        36.2813   39.6490   94.4081  O     
16   C        39.0541   39.6621   93.8077  C     
17   C        39.2116   39.2647   95.3164  C     
18   C        31.6744   40.2280   90.8909  C     
19   C        31.0485   40.4745   89.6530  C     
20   C        31.8290   40.7633   88.5136  C     
21   C        33.2319   40.8103   88.6184  C     
22   C        33.8602   40.5599   89.8530  C     
23   C        39.7462   40.4118   96.2280  C     
24   H        37.2233   43.1684   93.9566  H     
25   H        33.5200   44.5511   92.5693  H     
26   H        34.4974   46.7499   94.9602  H     
27   H        34.4214   47.3810   93.3909  H     
28   H        38.3592   41.3535   92.9360  H     
29   H        38.9061   38.7440   93.2104  H     
30   H        40.0208   40.0940   93.4964  H     
31   H        38.2420   38.9129   95.6995  H     
32   H        39.9113   38.4277   95.3923  H     
33   H        31.0948   40.0133   91.7095  H     
34   H        30.0264   40.4519   89.5787  H     
35   H        31.3778   40.9278   87.6126  H     
36   H        33.7954   41.0292   87.7937  H     
37   H        34.8804   40.5968   89.9202  H     
38   H        40.8218   40.5731   96.0497  H     
39   H        39.6178   40.1391   97.2818  H     
40   H        39.2108   41.3466   96.0417  H     
@<TRIPOS>BOND
     1    1    2 2
     2    1    6 1
     3    2    3 1
     4    2    7 1
     5    3    4 2
     6    4    5 1
     7    5    6 2
     8    5   11 1
     9    6   13 1
    10    7    8 am
    11    7    9 2
    12    7   10 2
    13   11   12 1
    14   12   18 2
    15   12   22 1
    16   13   14 am
    17   13   15 2
    18   14   16 1
    19   16   17 1
    20   17   23 1
    21   18   19 1
    22   19   20 2
    23   20   21 1
    24   21   22 2
    25    1   24 1
    26    3   25 1
    27    8   26 1
    28    8   27 1
    29   14   28 1
    30   16   29 1
    31   16   30 1
    32   17   31 1
    33   17   32 1
    34   18   33 1
    35   19   34 1
    36   20   35 1
    37   21   36 1
    38   22   37 1
    39   23   38 1
    40   23   39 1
    41   23   40 1
@<TRIPOS>PROPERTY_DATA
  Total_Score	| 7.5998
  Crash		| -1.3953
  Polar		| 4.9868
  FragIndex	| 1
  FragRMSD	| 0.824

