@<TRIPOS>MOLECULE
BindingDB_5530
 45 48 0 0 0
SMALL
NO_CHARGES


@<TRIPOS>ATOM
1    C        12.6020   -9.0681   11.3376  C     
2    C        10.9023  -10.6974   11.7897  C     
3    N        11.5298  -11.0549   12.9478  N     
4    N        11.4433   -9.7077   11.0132  N     
5    C        13.2460   -9.4432   12.5271  C     
6    C        12.6801  -10.4390   13.3179  C     
7    C        14.4694   -9.6638   14.2764  C     
8    N        14.3520   -8.9780   13.1254  N     
9    N        13.4645  -10.5517   14.3964  N     
10   O        13.1201   -8.0329   10.6113  O     
11   N         9.7762  -11.3761   11.4793  N     
12   C        13.3644   -8.2737    9.2135  C     
13   C        14.4835   -7.3070    8.7233  C     
14   C        13.6813   -5.5711    6.3689  C     
15   C        13.9897   -7.0782    6.1785  C     
16   C        14.9583   -7.6108    7.2643  C     
17   C        14.1260   -5.7937    8.8777  C     
18   C        13.1464   -5.2779    7.7923  C     
19   C         8.9106  -11.2245   10.4317  C     
20   C         7.6712   -9.9282    8.7523  C     
21   C         6.9681  -11.0844    8.3678  C     
22   C         7.2216  -12.3046    9.0147  C     
23   C         8.1752  -12.3670   10.0477  C     
24   C         8.6434   -9.9991    9.7719  C     
25   H        15.2019   -9.5090   14.9680  H     
26   H        13.3228  -11.1382   15.1547  H     
27   H         9.5545  -12.1029   12.0833  H     
28   H        13.7067   -9.3052    9.0467  H     
29   H        12.4407   -8.1223    8.6462  H     
30   H        15.3454   -7.4884    9.3735  H     
31   H        14.5932   -4.9895    6.1971  H     
32   H        12.9367   -5.2560    5.6331  H     
33   H        13.0587   -7.6490    6.2081  H     
34   H        14.4396   -7.2300    5.1929  H     
35   H        15.9382   -7.1512    7.1007  H     
36   H        15.0787   -8.6887    7.1218  H     
37   H        13.7006   -5.5988    9.8640  H     
38   H        15.0486   -5.2071    8.8112  H     
39   H        13.0117   -4.2011    7.9139  H     
40   H        12.1718   -5.7551    7.9197  H     
41   H         7.4691   -9.0366    8.2961  H     
42   H         6.2754  -11.0358    7.6164  H     
43   H         6.7096  -13.1471    8.7368  H     
44   H         8.3294  -13.2607   10.5201  H     
45   H         9.1112   -9.1398   10.0512  H     
@<TRIPOS>BOND
     1    1    4 1
     2    1    5 2
     3    1   10 1
     4    2    3 1
     5    2    4 2
     6    2   11 1
     7    3    6 2
     8    5    6 1
     9    5    8 1
    10    6    9 1
    11    7    8 2
    12    7    9 1
    13   10   12 1
    14   11   19 1
    15   12   13 1
    16   13   16 1
    17   13   17 1
    18   14   15 1
    19   14   18 1
    20   15   16 1
    21   17   18 1
    22   19   23 1
    23   19   24 2
    24   20   21 2
    25   20   24 1
    26   21   22 1
    27   22   23 2
    28    7   25 1
    29    9   26 1
    30   11   27 1
    31   12   28 1
    32   12   29 1
    33   13   30 1
    34   14   31 1
    35   14   32 1
    36   15   33 1
    37   15   34 1
    38   16   35 1
    39   16   36 1
    40   17   37 1
    41   17   38 1
    42   18   39 1
    43   18   40 1
    44   20   41 1
    45   21   42 1
    46   22   43 1
    47   23   44 1
    48   24   45 1
@<TRIPOS>PROPERTY_DATA
  Total_Score	| 7.7887
  Crash		| -0.5741
  Polar		| 2.3068
  FragIndex	| 1
  FragRMSD	| 0.915

