@<TRIPOS>MOLECULE
BindingDB_5550
 50 53 0 0 0
SMALL
NO_CHARGES


@<TRIPOS>ATOM
1    C        12.5142   -9.1006   11.2734  C     
2    C        10.7973  -10.7195   11.7140  C     
3    N        11.4034  -11.0737   12.8849  N     
4    N        11.3535   -9.7376   10.9384  N     
5    C        13.1361   -9.4770   12.4779  C     
6    C        12.5552  -10.4707   13.2612  C     
7    C        14.3434   -9.7321   14.2428  C     
8    N        14.2439   -9.0344   13.0939  N     
9    N        13.3255  -10.6059   14.3469  N     
10   O        13.0519   -8.0661   10.5543  O     
11   N         9.6691  -11.3930   11.3999  N     
12   C        13.3210   -8.3096    9.1581  C     
13   C        14.4575   -7.3549    8.6833  C     
14   C        13.7244   -5.5973    6.3104  C     
15   C        14.0124   -7.1077    6.1274  C     
16   C        14.9539   -7.6545    7.2327  C     
17   C        14.1141   -5.8353    8.8306  C     
18   C        13.1675   -5.2993    7.7237  C     
19   C         8.8097  -11.2202   10.3514  C     
20   C         7.5839   -9.8596    8.7252  C     
21   C         6.9152  -11.0023    8.2556  C     
22   C         7.1759  -12.2625    8.8348  C     
23   C         8.1051  -12.3565    9.8960  C     
24   C         8.5319   -9.9709    9.7579  C     
25   N         5.8254  -14.7242    9.4191  N     
26   S         6.4184  -13.7080    8.2212  S     
27   O         5.2043  -13.3511    7.2519  O     
28   O         7.4380  -14.5520    7.3331  O     
29   H        15.0835   -9.6111   14.9380  H     
30   H        13.1743  -11.2026   15.0970  H     
31   H         9.4410  -12.1162   12.0030  H     
32   H        13.6462   -9.3442    9.0068  H     
33   H        12.4143   -8.1519    8.5741  H     
34   H        15.3066   -7.5564    9.3470  H     
35   H        14.6486   -5.0305    6.1502  H     
36   H        12.9978   -5.2701    5.5587  H     
37   H        13.0707   -7.6633    6.1409  H     
38   H        14.4771   -7.2698    5.1508  H     
39   H        15.9383   -7.1961    7.0970  H     
40   H        15.0773   -8.7317    7.0908  H     
41   H        13.6682   -5.6387    9.8082  H     
42   H        15.0465   -5.2610    8.7871  H     
43   H        13.0530   -4.2192    7.8439  H     
44   H        12.1828   -5.7564    7.8335  H     
45   H         7.3856   -8.9476    8.3127  H     
46   H         6.2524  -10.9066    7.4859  H     
47   H         8.2833  -13.2664   10.3254  H     
48   H         8.9818   -9.1182   10.0951  H     
49   H         4.8662  -14.8415    9.5228  H     
50   H         6.4256  -15.0573   10.1077  H     
@<TRIPOS>BOND
     1    1    4 1
     2    1    5 2
     3    1   10 1
     4    2    3 1
     5    2    4 2
     6    2   11 1
     7    3    6 2
     8    5    6 1
     9    5    8 1
    10    6    9 1
    11    7    8 2
    12    7    9 1
    13   10   12 1
    14   11   19 1
    15   12   13 1
    16   13   16 1
    17   13   17 1
    18   14   15 1
    19   14   18 1
    20   15   16 1
    21   17   18 1
    22   19   23 1
    23   19   24 2
    24   20   21 2
    25   20   24 1
    26   21   22 1
    27   22   23 2
    28   22   26 1
    29   25   26 am
    30   26   27 2
    31   26   28 2
    32    7   29 1
    33    9   30 1
    34   11   31 1
    35   12   32 1
    36   12   33 1
    37   13   34 1
    38   14   35 1
    39   14   36 1
    40   15   37 1
    41   15   38 1
    42   16   39 1
    43   16   40 1
    44   17   41 1
    45   17   42 1
    46   18   43 1
    47   18   44 1
    48   20   45 1
    49   21   46 1
    50   23   47 1
    51   24   48 1
    52   25   49 1
    53   25   50 1
@<TRIPOS>PROPERTY_DATA
  Total_Score	| 8.7990
  Crash		| -0.8310
  Polar		| 3.6770
  FragIndex	| 1
  FragRMSD	| 0.925

