@<TRIPOS>MOLECULE
BindingDB_5548
 50 53 0 0 0
SMALL
NO_CHARGES


@<TRIPOS>ATOM
1    C        12.7585   -9.3276   11.2367  C     
2    C        10.9549  -10.8227   11.7744  C     
3    N        11.4894  -11.0649   13.0074  N     
4    N        11.6062   -9.9795   10.9148  N     
5    C        13.2858   -9.5566   12.5189  C     
6    C        12.6275  -10.4365   13.3775  C     
7    C        14.4005   -9.6462   14.3490  C     
8    N        14.3805   -9.0767   13.1308  N     
9    N        13.3519  -10.4796   14.5036  N     
10   O        13.4744   -8.5506   10.3657  O     
11   N         9.8002  -11.4450   11.4557  N     
12   C        12.8272   -7.3676    9.8521  C     
13   C        13.7902   -6.6284    8.8686  C     
14   C        14.6270   -5.7477    6.1060  C     
15   C        15.3601   -6.9067    6.8308  C     
16   C        14.4180   -7.6196    7.8389  C     
17   C        13.0897   -5.4365    8.1417  C     
18   C        14.0290   -4.7409    7.1177  C     
19   C         8.9576  -11.1957   10.4114  C     
20   C         7.0120  -11.9314    9.1055  C     
21   C         7.0113  -10.7230    8.3772  C     
22   C         7.9667   -9.7409    8.7038  C     
23   C         8.9263   -9.9719    9.7031  C     
24   C         7.9729  -12.1613   10.1076  C     
25   C         7.1083  -10.5495    5.7472  C     
26   S         5.9084  -10.3216    7.0814  S     
27   O         5.1907  -11.7198    6.8219  O     
28   H        15.1175   -9.4720   15.0635  H     
29   H        13.1580  -11.0084   15.2949  H     
30   H         9.4948  -12.1301   12.0658  H     
31   H        11.8952   -7.6346    9.3279  H     
32   H        12.5830   -6.7046   10.6852  H     
33   H        14.6073   -6.2020    9.4630  H     
34   H        15.3201   -5.2241    5.4478  H     
35   H        13.8248   -6.1563    5.4858  H     
36   H        15.7054   -7.6312    6.0901  H     
37   H        16.2381   -6.5192    7.3574  H     
38   H        14.9841   -8.3908    8.3708  H     
39   H        13.6278   -8.1219    7.2731  H     
40   H        12.1858   -5.7842    7.6335  H     
41   H        12.7927   -4.6965    8.8890  H     
42   H        14.8395   -4.2447    7.6566  H     
43   H        13.4707   -3.9730    6.5783  H     
44   H         6.3249  -12.6577    8.9180  H     
45   H         7.9755   -8.8418    8.2174  H     
46   H         9.5752   -9.2141    9.9384  H     
47   H         7.9488  -13.0476   10.6284  H     
48   H         7.9040   -9.8049    5.8329  H     
49   H         6.6037  -10.4128    4.7893  H     
50   H         7.5507  -11.5488    5.7769  H     
@<TRIPOS>BOND
     1    1    4 1
     2    1    5 2
     3    1   10 1
     4    2    3 1
     5    2    4 2
     6    2   11 1
     7    3    6 2
     8    5    6 1
     9    5    8 1
    10    6    9 1
    11    7    8 2
    12    7    9 1
    13   10   12 1
    14   11   19 1
    15   12   13 1
    16   13   16 1
    17   13   17 1
    18   14   15 1
    19   14   18 1
    20   15   16 1
    21   17   18 1
    22   19   23 1
    23   19   24 2
    24   20   21 2
    25   20   24 1
    26   21   22 1
    27   21   26 1
    28   22   23 2
    29   25   26 1
    30   26   27 2
    31    7   28 1
    32    9   29 1
    33   11   30 1
    34   12   31 1
    35   12   32 1
    36   13   33 1
    37   14   34 1
    38   14   35 1
    39   15   36 1
    40   15   37 1
    41   16   38 1
    42   16   39 1
    43   17   40 1
    44   17   41 1
    45   18   42 1
    46   18   43 1
    47   20   44 1
    48   22   45 1
    49   23   46 1
    50   24   47 1
    51   25   48 1
    52   25   49 1
    53   25   50 1
@<TRIPOS>PROPERTY_DATA
  Total_Score	| 9.5359
  Crash		| -0.9145
  Polar		| 3.4805
  FragIndex	| 1
  FragRMSD	| 0.720

