@<TRIPOS>MOLECULE
BindingDB_5542
 49 52 0 0 0
SMALL
NO_CHARGES


@<TRIPOS>ATOM
1    C        12.6933   -9.3302   11.1875  C     
2    C        10.8640  -10.7330   11.7936  C     
3    N        11.4387  -10.9937   13.0024  N     
4    N        11.5003   -9.9224   10.8943  N     
5    C        13.2799   -9.5800   12.4374  C     
6    C        12.6201  -10.4118   13.3312  C     
7    C        14.4840   -9.7273   14.2010  C     
8    N        14.4358   -9.1677   12.9777  N     
9    N        13.3918  -10.4856   14.4176  N     
10   O        13.3969   -8.6613   10.2349  O     
11   N         9.7120  -11.3852   11.5200  N     
12   C        12.8440   -7.3780    9.8818  C     
13   C        13.8156   -6.6751    8.8923  C     
14   C        14.5558   -5.6872    6.1452  C     
15   C        15.2795   -6.9013    6.7792  C     
16   C        14.3583   -7.6347    7.7895  C     
17   C        13.1338   -5.4208    8.2573  C     
18   C        14.0541   -4.7087    7.2336  C     
19   C         8.8609  -11.2359   10.4576  C     
20   C         7.6358   -9.9506    8.7606  C     
21   C         6.9030  -11.0990    8.3917  C     
22   C         7.1171  -12.3035    9.0861  C     
23   C         8.0879  -12.3700   10.1058  C     
24   C         8.6192  -10.0265    9.7689  C     
25   O         5.9659  -10.9832    7.3973  O     
26   C         6.1870  -11.8928    6.2974  C     
27   H        15.2447   -9.5966   14.8669  H     
28   H        13.2064  -10.9992   15.2166  H     
29   H         9.4502  -12.0739   12.1545  H     
30   H        11.8542   -7.5038    9.4224  H     
31   H        12.7369   -6.7386   10.7694  H     
32   H        14.6769   -6.3306    9.4769  H     
33   H        15.2367   -5.1606    5.4791  H     
34   H        13.7086   -6.0411    5.5547  H     
35   H        15.5807   -7.5999    5.9939  H     
36   H        16.1858   -6.5586    7.2898  H     
37   H        14.9349   -8.4422    8.2525  H     
38   H        13.5161   -8.0855    7.2555  H     
39   H        12.2088   -5.7232    7.7575  H     
40   H        12.8688   -4.7114    9.0489  H     
41   H        14.9120   -4.2747    7.7577  H     
42   H        13.5007   -3.8924    6.7625  H     
43   H         7.4544   -9.0582    8.3007  H     
44   H         6.5733  -13.1364    8.8380  H     
45   H         8.2156  -13.2753   10.5750  H     
46   H         9.1276   -9.1885   10.0428  H     
47   H         7.2087  -11.8087    5.9053  H     
48   H         5.4928  -11.6362    5.4946  H     
49   H         5.9940  -12.9338    6.5891  H     
@<TRIPOS>BOND
     1    1    4 1
     2    1    5 2
     3    1   10 1
     4    2    3 1
     5    2    4 2
     6    2   11 1
     7    3    6 2
     8    5    6 1
     9    5    8 1
    10    6    9 1
    11    7    8 2
    12    7    9 1
    13   10   12 1
    14   11   19 1
    15   12   13 1
    16   13   16 1
    17   13   17 1
    18   14   15 1
    19   14   18 1
    20   15   16 1
    21   17   18 1
    22   19   23 1
    23   19   24 2
    24   20   21 2
    25   20   24 1
    26   21   22 1
    27   21   25 1
    28   22   23 2
    29   25   26 1
    30    7   27 1
    31    9   28 1
    32   11   29 1
    33   12   30 1
    34   12   31 1
    35   13   32 1
    36   14   33 1
    37   14   34 1
    38   15   35 1
    39   15   36 1
    40   16   37 1
    41   16   38 1
    42   17   39 1
    43   17   40 1
    44   18   41 1
    45   18   42 1
    46   20   43 1
    47   22   44 1
    48   23   45 1
    49   24   46 1
    50   26   47 1
    51   26   48 1
    52   26   49 1
@<TRIPOS>PROPERTY_DATA
  Total_Score	| 8.0547
  Crash		| -0.7885
  Polar		| 2.5672
  FragIndex	| 1
  FragRMSD	| 0.624

