@<TRIPOS>MOLECULE
BindingDB_5541
 46 49 0 0 0
SMALL
NO_CHARGES


@<TRIPOS>ATOM
1    C        12.6578   -9.0582   11.3411  C     
2    C        10.9136  -10.6700   11.7517  C     
3    N        11.5179  -11.0367   12.9229  N     
4    N        11.4906   -9.6922   10.9857  N     
5    C        13.2691   -9.4456   12.5501  C     
6    C        12.6639  -10.4338   13.3229  C     
7    C        14.4086   -9.6916   14.3680  C     
8    N        14.3437   -8.9907   13.2171  N     
9    N        13.3898  -10.5559   14.4399  N     
10   O        13.2060   -7.9866   10.6597  O     
11   N         9.7597  -11.3007   11.4378  N     
12   C        12.8260   -7.7851    9.2696  C     
13   C        13.4128   -6.4310    8.7705  C     
14   C        14.5215   -6.5989    5.9370  C     
15   C        15.3079   -7.1825    7.1327  C     
16   C        14.9469   -6.5013    8.4846  C     
17   C        12.6651   -5.8599    7.5261  C     
18   C        12.9945   -6.6046    6.2065  C     
19   C         8.9215  -11.1400   10.3705  C     
20   C         7.7197   -9.8481    8.6697  C     
21   C         6.9797  -10.9928    8.3069  C     
22   C         7.2048  -12.2024    8.9897  C     
23   C         8.1443  -12.2636   10.0290  C     
24   C         8.6859   -9.9180    9.6956  C     
25   O         6.0521  -10.9106    7.3235  O     
26   H        15.0898   -9.5430   15.0959  H     
27   H        13.1913  -11.1421   15.1900  H     
28   H         9.5093  -11.9992   12.0640  H     
29   H        13.1877   -8.6166    8.6561  H     
30   H        11.7290   -7.7485    9.1951  H     
31   H        13.2611   -5.7106    9.5874  H     
32   H        14.8530   -5.5753    5.7434  H     
33   H        14.7278   -7.1916    5.0377  H     
34   H        15.1144   -8.2546    7.1897  H     
35   H        16.3740   -7.0504    6.9527  H     
36   H        15.3356   -5.4801    8.4750  H     
37   H        15.4554   -7.0324    9.2938  H     
38   H        11.5840   -5.8809    7.6870  H     
39   H        12.9456   -4.8048    7.4139  H     
40   H        12.4809   -6.1131    5.3782  H     
41   H        12.6384   -7.6335    6.2578  H     
42   H         7.5533   -8.9507    8.2085  H     
43   H         6.6576  -13.0217    8.7379  H     
44   H         8.2733  -13.1574   10.5101  H     
45   H         9.2031   -9.0703    9.9582  H     
46   H         6.2659  -11.6656    6.7133  H     
@<TRIPOS>BOND
     1    1    4 1
     2    1    5 2
     3    1   10 1
     4    2    3 1
     5    2    4 2
     6    2   11 1
     7    3    6 2
     8    5    6 1
     9    5    8 1
    10    6    9 1
    11    7    8 2
    12    7    9 1
    13   10   12 1
    14   11   19 1
    15   12   13 1
    16   13   16 1
    17   13   17 1
    18   14   15 1
    19   14   18 1
    20   15   16 1
    21   17   18 1
    22   19   23 1
    23   19   24 2
    24   20   21 2
    25   20   24 1
    26   21   22 1
    27   21   25 1
    28   22   23 2
    29    7   26 1
    30    9   27 1
    31   11   28 1
    32   12   29 1
    33   12   30 1
    34   13   31 1
    35   14   32 1
    36   14   33 1
    37   15   34 1
    38   15   35 1
    39   16   36 1
    40   16   37 1
    41   17   38 1
    42   17   39 1
    43   18   40 1
    44   18   41 1
    45   20   42 1
    46   22   43 1
    47   23   44 1
    48   24   45 1
    49   25   46 1
@<TRIPOS>PROPERTY_DATA
  Total_Score	| 7.6188
  Crash		| -0.7375
  Polar		| 2.4481
  FragIndex	| 1
  FragRMSD	| 0.628

