@<TRIPOS>MOLECULE
BindingDB_5549
 54 57 0 0 0
SMALL
NO_CHARGES


@<TRIPOS>ATOM
1    C        12.8716   -9.3494   11.2576  C     
2    C        11.0491  -10.8053   11.8710  C     
3    N        11.6065  -11.0259   13.0944  N     
4    N        11.6835   -9.9691   10.9870  N     
5    C        13.4477   -9.6057   12.5066  C     
6    C        12.7904  -10.4362   13.4132  C     
7    C        14.6145   -9.6915   14.3148  C     
8    N        14.5664   -9.1458   13.0811  N     
9    N        13.5261  -10.4608   14.5266  N     
10   O        13.5274   -8.4644   10.4382  O     
11   N         9.8758  -11.4268   11.5915  N     
12   C        12.8871   -7.9475    9.2549  C     
13   C        13.3393   -6.4708    9.0491  C     
14   C        14.8152   -5.8301    6.4670  C     
15   C        15.5069   -6.6217    7.6049  C     
16   C        14.8927   -6.2943    8.9918  C     
17   C        12.6497   -5.7640    7.8348  C     
18   C        13.2910   -6.0972    6.4628  C     
19   C         9.0541  -11.2711   10.5187  C     
20   C         8.0506   -9.9046    8.7504  C     
21   C         7.1717  -10.9606    8.4129  C     
22   C         7.2456  -12.1879    9.1149  C     
23   C         8.1637  -12.3244   10.1829  C     
24   C         8.9916  -10.0715    9.7845  C     
25   C         6.6050  -14.5540    9.1416  C     
26   O         6.4054  -13.2011    8.6932  O     
27   N         6.7652  -10.0300    5.7565  N     
28   S         6.0269  -10.6779    7.1286  S     
29   O         5.1386  -11.9242    6.7082  O     
30   O         5.0013   -9.5688    7.6386  O     
31   H        15.3544   -9.5225   14.9988  H     
32   H        13.3285  -10.9540   15.3386  H     
33   H         9.5792  -12.0779   12.2488  H     
34   H        13.1596   -8.5604    8.3908  H     
35   H        11.8047   -7.9706    9.3740  H     
36   H        12.9925   -5.9354    9.9403  H     
37   H        14.9979   -4.7607    6.5953  H     
38   H        15.2357   -6.1334    5.5069  H     
39   H        15.4153   -7.6869    7.4034  H     
40   H        16.5717   -6.3727    7.6168  H     
41   H        15.1359   -5.2522    9.2389  H     
42   H        15.3718   -6.9216    9.7440  H     
43   H        11.5905   -6.0253    7.7984  H     
44   H        12.7147   -4.6872    7.9835  H     
45   H        12.8163   -5.4849    5.6869  H     
46   H        13.1038   -7.1483    6.2187  H     
47   H         8.0139   -9.0117    8.2568  H     
48   H         8.1932  -13.2045   10.7230  H     
49   H         9.5916   -9.2787   10.0290  H     
50   H         7.6422  -14.8698    9.0088  H     
51   H         5.9652  -15.2238    8.5426  H     
52   H         6.3099  -14.6585   10.1871  H     
53   H         6.5132   -9.1439    5.4376  H     
54   H         7.5136  -10.5036    5.3458  H     
@<TRIPOS>BOND
     1    1    4 1
     2    1    5 2
     3    1   10 1
     4    2    3 1
     5    2    4 2
     6    2   11 1
     7    3    6 2
     8    5    6 1
     9    5    8 1
    10    6    9 1
    11    7    8 2
    12    7    9 1
    13   10   12 1
    14   11   19 1
    15   12   13 1
    16   13   16 1
    17   13   17 1
    18   14   15 1
    19   14   18 1
    20   15   16 1
    21   17   18 1
    22   19   23 1
    23   19   24 2
    24   20   21 2
    25   20   24 1
    26   21   22 1
    27   21   28 1
    28   22   23 2
    29   22   26 1
    30   25   26 1
    31   27   28 am
    32   28   29 2
    33   28   30 2
    34    7   31 1
    35    9   32 1
    36   11   33 1
    37   12   34 1
    38   12   35 1
    39   13   36 1
    40   14   37 1
    41   14   38 1
    42   15   39 1
    43   15   40 1
    44   16   41 1
    45   16   42 1
    46   17   43 1
    47   17   44 1
    48   18   45 1
    49   18   46 1
    50   20   47 1
    51   23   48 1
    52   24   49 1
    53   25   50 1
    54   25   51 1
    55   25   52 1
    56   27   53 1
    57   27   54 1
@<TRIPOS>PROPERTY_DATA
  Total_Score	| 10.2007
  Crash		| -0.9270
  Polar		| 4.1877
  FragIndex	| 1
  FragRMSD	| 0.416

