@<TRIPOS>MOLECULE
BindingDB_5537
 49 52 0 0 0
SMALL
NO_CHARGES


@<TRIPOS>ATOM
1    C        12.5320   -9.3492   11.1353  C     
2    C        10.7551  -10.8049   11.8007  C     
3    N        11.3650  -11.0275   13.0019  N     
4    N        11.3514   -9.9838   10.8854  N     
5    C        13.1634   -9.5776   12.3722  C     
6    C        12.5463  -10.4238   13.2891  C     
7    C        14.4180   -9.7210   14.1218  C     
8    N        14.3238   -9.1496   12.9043  N     
9    N        13.3475  -10.4987   14.3587  N     
10   O        13.1296   -8.6200   10.1469  O     
11   N         9.6261  -11.4977   11.5419  N     
12   C        12.5631   -7.3071    9.9370  C     
13   C        13.3321   -6.4720    8.8540  C     
14   C        14.8588   -6.0816    6.2780  C     
15   C        15.5879   -6.0699    7.6470  C     
16   C        14.8265   -6.9036    8.7051  C     
17   C        12.6221   -6.4694    7.4627  C     
18   C        13.3880   -5.6163    6.4169  C     
19   C         8.9097  -11.5481   10.3825  C     
20   C         7.8806  -12.9432    8.6585  C     
21   C         7.2748  -11.8194    8.0968  C     
22   C         7.4632  -10.5274    8.6666  C     
23   C         8.3071  -10.4106    9.7967  C     
24   C         8.6709  -12.8132    9.8137  C     
25   O         6.8820   -9.3543    8.2420  O     
26   C         5.9090   -9.3324    7.1788  C     
27   H        15.1952   -9.5834   14.7739  H     
28   H        13.1992  -11.0284   15.1597  H     
29   H         9.3701  -12.1495   12.2139  H     
30   H        11.5119   -7.4126    9.6467  H     
31   H        12.5929   -6.7515   10.8821  H     
32   H        13.3364   -5.4276    9.1918  H     
33   H        15.3760   -5.4166    5.5867  H     
34   H        14.8856   -7.0913    5.8540  H     
35   H        16.5925   -6.4817    7.5291  H     
36   H        15.6834   -5.0408    8.0013  H     
37   H        15.3313   -6.8010    9.6706  H     
38   H        14.8754   -7.9552    8.4074  H     
39   H        12.5281   -7.4964    7.0967  H     
40   H        11.6145   -6.0536    7.5654  H     
41   H        13.3674   -4.5661    6.7204  H     
42   H        12.8874   -5.6908    5.4479  H     
43   H         7.7482  -13.8708    8.2434  H     
44   H         6.6783  -11.9492    7.2804  H     
45   H         8.4478   -9.4920   10.2229  H     
46   H         9.0967  -13.6503   10.2240  H     
47   H         6.3715   -9.6441    6.2381  H     
48   H         5.5390   -8.3209    7.0722  H     
49   H         5.0610   -9.9842    7.4090  H     
@<TRIPOS>BOND
     1    1    4 1
     2    1    5 2
     3    1   10 1
     4    2    3 1
     5    2    4 2
     6    2   11 1
     7    3    6 2
     8    5    6 1
     9    5    8 1
    10    6    9 1
    11    7    8 2
    12    7    9 1
    13   10   12 1
    14   11   19 1
    15   12   13 1
    16   13   16 1
    17   13   17 1
    18   14   15 1
    19   14   18 1
    20   15   16 1
    21   17   18 1
    22   19   23 1
    23   19   24 2
    24   20   21 2
    25   20   24 1
    26   21   22 1
    27   22   23 2
    28   22   25 1
    29   25   26 1
    30    7   27 1
    31    9   28 1
    32   11   29 1
    33   12   30 1
    34   12   31 1
    35   13   32 1
    36   14   33 1
    37   14   34 1
    38   15   35 1
    39   15   36 1
    40   16   37 1
    41   16   38 1
    42   17   39 1
    43   17   40 1
    44   18   41 1
    45   18   42 1
    46   20   43 1
    47   21   44 1
    48   23   45 1
    49   24   46 1
    50   26   47 1
    51   26   48 1
    52   26   49 1
@<TRIPOS>PROPERTY_DATA
  Total_Score	| 8.1166
  Crash		| -1.2062
  Polar		| 2.5278
  FragIndex	| 1
  FragRMSD	| 0.577

