@<TRIPOS>MOLECULE
BindingDB_5533
 45 48 0 0 0
SMALL
NO_CHARGES


@<TRIPOS>ATOM
1    C        12.7171   -9.2751   11.3178  C     
2    C        10.9513  -10.8192   11.8297  C     
3    N        11.5224  -11.1035   13.0328  N     
4    N        11.5524   -9.9072   11.0011  N     
5    C        13.2940   -9.5534   12.5650  C     
6    C        12.6733  -10.4860   13.3930  C     
7    C        14.4457   -9.7033   14.3669  C     
8    N        14.3836   -9.0704   13.1794  N     
9    N        13.4166  -10.5563   14.5056  N     
10   O        13.2499   -8.2878   10.5447  O     
11   N         9.8021  -11.4685   11.5340  N     
12   C        13.7454   -8.6126    9.2306  C     
13   C        12.9556   -7.8743    8.1007  C     
14   C        14.4975   -5.4294    7.1324  C     
15   C        13.7605   -5.4435    8.4954  C     
16   C        12.5468   -6.4114    8.4546  C     
17   C        13.7116   -7.8710    6.7317  C     
18   C        14.8924   -6.8569    6.6673  C     
19   C         8.9924  -11.3308   10.4424  C     
20   C         7.9477  -10.0884    8.5994  C     
21   C         7.2516  -11.2439    8.1987  C     
22   C         7.4000  -12.4399    8.9319  C     
23   C         8.2635  -12.4764   10.0462  C     
24   C         8.8111  -10.1334    9.7100  C     
25   Br        6.4871  -13.9759    8.4162  Br    
26   H        15.1712   -9.5410   15.0717  H     
27   H        13.2506  -11.1257   15.2802  H     
28   H         9.5278  -12.1519   12.1692  H     
29   H        14.7927   -8.2943    9.2068  H     
30   H        13.7267   -9.6918    9.0308  H     
31   H        12.0259   -8.4409    7.9559  H     
32   H        13.8480   -4.9717    6.3835  H     
33   H        15.3993   -4.8168    7.2166  H     
34   H        14.4497   -5.7365    9.2910  H     
35   H        13.4074   -4.4329    8.7262  H     
36   H        11.8428   -6.0485    7.6986  H     
37   H        12.0244   -6.3860    9.4173  H     
38   H        14.0920   -8.8752    6.5129  H     
39   H        13.0000   -7.6281    5.9369  H     
40   H        15.2630   -6.8056    5.6397  H     
41   H        15.7124   -7.2157    7.2936  H     
42   H         7.8328   -9.2153    8.0745  H     
43   H         6.6204  -11.2057    7.3942  H     
44   H         8.3574  -13.3559   10.5620  H     
45   H         9.2830   -9.2683    9.9934  H     
@<TRIPOS>BOND
     1    1    4 1
     2    1    5 2
     3    1   10 1
     4    2    3 1
     5    2    4 2
     6    2   11 1
     7    3    6 2
     8    5    6 1
     9    5    8 1
    10    6    9 1
    11    7    8 2
    12    7    9 1
    13   10   12 1
    14   11   19 1
    15   12   13 1
    16   13   16 1
    17   13   17 1
    18   14   15 1
    19   14   18 1
    20   15   16 1
    21   17   18 1
    22   19   23 1
    23   19   24 2
    24   20   21 2
    25   20   24 1
    26   21   22 1
    27   22   23 2
    28   22   25 1
    29    7   26 1
    30    9   27 1
    31   11   28 1
    32   12   29 1
    33   12   30 1
    34   13   31 1
    35   14   32 1
    36   14   33 1
    37   15   34 1
    38   15   35 1
    39   16   36 1
    40   16   37 1
    41   17   38 1
    42   17   39 1
    43   18   40 1
    44   18   41 1
    45   20   42 1
    46   21   43 1
    47   23   44 1
    48   24   45 1
@<TRIPOS>PROPERTY_DATA
  Total_Score	| 7.6675
  Crash		| -0.5140
  Polar		| 2.5235
  FragIndex	| 1
  FragRMSD	| 0.890

