@<TRIPOS>MOLECULE
BindingDB_5538
 49 52 0 0 0
SMALL
NO_CHARGES


@<TRIPOS>ATOM
1    C        12.6488   -9.3098   11.2297  C     
2    C        10.8776  -10.8143   11.8303  C     
3    N        11.4497  -11.0458   13.0455  N     
4    N        11.4901   -9.9656   10.9525  N     
5    C        13.2416   -9.5522   12.4802  C     
6    C        12.6123  -10.4241   13.3654  C     
7    C        14.4582   -9.7236   14.2528  C     
8    N        14.3884   -9.1333   13.0402  N     
9    N        13.3831  -10.5018   14.4565  N     
10   O        13.2628   -8.5470   10.2693  O     
11   N         9.7418  -11.4844   11.5329  N     
12   C        12.5633   -7.3396    9.8933  C     
13   C        13.3442   -6.4894    8.8343  C     
14   C        14.8245   -5.9788    6.2375  C     
15   C        15.5851   -6.1163    7.5835  C     
16   C        14.8060   -6.9891    8.6034  C     
17   C        12.6018   -6.3561    7.4628  C     
18   C        13.3802   -5.4607    6.4613  C     
19   C         8.9600  -11.3813   10.4191  C     
20   C         7.6797  -10.1168    8.7601  C     
21   C         7.2709  -11.3177    8.1501  C     
22   C         7.7013  -12.5583    8.6670  C     
23   C         8.5265  -12.5838    9.8114  C     
24   C         8.5151  -10.1492    9.8874  C     
25   C         8.7491  -14.4038    7.0426  C     
26   S         7.2078  -14.0545    7.9226  S     
27   H        15.2288   -9.6036   14.9186  H     
28   H        13.2109  -11.0406   15.2458  H     
29   H         9.4669  -12.1535   12.1752  H     
30   H        11.5709   -7.5874    9.5031  H     
31   H        12.4191   -6.7272   10.7912  H     
32   H        13.4124   -5.4751    9.2402  H     
33   H        15.3554   -5.2882    5.5798  H     
34   H        14.7857   -6.9520    5.7360  H     
35   H        16.5628   -6.5696    7.4018  H     
36   H        15.7529   -5.1219    8.0067  H     
37   H        15.3476   -6.9815    9.5534  H     
38   H        14.7910   -8.0168    8.2309  H     
39   H        12.4560   -7.3467    7.0250  H     
40   H        11.6157   -5.9119    7.6212  H     
41   H        13.4250   -4.4350    6.8402  H     
42   H        12.8499   -5.4351    5.5047  H     
43   H         7.3554   -9.2186    8.3981  H     
44   H         6.6730  -11.2771    7.3269  H     
45   H         8.8167  -13.4850   10.2052  H     
46   H         8.7726   -9.2671   10.3377  H     
47   H         8.8937  -13.6783    6.2403  H     
48   H         8.6912  -15.4037    6.6065  H     
49   H         9.5973  -14.3661    7.7300  H     
@<TRIPOS>BOND
     1    1    4 1
     2    1    5 2
     3    1   10 1
     4    2    3 1
     5    2    4 2
     6    2   11 1
     7    3    6 2
     8    5    6 1
     9    5    8 1
    10    6    9 1
    11    7    8 2
    12    7    9 1
    13   10   12 1
    14   11   19 1
    15   12   13 1
    16   13   16 1
    17   13   17 1
    18   14   15 1
    19   14   18 1
    20   15   16 1
    21   17   18 1
    22   19   23 1
    23   19   24 2
    24   20   21 2
    25   20   24 1
    26   21   22 1
    27   22   23 2
    28   22   26 1
    29   25   26 1
    30    7   27 1
    31    9   28 1
    32   11   29 1
    33   12   30 1
    34   12   31 1
    35   13   32 1
    36   14   33 1
    37   14   34 1
    38   15   35 1
    39   15   36 1
    40   16   37 1
    41   16   38 1
    42   17   39 1
    43   17   40 1
    44   18   41 1
    45   18   42 1
    46   20   43 1
    47   21   44 1
    48   23   45 1
    49   24   46 1
    50   25   47 1
    51   25   48 1
    52   25   49 1
@<TRIPOS>PROPERTY_DATA
  Total_Score	| 7.9710
  Crash		| -1.0552
  Polar		| 2.6158
  FragIndex	| 1
  FragRMSD	| 0.422

