@<TRIPOS>MOLECULE
BindingDB_5544
 50 53 0 0 0
SMALL
NO_CHARGES


@<TRIPOS>ATOM
1    C        12.7329   -9.0987   11.4518  C     
2    C        11.0360  -10.7559   11.8154  C     
3    N        11.5967  -11.1024   13.0145  N     
4    N        11.6179   -9.7699   11.0684  N     
5    C        13.3086   -9.4504   12.6785  C     
6    C        12.7145  -10.4576   13.4364  C     
7    C        14.3990   -9.6152   14.5124  C     
8    N        14.3467   -8.9384   13.3509  N     
9    N        13.4181  -10.5288   14.5759  N     
10   O        13.2598   -8.0577   10.7401  O     
11   N         9.8923  -11.3876   11.4361  N     
12   C        13.3170   -8.2265    9.3165  C     
13   C        13.9887   -6.9753    8.7058  C     
14   C        14.3182   -4.7169    6.7308  C     
15   C        15.1837   -6.0058    6.6564  C     
16   C        14.4492   -7.2425    7.2449  C     
17   C        13.0886   -5.7029    8.7582  C     
18   C        13.8014   -4.4554    8.1727  C     
19   C         9.0784  -11.1995   10.3478  C     
20   C         7.1483  -12.0541    9.0963  C     
21   C         7.1898  -10.9443    8.2322  C     
22   C         8.1801   -9.9637    8.4238  C     
23   C         9.1117  -10.0838    9.4652  C     
24   C         8.0778  -12.1753   10.1401  C     
25   N         6.6420  -10.0512    5.6085  N     
26   S         5.9832  -10.7081    7.0047  S     
27   O         5.1355  -12.0171    6.6840  O     
28   O         5.0255   -9.6005    7.6265  O     
29   H        15.0659   -9.4315   15.2628  H     
30   H        13.2294  -11.1225   15.3218  H     
31   H         9.5938  -12.0869   12.0470  H     
32   H        13.8968   -9.1289    9.0641  H     
33   H        12.2982   -8.3404    8.9119  H     
34   H        14.8953   -6.7779    9.2894  H     
35   H        14.9076   -3.8614    6.3969  H     
36   H        13.4620   -4.8238    6.0664  H     
37   H        15.4485   -6.1999    5.6104  H     
38   H        16.1150   -5.8450    7.2188  H     
39   H        15.1377   -8.0912    7.2077  H     
40   H        13.5912   -7.4792    6.6095  H     
41   H        12.1799   -5.8831    8.1880  H     
42   H        12.8019   -5.4916    9.7919  H     
43   H        14.6419   -4.1854    8.8132  H     
44   H        13.1038   -3.6139    8.1555  H     
45   H         6.4473  -12.7771    8.9692  H     
46   H         8.2259   -9.1399    7.8128  H     
47   H         9.7744   -9.3206    9.5903  H     
48   H         8.0147  -12.9840   10.7630  H     
49   H         6.0807   -9.5383    4.9961  H     
50   H         7.5364  -10.3258    5.3253  H     
@<TRIPOS>BOND
     1    1    4 1
     2    1    5 2
     3    1   10 1
     4    2    3 1
     5    2    4 2
     6    2   11 1
     7    3    6 2
     8    5    6 1
     9    5    8 1
    10    6    9 1
    11    7    8 2
    12    7    9 1
    13   10   12 1
    14   11   19 1
    15   12   13 1
    16   13   16 1
    17   13   17 1
    18   14   15 1
    19   14   18 1
    20   15   16 1
    21   17   18 1
    22   19   23 1
    23   19   24 2
    24   20   21 2
    25   20   24 1
    26   21   22 1
    27   21   26 1
    28   22   23 2
    29   25   26 am
    30   26   27 2
    31   26   28 2
    32    7   29 1
    33    9   30 1
    34   11   31 1
    35   12   32 1
    36   12   33 1
    37   13   34 1
    38   14   35 1
    39   14   36 1
    40   15   37 1
    41   15   38 1
    42   16   39 1
    43   16   40 1
    44   17   41 1
    45   17   42 1
    46   18   43 1
    47   18   44 1
    48   20   45 1
    49   22   46 1
    50   23   47 1
    51   24   48 1
    52   25   49 1
    53   25   50 1
@<TRIPOS>PROPERTY_DATA
  Total_Score	| 10.2426
  Crash		| -0.6468
  Polar		| 4.2968
  FragIndex	| 1
  FragRMSD	| 0.623

