@<TRIPOS>MOLECULE
BindingDB_5547
 51 54 0 0 0
SMALL
NO_CHARGES


@<TRIPOS>ATOM
1    C        12.8487   -9.3713   11.2089  C     
2    C        11.0321  -10.8549   11.7738  C     
3    N        11.5520  -11.0522   13.0160  N     
4    N        11.7035  -10.0503   10.8774  N     
5    C        13.3595   -9.5659   12.5001  C     
6    C        12.6886  -10.4060   13.3867  C     
7    C        14.4584   -9.6209   14.3522  C     
8    N        14.4484   -9.0777   13.1236  N     
9    N        13.3856  -10.4212   14.5181  N     
10   O        13.5268   -8.6355   10.2711  O     
11   N         9.8678  -11.4661   11.4743  N     
12   C        12.8715   -7.4217    9.8177  C     
13   C        13.7740   -6.6523    8.8182  C     
14   C        14.5292   -5.3841    6.1814  C     
15   C        15.2001   -6.6942    6.6841  C     
16   C        14.2461   -7.5113    7.5975  C     
17   C        13.0773   -5.3533    8.2954  C     
18   C        14.0061   -4.5288    7.3637  C     
19   C         9.0390  -11.2506   10.4096  C     
20   C         8.0976   -9.8677    8.6105  C     
21   C         7.1717  -10.8832    8.2834  C     
22   C         7.1897  -12.0909    9.0175  C     
23   C         8.1016  -12.2582   10.0824  C     
24   C         8.9854  -10.0383    9.6790  C     
25   C         6.8290   -9.9953    5.5388  C     
26   O         5.1835  -11.9184    6.6672  O     
27   S         6.0118  -10.6077    7.0255  S     
28   O         5.0107   -9.4851    7.5509  O     
29   H        15.1778   -9.4701   15.0572  H     
30   H        13.1808  -10.9284   15.3053  H     
31   H         9.5211  -12.1041   12.1209  H     
32   H        11.9045   -7.6561    9.3396  H     
33   H        12.6723   -6.7657   10.6881  H     
34   H        14.6756   -6.3504    9.3677  H     
35   H        15.2533   -4.7969    5.6144  H     
36   H        13.7017   -5.6326    5.5195  H     
37   H        15.4971   -7.3060    5.8322  H     
38   H        16.1016   -6.4414    7.2460  H     
39   H        14.7876   -8.3882    7.9521  H     
40   H        13.3777   -7.8609    7.0291  H     
41   H        12.1669   -5.6211    7.7451  H     
42   H        12.7810   -4.7206    9.1442  H     
43   H        14.8537   -4.1555    7.9447  H     
44   H        13.4567   -3.6642    6.9791  H     
45   H         8.1120   -8.9841    8.0999  H     
46   H         6.5321  -12.8518    8.7981  H     
47   H         8.0749  -13.1413   10.6202  H     
48   H         9.5742   -9.2471    9.9353  H     
49   H         7.4053   -9.0951    5.7695  H     
50   H         6.0853   -9.7575    4.7712  H     
51   H         7.5019  -10.7714    5.1635  H     
@<TRIPOS>BOND
     1    1    4 1
     2    1    5 2
     3    1   10 1
     4    2    3 1
     5    2    4 2
     6    2   11 1
     7    3    6 2
     8    5    6 1
     9    5    8 1
    10    6    9 1
    11    7    8 2
    12    7    9 1
    13   10   12 1
    14   11   19 1
    15   12   13 1
    16   13   16 1
    17   13   17 1
    18   14   15 1
    19   14   18 1
    20   15   16 1
    21   17   18 1
    22   19   23 1
    23   19   24 2
    24   20   21 2
    25   20   24 1
    26   21   22 1
    27   21   27 1
    28   22   23 2
    29   25   27 1
    30   26   27 2
    31   27   28 2
    32    7   29 1
    33    9   30 1
    34   11   31 1
    35   12   32 1
    36   12   33 1
    37   13   34 1
    38   14   35 1
    39   14   36 1
    40   15   37 1
    41   15   38 1
    42   16   39 1
    43   16   40 1
    44   17   41 1
    45   17   42 1
    46   18   43 1
    47   18   44 1
    48   20   45 1
    49   22   46 1
    50   23   47 1
    51   24   48 1
    52   25   49 1
    53   25   50 1
    54   25   51 1
@<TRIPOS>PROPERTY_DATA
  Total_Score	| 10.6048
  Crash		| -0.6584
  Polar		| 4.3039
  FragIndex	| 1
  FragRMSD	| 0.586

