@<TRIPOS>MOLECULE
BindingDB_24480
 43 47 0 0 0
SMALL
NO_CHARGES


@<TRIPOS>ATOM
1    C        18.0682   13.1086   57.6723  C     
2    C        18.0654   14.3448   58.3105  C     
3    C        20.9555   13.6679   55.6661  C     
4    C        19.9655   14.9553   57.0800  C     
5    N        19.9165   13.7401   56.5048  N     
6    N        21.6200   14.8385   55.7407  N     
7    N        21.0207   15.6247   56.5921  N     
8    C        21.3191   12.5177   54.8170  C     
9    C        18.9990   15.2785   58.0184  C     
10   N        19.0003   12.8809   56.7964  N     
11   O        21.4363   11.2698   55.5324  O     
12   C        22.3992   11.0372   56.4965  C     
13   C        23.5778   11.8114   56.6217  C     
14   C        24.5228   11.4969   57.6114  C     
15   C        23.2139    9.6522   58.3450  C     
16   C        21.9273    7.7266   59.1668  C     
17   C        20.9388    8.0109   58.2043  C     
18   C        21.0723    9.0989   57.3223  C     
19   C        22.2116    9.9365   57.3748  C     
20   C        23.0718    8.5598   59.2233  C     
21   N        24.3169   10.4381   58.4311  N     
22   O        21.7023    6.6028   59.9335  O     
23   C        22.3149    6.4514   61.2255  C     
24   C        17.1415   12.0990   57.9118  C     
25   C        15.7113    9.9434   57.8826  C     
26   C        15.3297   10.8743   58.8450  C     
27   C        16.1064   12.0458   58.8609  C     
28   S        17.0536   10.6098   57.0461  S     
29   H        17.3813   14.5621   58.9934  H     
30   H        20.5288   12.3900   54.0750  H     
31   H        22.2402   12.7238   54.2733  H     
32   H        19.0043   16.1661   58.4665  H     
33   H        23.7610   12.5969   55.9974  H     
34   H        25.3633   12.0653   57.7202  H     
35   H        20.1110    7.4129   58.1320  H     
36   H        20.3250    9.2726   56.6428  H     
37   H        23.8168    8.3665   59.8960  H     
38   H        23.4017    6.3873   61.1378  H     
39   H        21.9539    5.5254   61.6714  H     
40   H        22.0410    7.2792   61.8834  H     
41   H        15.2830    9.0331   57.7089  H     
42   H        14.5511   10.7152   59.4881  H     
43   H        15.9206   12.7921   59.5325  H     
@<TRIPOS>BOND
     1    1    2 1
     2    1   10 2
     3    1   24 1
     4    2    9 2
     5    3    5 1
     6    3    6 2
     7    3    8 1
     8    4    5 1
     9    4    7 2
    10    4    9 1
    11    5   10 1
    12    6    7 1
    13    8   11 1
    14   11   12 1
    15   12   13 2
    16   12   19 1
    17   13   14 1
    18   14   21 2
    19   15   19 2
    20   15   20 1
    21   15   21 1
    22   16   17 1
    23   16   20 2
    24   16   22 1
    25   17   18 2
    26   18   19 1
    27   22   23 1
    28   24   27 2
    29   24   28 1
    30   25   26 2
    31   25   28 1
    32   26   27 1
    33    2   29 1
    34    8   30 1
    35    8   31 1
    36    9   32 1
    37   13   33 1
    38   14   34 1
    39   17   35 1
    40   18   36 1
    41   20   37 1
    42   23   38 1
    43   23   39 1
    44   23   40 1
    45   25   41 1
    46   26   42 1
    47   27   43 1
@<TRIPOS>PROPERTY_DATA
  Total_Score	| 9.5153
  Crash		| -0.5910
  Polar		| 2.2957
  FragIndex	| 1
  FragRMSD	| 0.614

