@<TRIPOS>MOLECULE
BindingDB_24470
 46 50 0 0 0
SMALL
NO_CHARGES


@<TRIPOS>ATOM
1    C        15.1902   11.5842   59.4492  C     
2    C        15.0452   10.4662   58.6122  C     
3    C        15.8899   10.3148   57.5029  C     
4    C        16.8697   11.2859   57.2279  C     
5    C        16.1703   12.5546   59.1693  C     
6    C        17.0335   12.4445   58.0434  C     
7    C        18.0207   13.4113   57.7497  C     
8    C        18.1048   14.6846   58.3218  C     
9    C        20.9258   13.7174   55.6953  C     
10   C        20.0682   15.0986   57.1105  C     
11   N        19.9189   13.8793   56.5665  N     
12   N        21.6730   14.8391   55.7320  N     
13   N        21.1564   15.6772   56.5828  N     
14   C        21.1576   12.5313   54.8447  C     
15   C        19.1264   15.5212   58.0378  C     
16   N        18.9492   13.0991   56.8885  N     
17   O        21.2950   11.3209   55.6097  O     
18   C        22.2962   11.0751   56.5304  C     
19   C        23.4451   11.8952   56.6999  C     
20   C        24.4105   11.5618   57.6793  C     
21   C        23.1696    9.6357   58.3072  C     
22   C        21.9550    7.6685   59.1039  C     
23   C        20.9421    7.9563   58.1658  C     
24   C        21.0361    9.0452   57.2903  C     
25   C        22.1529    9.9385   57.3491  C     
26   C        23.0912    8.5076   59.1621  C     
27   N        24.2485   10.4580   58.4287  N     
28   O        21.8132    6.5129   59.8443  O     
29   C        22.3174    6.4768   61.1977  C     
30   H        14.5841   11.6920   60.2670  H     
31   H        14.3300    9.7631   58.8154  H     
32   H        15.7932    9.4973   56.8942  H     
33   H        17.4566   11.1319   56.4040  H     
34   H        16.2494   13.3334   59.8251  H     
35   H        17.3922   15.0206   58.9234  H     
36   H        20.2899   12.4159   54.1938  H     
37   H        22.0358   12.6772   54.2090  H     
38   H        19.1953   16.4208   58.4555  H     
39   H        23.5920   12.7323   56.1442  H     
40   H        25.2341   12.1622   57.8083  H     
41   H        20.1374    7.3243   58.0922  H     
42   H        20.2867    9.2042   56.6231  H     
43   H        23.8611    8.2784   59.8191  H     
44   H        23.4175    6.4724   61.1552  H     
45   H        21.9435    5.5720   61.7043  H     
46   H        21.9704    7.3444   61.7716  H     
@<TRIPOS>BOND
     1    1    2 2
     2    1    5 1
     3    2    3 1
     4    3    4 2
     5    4    6 1
     6    5    6 2
     7    6    7 1
     8    7    8 1
     9    7   16 2
    10    8   15 2
    11    9   11 1
    12    9   12 2
    13    9   14 1
    14   10   11 1
    15   10   13 2
    16   10   15 1
    17   11   16 1
    18   12   13 1
    19   14   17 1
    20   17   18 1
    21   18   19 2
    22   18   25 1
    23   19   20 1
    24   20   27 2
    25   21   25 2
    26   21   26 1
    27   21   27 1
    28   22   23 1
    29   22   26 2
    30   22   28 1
    31   23   24 2
    32   24   25 1
    33   28   29 1
    34    1   30 1
    35    2   31 1
    36    3   32 1
    37    4   33 1
    38    5   34 1
    39    8   35 1
    40   14   36 1
    41   14   37 1
    42   15   38 1
    43   19   39 1
    44   20   40 1
    45   23   41 1
    46   24   42 1
    47   26   43 1
    48   29   44 1
    49   29   45 1
    50   29   46 1
@<TRIPOS>PROPERTY_DATA
  Total_Score	| 10.6376
  Crash		| -0.5189
  Polar		| 2.2749
  FragIndex	| 1
  FragRMSD	| 0.307

