@<TRIPOS>MOLECULE
BindingDB_24475
 46 50 0 0 0
SMALL
NO_CHARGES


@<TRIPOS>ATOM
1    C        15.2659   11.7786   59.6120  C     
2    C        15.0246   10.6523   58.8076  C     
3    C        15.8034   10.4385   57.6586  C     
4    C        16.8103   11.3613   57.3063  C     
5    C        16.2703   12.6984   59.2531  C     
6    C        17.0508   12.5355   58.0716  C     
7    C        18.0407   13.4607   57.6887  C     
8    C        18.1538   14.7542   58.1949  C     
9    C        21.0096   13.5984   55.7034  C     
10   C        20.1748   15.0223   57.0635  C     
11   N        19.9735   13.8083   56.5270  N     
12   N        21.8201   14.6747   55.7650  N     
13   N        21.3129   15.5417   56.5853  N     
14   C        21.2202   12.4564   54.8013  C     
15   C        19.2317   15.5279   57.9299  C     
16   N        18.9590   13.0782   56.8455  N     
17   O        21.4365   11.1820   55.4392  O     
18   C        22.3676   11.0336   56.4472  C     
19   C        23.5550   11.8059   56.5207  C     
20   C        24.4443   11.5969   57.5928  C     
21   C        23.1516    9.7432   58.4012  C     
22   C        21.8816    7.7802   59.1667  C     
23   C        20.8912    8.0724   58.2040  C     
24   C        21.0233    9.1662   57.3391  C     
25   C        22.1626   10.0123   57.4043  C     
26   C        23.0277    8.6207   59.2506  C     
27   N        24.2349   10.5756   58.4738  N     
28   O        21.7598    6.5863   59.8278  O     
29   C        22.3688    6.4435   61.1198  C     
30   F        15.5872    9.3883   56.9095  F     
31   F        14.5569   11.9669   60.6956  F     
32   H        14.2863    9.9876   59.0612  H     
33   H        17.3532   11.1635   56.4611  H     
34   H        16.4323   13.4841   59.8868  H     
35   H        17.4113   15.1677   58.7040  H     
36   H        20.3283   12.3595   54.1731  H     
37   H        22.0526   12.6942   54.1493  H     
38   H        19.3237   16.4437   58.3052  H     
39   H        23.8001   12.4479   55.7751  H     
40   H        25.2708   12.1932   57.6862  H     
41   H        20.0698    7.4644   58.1119  H     
42   H        20.2945    9.3323   56.6316  H     
43   H        23.7796    8.3630   59.9049  H     
44   H        23.4568    6.5251   61.0397  H     
45   H        22.0957    5.4567   61.5055  H     
46   H        21.9966    7.1858   61.8301  H     
@<TRIPOS>BOND
     1    1    2 2
     2    1    5 1
     3    1   31 1
     4    2    3 1
     5    3    4 2
     6    3   30 1
     7    4    6 1
     8    5    6 2
     9    6    7 1
    10    7    8 1
    11    7   16 2
    12    8   15 2
    13    9   11 1
    14    9   12 2
    15    9   14 1
    16   10   11 1
    17   10   13 2
    18   10   15 1
    19   11   16 1
    20   12   13 1
    21   14   17 1
    22   17   18 1
    23   18   19 2
    24   18   25 1
    25   19   20 1
    26   20   27 2
    27   21   25 2
    28   21   26 1
    29   21   27 1
    30   22   23 1
    31   22   26 2
    32   22   28 1
    33   23   24 2
    34   24   25 1
    35   28   29 1
    36    2   32 1
    37    4   33 1
    38    5   34 1
    39    8   35 1
    40   14   36 1
    41   14   37 1
    42   15   38 1
    43   19   39 1
    44   20   40 1
    45   23   41 1
    46   24   42 1
    47   26   43 1
    48   29   44 1
    49   29   45 1
    50   29   46 1
@<TRIPOS>PROPERTY_DATA
  Total_Score	| 10.5348
  Crash		| -0.6757
  Polar		| 2.0667
  FragIndex	| 1
  FragRMSD	| 0.274

