@<TRIPOS>MOLECULE
BindingDB_24477
 53 57 0 0 0
SMALL
NO_CHARGES


@<TRIPOS>ATOM
1    C        15.1816   11.3150   59.1722  C     
2    C        15.0617   10.2187   58.2821  C     
3    C        15.9602   10.1859   57.1874  C     
4    C        16.9250   11.1869   56.9957  C     
5    C        16.1460   12.3219   58.9769  C     
6    C        17.0429   12.2871   57.8806  C     
7    C        18.0380   13.2685   57.6718  C     
8    C        18.0681   14.5184   58.2907  C     
9    C        21.0435   13.6845   55.7934  C     
10   C        20.0864   14.9979   57.2057  C     
11   N        19.9927   13.7990   56.6123  N     
12   N        21.7755   14.8148   55.9110  N     
13   N        21.1948   15.6114   56.7642  N     
14   C        21.3182   12.5875   54.8479  C     
15   C        19.0820   15.3884   58.0760  C     
16   N        19.0140   12.9984   56.8543  N     
17   O        21.4614   11.2826   55.4464  O     
18   C        22.3860   11.0478   56.4394  C     
19   C        23.5885   11.7915   56.5538  C     
20   C        24.4929   11.5083   57.5924  C     
21   C        23.1569    9.6922   58.3321  C     
22   C        21.9150    7.7169   59.0863  C     
23   C        20.9388    7.9858   58.1079  C     
24   C        21.0598    9.0935   57.2449  C     
25   C        22.1768    9.9639   57.3355  C     
26   C        23.0273    8.5863   59.1986  C     
27   N        24.2594   10.4755   58.4322  N     
28   O        21.8216    6.5335   59.7703  O     
29   C        22.3953    6.4994   61.0928  C     
30   C        14.1116    9.2016   58.4609  C     
31   O        14.0024    8.3129   57.6200  O     
32   N        13.3197    9.1584   59.5286  N     
33   C        12.3462    8.1549   59.8068  C     
34   H        14.5709   11.3998   59.9868  H     
35   H        15.9311    9.4196   56.5051  H     
36   H        17.5371   11.0950   56.1816  H     
37   H        16.1932   13.0682   59.6741  H     
38   H        17.3208   14.8158   58.8755  H     
39   H        20.4699   12.5308   54.1613  H     
40   H        22.1945   12.8418   54.2572  H     
41   H        19.0954   16.2830   58.4988  H     
42   H        23.8242   12.5148   55.8699  H     
43   H        25.3541   12.0518   57.6939  H     
44   H        20.1424    7.3557   58.0020  H     
45   H        20.3408    9.2418   56.5324  H     
46   H        23.7607    8.3604   59.8714  H     
47   H        23.4823    6.5849   61.0555  H     
48   H        22.1531    5.5403   61.5485  H     
49   H        21.9874    7.2836   61.7284  H     
50   H        13.4084    9.8599   60.1884  H     
51   H        11.5967    8.1246   59.0123  H     
52   H        11.8545    8.3856   60.7500  H     
53   H        12.8286    7.1759   59.8919  H     
@<TRIPOS>BOND
     1    1    2 2
     2    1    5 1
     3    2    3 1
     4    2   30 1
     5    3    4 2
     6    4    6 1
     7    5    6 2
     8    6    7 1
     9    7    8 1
    10    7   16 2
    11    8   15 2
    12    9   11 1
    13    9   12 2
    14    9   14 1
    15   10   11 1
    16   10   13 2
    17   10   15 1
    18   11   16 1
    19   12   13 1
    20   14   17 1
    21   17   18 1
    22   18   19 2
    23   18   25 1
    24   19   20 1
    25   20   27 2
    26   21   25 2
    27   21   26 1
    28   21   27 1
    29   22   23 1
    30   22   26 2
    31   22   28 1
    32   23   24 2
    33   24   25 1
    34   28   29 1
    35   30   31 2
    36   30   32 am
    37   32   33 1
    38    1   34 1
    39    3   35 1
    40    4   36 1
    41    5   37 1
    42    8   38 1
    43   14   39 1
    44   14   40 1
    45   15   41 1
    46   19   42 1
    47   20   43 1
    48   23   44 1
    49   24   45 1
    50   26   46 1
    51   29   47 1
    52   29   48 1
    53   29   49 1
    54   32   50 1
    55   33   51 1
    56   33   52 1
    57   33   53 1
@<TRIPOS>PROPERTY_DATA
  Total_Score	| 10.6798
  Crash		| -0.8402
  Polar		| 3.1739
  FragIndex	| 1
  FragRMSD	| 0.198

