@<TRIPOS>MOLECULE
BindingDB_24482
 46 50 0 0 0
SMALL
NO_CHARGES


@<TRIPOS>ATOM
1    C        17.9789   13.4906   57.7901  C     
2    C        18.0950   14.7812   58.2939  C     
3    C        20.9042   13.5886   55.7391  C     
4    C        20.0794   15.0523   57.0822  C     
5    N        19.8869   13.8161   56.5866  N     
6    N        21.7050   14.6732   55.7594  N     
7    N        21.2079   15.5646   56.5675  N     
8    C        21.1229   12.4190   54.8629  C     
9    C        19.1439   15.5653   57.9591  C     
10   N        18.8808   13.0852   56.9466  N     
11   O        21.2580   11.1692   55.5671  O     
12   C        22.2601   10.9465   56.4879  C     
13   C        23.4740   11.6835   56.5276  C     
14   C        24.4452   11.3949   57.5071  C     
15   C        23.1183    9.6100   58.3471  C     
16   C        21.8658    7.6931   59.2058  C     
17   C        20.8342    7.9628   58.2836  C     
18   C        20.9351    9.0506   57.4029  C     
19   C        22.0858    9.8862   57.4080  C     
20   C        23.0080    8.5218   59.2349  C     
21   N        24.2418   10.3740   58.3769  N     
22   O        21.8283    6.5446   59.9433  O     
23   C        21.2951    6.7341   61.2648  C     
24   C        17.0039   12.5906   58.2072  C     
25   C        15.4963   10.5328   58.6609  C     
26   C        15.1588   11.6610   59.4141  C     
27   C        15.9886   12.7740   59.1653  C     
28   S        16.8424   10.9568   57.6794  S     
29   C        14.0291   11.6728   60.3660  C     
30   H        17.4248   15.1517   58.9157  H     
31   H        20.2471   12.3313   54.2026  H     
32   H        21.9993   12.5917   54.2314  H     
33   H        19.2451   16.4789   58.3317  H     
34   H        23.6589   12.3948   55.8139  H     
35   H        25.3048   11.9488   57.5433  H     
36   H        20.0121    7.3492   58.2330  H     
37   H        20.1729    9.2175   56.7410  H     
38   H        23.7722    8.3053   59.8832  H     
39   H        21.9015    7.4370   61.8389  H     
40   H        21.3138    5.7714   61.7740  H     
41   H        20.2607    7.0854   61.2304  H     
42   H        15.0396    9.6169   58.6956  H     
43   H        15.8480   13.6501   59.6696  H     
44   H        13.1022   11.4532   59.8308  H     
45   H        13.9276   12.6480   60.8495  H     
46   H        14.1867   10.9172   61.1388  H     
@<TRIPOS>BOND
     1    1    2 1
     2    1   10 2
     3    1   24 1
     4    2    9 2
     5    3    5 1
     6    3    6 2
     7    3    8 1
     8    4    5 1
     9    4    7 2
    10    4    9 1
    11    5   10 1
    12    6    7 1
    13    8   11 1
    14   11   12 1
    15   12   13 2
    16   12   19 1
    17   13   14 1
    18   14   21 2
    19   15   19 2
    20   15   20 1
    21   15   21 1
    22   16   17 1
    23   16   20 2
    24   16   22 1
    25   17   18 2
    26   18   19 1
    27   22   23 1
    28   24   27 2
    29   24   28 1
    30   25   26 2
    31   25   28 1
    32   26   27 1
    33   26   29 1
    34    2   30 1
    35    8   31 1
    36    8   32 1
    37    9   33 1
    38   13   34 1
    39   14   35 1
    40   17   36 1
    41   18   37 1
    42   20   38 1
    43   23   39 1
    44   23   40 1
    45   23   41 1
    46   25   42 1
    47   27   43 1
    48   29   44 1
    49   29   45 1
    50   29   46 1
@<TRIPOS>PROPERTY_DATA
  Total_Score	| 9.9271
  Crash		| -0.2922
  Polar		| 2.1951
  FragIndex	| 1
  FragRMSD	| 0.392

