@<TRIPOS>MOLECULE
BindingDB_24478
 53 57 0 0 0
SMALL
NO_CHARGES


@<TRIPOS>ATOM
1    C        15.2185   11.6707   59.6682  C     
2    C        14.9551   10.5713   58.8234  C     
3    C        15.7416   10.4035   57.6619  C     
4    C        16.7501   11.3354   57.3480  C     
5    C        16.2332   12.5918   59.3490  C     
6    C        17.0145   12.4656   58.1691  C     
7    C        18.0161   13.4015   57.8273  C     
8    C        18.1183   14.6818   58.3754  C     
9    C        20.8955   13.6560   55.7245  C     
10   C        20.0529   15.0626   57.1162  C     
11   N        19.8930   13.8346   56.5945  N     
12   N        21.6468   14.7750   55.7332  N     
13   N        21.1384   15.6302   56.5729  N     
14   C        21.1533   12.4695   54.8845  C     
15   C        19.1346   15.5101   58.0466  C     
16   N        18.9201   13.0651   56.9520  N     
17   O        21.2987   11.2454   55.6281  O     
18   C        22.3038   11.0093   56.5455  C     
19   C        23.4566   11.8192   56.6827  C     
20   C        24.4281   11.4977   57.6477  C     
21   C        23.1947    9.5827   58.3306  C     
22   C        21.9690    7.6051   59.1104  C     
23   C        20.9672    7.8814   58.1611  C     
24   C        21.0630    8.9890   57.3051  C     
25   C        22.1719    9.8650   57.3798  C     
26   C        23.0989    8.4481   59.1802  C     
27   N        24.2720   10.4012   58.4276  N     
28   O        21.7931    6.4711   59.8689  O     
29   C        22.3522    6.4679   61.1897  C     
30   C        13.9640    9.6753   59.1640  C     
31   O        14.2738    8.7132   59.8572  O     
32   N        12.7147    9.8845   58.7695  N     
33   C        11.5978    9.0658   59.1046  C     
34   F        15.5466    9.3967   56.8500  F     
35   H        14.6777   11.8072   60.5276  H     
36   H        17.2823   11.1841   56.4874  H     
37   H        16.3983   13.3470   60.0142  H     
38   H        17.4251   15.0300   58.9938  H     
39   H        20.2956   12.3411   54.2185  H     
40   H        22.0302   12.6265   54.2549  H     
41   H        19.2132   16.4186   58.4402  H     
42   H        23.6022   12.6385   56.0910  H     
43   H        25.2580   12.0881   57.7598  H     
44   H        20.1597    7.2611   58.0806  H     
45   H        20.3155    9.1465   56.6255  H     
46   H        23.8450    8.2250   59.8542  H     
47   H        23.4359    6.5517   61.1193  H     
48   H        22.0981    5.5170   61.6884  H     
49   H        21.9544    7.2826   61.7970  H     
50   H        12.5410   10.6616   58.2137  H     
51   H        11.7452    8.0472   58.7428  H     
52   H        10.7003    9.4753   58.6381  H     
53   H        11.4497    9.0493   60.1861  H     
@<TRIPOS>BOND
     1    1    2 2
     2    1    5 1
     3    2    3 1
     4    2   30 1
     5    3    4 2
     6    3   34 1
     7    4    6 1
     8    5    6 2
     9    6    7 1
    10    7    8 1
    11    7   16 2
    12    8   15 2
    13    9   11 1
    14    9   12 2
    15    9   14 1
    16   10   11 1
    17   10   13 2
    18   10   15 1
    19   11   16 1
    20   12   13 1
    21   14   17 1
    22   17   18 1
    23   18   19 2
    24   18   25 1
    25   19   20 1
    26   20   27 2
    27   21   25 2
    28   21   26 1
    29   21   27 1
    30   22   23 1
    31   22   26 2
    32   22   28 1
    33   23   24 2
    34   24   25 1
    35   28   29 1
    36   30   31 2
    37   30   32 am
    38   32   33 1
    39    1   35 1
    40    4   36 1
    41    5   37 1
    42    8   38 1
    43   14   39 1
    44   14   40 1
    45   15   41 1
    46   19   42 1
    47   20   43 1
    48   23   44 1
    49   24   45 1
    50   26   46 1
    51   29   47 1
    52   29   48 1
    53   29   49 1
    54   32   50 1
    55   33   51 1
    56   33   52 1
    57   33   53 1
@<TRIPOS>PROPERTY_DATA
  Total_Score	| 11.1178
  Crash		| -0.8238
  Polar		| 3.3462
  FragIndex	| 1
  FragRMSD	| 0.172

