@<TRIPOS>MOLECULE
BindingDB_24472
 46 50 0 0 0
SMALL
NO_CHARGES


@<TRIPOS>ATOM
1    C        15.1804   11.7891   59.5515  C     
2    C        14.9964   10.6465   58.7585  C     
3    C        15.8268   10.4309   57.6467  C     
4    C        16.8281   11.3665   57.3247  C     
5    C        16.1853   12.7190   59.2255  C     
6    C        17.0301   12.5463   58.0951  C     
7    C        18.0429   13.4750   57.7555  C     
8    C        18.1645   14.7556   58.2985  C     
9    C        20.9449   13.6662   55.6785  C     
10   C        20.1289   15.0888   57.0703  C     
11   N        19.9446   13.8686   56.5452  N     
12   N        21.7244   14.7660   55.6965  N     
13   N        21.2315   15.6319   56.5361  N     
14   C        21.1600   12.4769   54.8405  C     
15   C        19.2068   15.5579   57.9887  C     
16   N        18.9511   13.1200   56.8923  N     
17   O        21.3055   11.2646   55.5984  O     
18   C        22.3091   11.0341   56.5183  C     
19   C        23.4825   11.8145   56.6346  C     
20   C        24.4496   11.4960   57.6014  C     
21   C        23.1638    9.6347   58.3295  C     
22   C        21.9269    7.6734   59.1220  C     
23   C        20.9133    7.9616   58.1892  C     
24   C        21.0162    9.0677   57.3273  C     
25   C        22.1448    9.9196   57.3764  C     
26   C        23.0575    8.5221   59.1893  C     
27   N        24.2657   10.4266   58.4107  N     
28   O        21.8115    6.5094   59.8405  O     
29   C        22.3206    6.5079   61.1833  C     
30   F        15.6681    9.3639   56.9145  F     
31   H        14.5895   11.9422   60.3710  H     
32   H        14.2660    9.9758   58.9982  H     
33   H        17.4073   11.1732   56.5045  H     
34   H        16.2972   13.5156   59.8562  H     
35   H        17.4626   15.1263   58.8953  H     
36   H        20.2819   12.3524   54.2034  H     
37   H        22.0192   12.6102   54.1818  H     
38   H        19.2992   16.4672   58.3781  H     
39   H        23.6502   12.6095   56.0239  H     
40   H        25.2921   12.0640   57.7008  H     
41   H        20.1054    7.3415   58.1088  H     
42   H        20.2642    9.2282   56.6560  H     
43   H        23.8169    8.3113   59.8451  H     
44   H        23.4069    6.4694   61.1750  H     
45   H        21.9624    5.6046   61.6946  H     
46   H        21.9791    7.3806   61.7517  H     
@<TRIPOS>BOND
     1    1    2 2
     2    1    5 1
     3    2    3 1
     4    3    4 2
     5    3   30 1
     6    4    6 1
     7    5    6 2
     8    6    7 1
     9    7    8 1
    10    7   16 2
    11    8   15 2
    12    9   11 1
    13    9   12 2
    14    9   14 1
    15   10   11 1
    16   10   13 2
    17   10   15 1
    18   11   16 1
    19   12   13 1
    20   14   17 1
    21   17   18 1
    22   18   19 2
    23   18   25 1
    24   19   20 1
    25   20   27 2
    26   21   25 2
    27   21   26 1
    28   21   27 1
    29   22   23 1
    30   22   26 2
    31   22   28 1
    32   23   24 2
    33   24   25 1
    34   28   29 1
    35    1   31 1
    36    2   32 1
    37    4   33 1
    38    5   34 1
    39    8   35 1
    40   14   36 1
    41   14   37 1
    42   15   38 1
    43   19   39 1
    44   20   40 1
    45   23   41 1
    46   24   42 1
    47   26   43 1
    48   29   44 1
    49   29   45 1
    50   29   46 1
@<TRIPOS>PROPERTY_DATA
  Total_Score	| 10.4521
  Crash		| -0.6528
  Polar		| 2.2513
  FragIndex	| 1
  FragRMSD	| 0.308

