@<TRIPOS>MOLECULE
BindingDB_24479
 53 57 0 0 0
SMALL
NO_CHARGES


@<TRIPOS>ATOM
1    C        15.8482   10.3273   57.5063  C     
2    C        14.7867   10.6121   58.3989  C     
3    C        14.8895   11.7940   59.1823  C     
4    C        15.9915   12.6602   59.0248  C     
5    C        16.9432   11.1991   57.3693  C     
6    C        17.0439   12.4135   58.1030  C     
7    C        18.1226   13.3100   57.8788  C     
8    C        18.2953   14.5260   58.5456  C     
9    C        20.9570   13.6761   55.7213  C     
10   C        20.1493   15.0034   57.2069  C     
11   N        19.9683   13.8106   56.6182  N     
12   N        21.7121   14.7930   55.7808  N     
13   N        21.2269   15.5992   56.6793  N     
14   C        21.2125   12.5241   54.8345  C     
15   C        19.2805   15.3859   58.2058  C     
16   N        18.9933   13.0341   56.9471  N     
17   O        21.3701   11.2825   55.5467  O     
18   C        22.3404   11.0739   56.5037  C     
19   C        23.5223   11.8401   56.6294  C     
20   C        24.4633   11.5358   57.6307  C     
21   C        23.1596    9.7007   58.3467  C     
22   C        21.9029    7.7420   59.1417  C     
23   C        20.8960    8.0354   58.1872  C     
24   C        21.0176    9.1380   57.3183  C     
25   C        22.1515    9.9809   57.3846  C     
26   C        23.0331    8.5896   59.2128  C     
27   N        24.2657   10.4756   58.4469  N     
28   O        21.7433    6.5738   59.8649  O     
29   C        22.2347    6.4975   61.2192  C     
30   C        13.7116    9.7280   58.4736  C     
31   O        13.4104    9.2467   59.5650  O     
32   N        13.0443    9.3683   57.3823  N     
33   C        11.9948    8.4051   57.3377  C     
34   Cl       13.6677   12.2972   60.2541  Cl    
35   H        15.8410    9.4692   56.9419  H     
36   H        15.9948   13.5087   59.5946  H     
37   H        17.6693   10.9305   56.7000  H     
38   H        17.7199   14.7893   59.3061  H     
39   H        20.3537   12.4235   54.1588  H     
40   H        22.0946   12.7186   54.2189  H     
41   H        19.3860   16.2615   58.6611  H     
42   H        23.7135   12.6201   55.9983  H     
43   H        25.3049   12.1003   57.7303  H     
44   H        20.0709    7.4318   58.1030  H     
45   H        20.2744    9.3129   56.6268  H     
46   H        23.7856    8.3999   59.8753  H     
47   H        23.3279    6.4539   61.2519  H     
48   H        21.8510    5.5828   61.6783  H     
49   H        21.8883    7.3402   61.8210  H     
50   H        13.2730    9.8035   56.5414  H     
51   H        12.3572    7.4295   57.6745  H     
52   H        11.6430    8.3111   56.3103  H     
53   H        11.1595    8.7203   57.9685  H     
@<TRIPOS>BOND
     1    1    2 2
     2    1    5 1
     3    2    3 1
     4    2   30 1
     5    3    4 2
     6    3   34 1
     7    4    6 1
     8    5    6 2
     9    6    7 1
    10    7    8 1
    11    7   16 2
    12    8   15 2
    13    9   11 1
    14    9   12 2
    15    9   14 1
    16   10   11 1
    17   10   13 2
    18   10   15 1
    19   11   16 1
    20   12   13 1
    21   14   17 1
    22   17   18 1
    23   18   19 2
    24   18   25 1
    25   19   20 1
    26   20   27 2
    27   21   25 2
    28   21   26 1
    29   21   27 1
    30   22   23 1
    31   22   26 2
    32   22   28 1
    33   23   24 2
    34   24   25 1
    35   28   29 1
    36   30   31 2
    37   30   32 am
    38   32   33 1
    39    1   35 1
    40    4   36 1
    41    5   37 1
    42    8   38 1
    43   14   39 1
    44   14   40 1
    45   15   41 1
    46   19   42 1
    47   20   43 1
    48   23   44 1
    49   24   45 1
    50   26   46 1
    51   29   47 1
    52   29   48 1
    53   29   49 1
    54   32   50 1
    55   33   51 1
    56   33   52 1
    57   33   53 1
@<TRIPOS>PROPERTY_DATA
  Total_Score	| 11.2080
  Crash		| -0.8254
  Polar		| 3.2817
  FragIndex	| 1
  FragRMSD	| 0.178

