@<TRIPOS>MOLECULE
BindingDB_24474
 46 50 0 0 0
SMALL
NO_CHARGES


@<TRIPOS>ATOM
1    C        15.7799   10.4035   57.6921  C     
2    C        14.9341   10.6268   58.7904  C     
3    C        15.1070   11.7818   59.5716  C     
4    C        16.1181   12.7069   59.2515  C     
5    C        16.7873   11.3337   57.3735  C     
6    C        16.9791   12.5196   58.1352  C     
7    C        17.9995   13.4366   57.7953  C     
8    C        18.1243   14.7143   58.3386  C     
9    C        20.9507   13.5962   55.7731  C     
10   C        20.1283   15.0108   57.1623  C     
11   N        19.9299   13.7972   56.6174  N     
12   N        21.7477   14.6826   55.8320  N     
13   N        21.2523   15.5481   56.6665  N     
14   C        21.1639   12.4576   54.8619  C     
15   C        19.1872   15.4986   58.0517  C     
16   N        18.9166   13.0657   56.9429  N     
17   O        21.3335   11.1796   55.5038  O     
18   C        22.2718   11.0003   56.4989  C     
19   C        23.4288   11.8084   56.6111  C     
20   C        24.3625   11.5656   57.6364  C     
21   C        23.1307    9.6775   58.3789  C     
22   C        21.9735    7.6520   59.1453  C     
23   C        20.9815    7.8824   58.1715  C     
24   C        21.0550    8.9835   57.2975  C     
25   C        22.1309    9.9018   57.3867  C     
26   C        23.0595    8.5637   59.2382  C     
27   N        24.1942   10.5187   58.4784  N     
28   O        21.8638    6.4844   59.8632  O     
29   C        22.4353    6.4220   61.1905  C     
30   F        14.0027    9.7545   59.0736  F     
31   F        14.3356   11.9991   60.6032  F     
32   H        15.6708    9.5643   57.1160  H     
33   H        16.2328   13.5121   59.8668  H     
34   H        17.3730   11.1315   56.5590  H     
35   H        17.4033   15.0942   58.9077  H     
36   H        20.2775   12.3818   54.2198  H     
37   H        22.0182   12.6806   54.2241  H     
38   H        19.2807   16.4111   58.4416  H     
39   H        23.6031   12.5544   55.9284  H     
40   H        25.1859   12.1695   57.7309  H     
41   H        20.1979    7.2297   58.0902  H     
42   H        20.3265    9.0971   56.5909  H     
43   H        23.8101    8.3917   59.9146  H     
44   H        23.5272    6.4497   61.1471  H     
45   H        22.1350    5.4681   61.6517  H     
46   H        22.0635    7.2381   61.8288  H     
@<TRIPOS>BOND
     1    1    2 2
     2    1    5 1
     3    2    3 1
     4    2   30 1
     5    3    4 2
     6    3   31 1
     7    4    6 1
     8    5    6 2
     9    6    7 1
    10    7    8 1
    11    7   16 2
    12    8   15 2
    13    9   11 1
    14    9   12 2
    15    9   14 1
    16   10   11 1
    17   10   13 2
    18   10   15 1
    19   11   16 1
    20   12   13 1
    21   14   17 1
    22   17   18 1
    23   18   19 2
    24   18   25 1
    25   19   20 1
    26   20   27 2
    27   21   25 2
    28   21   26 1
    29   21   27 1
    30   22   23 1
    31   22   26 2
    32   22   28 1
    33   23   24 2
    34   24   25 1
    35   28   29 1
    36    1   32 1
    37    4   33 1
    38    5   34 1
    39    8   35 1
    40   14   36 1
    41   14   37 1
    42   15   38 1
    43   19   39 1
    44   20   40 1
    45   23   41 1
    46   24   42 1
    47   26   43 1
    48   29   44 1
    49   29   45 1
    50   29   46 1
@<TRIPOS>PROPERTY_DATA
  Total_Score	| 10.5700
  Crash		| -0.6012
  Polar		| 2.1168
  FragIndex	| 1
  FragRMSD	| 0.316

