@<TRIPOS>MOLECULE
BindingDB_24471
 46 50 0 0 0
SMALL
NO_CHARGES


@<TRIPOS>ATOM
1    C        15.1521   11.6182   59.4644  C     
2    C        14.9893   10.4985   58.6353  C     
3    C        15.8287   10.3300   57.5228  C     
4    C        16.8189   11.2876   57.2367  C     
5    C        16.1455   12.5745   59.1768  C     
6    C        17.0026   12.4451   58.0477  C     
7    C        18.0051   13.3943   57.7463  C     
8    C        18.0937   14.6713   58.3088  C     
9    C        20.9375   13.6604   55.7223  C     
10   C        20.0710   15.0569   57.1159  C     
11   N        19.9198   13.8348   56.5748  N     
12   N        21.6922   14.7735   55.7633  N     
13   N        21.1704   15.6257   56.6031  N     
14   C        21.1867   12.4787   54.8745  C     
15   C        19.1245   15.4971   58.0223  C     
16   N        18.9367   13.0669   56.8975  N     
17   O        21.2963   11.2433   55.6072  O     
18   C        22.2986   10.9907   56.5253  C     
19   C        23.4688   11.7786   56.6468  C     
20   C        24.4338   11.4627   57.6191  C     
21   C        23.1597    9.5874   58.3372  C     
22   C        21.8987    7.6485   59.1619  C     
23   C        20.9067    7.9193   58.2034  C     
24   C        21.0214    9.0077   57.3199  C     
25   C        22.1445    9.8676   57.3796  C     
26   C        23.0439    8.4788   59.2128  C     
27   N        24.2538   10.3886   58.4228  N     
28   O        21.7095    6.5323   59.9476  O     
29   C        22.3038    6.5289   61.2505  C     
30   F        14.0622    9.6187   58.8990  F     
31   H        14.5526   11.7437   60.2850  H     
32   H        15.7233    9.5123   56.9154  H     
33   H        17.4023   11.1248   56.4136  H     
34   H        16.2405   13.3547   59.8283  H     
35   H        17.3747   15.0201   58.8958  H     
36   H        20.3366   12.3768   54.1874  H     
37   H        22.0769   12.6293   54.2630  H     
38   H        19.1907   16.4041   58.4234  H     
39   H        23.6271   12.5831   56.0370  H     
40   H        25.2684   12.0417   57.7187  H     
41   H        20.0886    7.3062   58.1338  H     
42   H        20.2778    9.1591   56.6363  H     
43   H        23.7919    8.2717   59.8877  H     
44   H        23.3907    6.4868   61.1587  H     
45   H        21.9705    5.6365   61.8022  H     
46   H        22.0153    7.4061   61.8333  H     
@<TRIPOS>BOND
     1    1    2 2
     2    1    5 1
     3    2    3 1
     4    2   30 1
     5    3    4 2
     6    4    6 1
     7    5    6 2
     8    6    7 1
     9    7    8 1
    10    7   16 2
    11    8   15 2
    12    9   11 1
    13    9   12 2
    14    9   14 1
    15   10   11 1
    16   10   13 2
    17   10   15 1
    18   11   16 1
    19   12   13 1
    20   14   17 1
    21   17   18 1
    22   18   19 2
    23   18   25 1
    24   19   20 1
    25   20   27 2
    26   21   25 2
    27   21   26 1
    28   21   27 1
    29   22   23 1
    30   22   26 2
    31   22   28 1
    32   23   24 2
    33   24   25 1
    34   28   29 1
    35    1   31 1
    36    3   32 1
    37    4   33 1
    38    5   34 1
    39    8   35 1
    40   14   36 1
    41   14   37 1
    42   15   38 1
    43   19   39 1
    44   20   40 1
    45   23   41 1
    46   24   42 1
    47   26   43 1
    48   29   44 1
    49   29   45 1
    50   29   46 1
@<TRIPOS>PROPERTY_DATA
  Total_Score	| 10.5044
  Crash		| -0.5811
  Polar		| 2.2800
  FragIndex	| 1
  FragRMSD	| 0.296

