@<TRIPOS>MOLECULE
BindingDB_24484
 43 47 0 0 0
SMALL
NO_CHARGES


@<TRIPOS>ATOM
1    C        18.0370   13.4249   57.8071  C     
2    C        18.1782   14.6703   58.4027  C     
3    C        20.8836   13.6633   55.6667  C     
4    C        20.0830   15.0546   57.0991  C     
5    N        19.8957   13.8379   56.5533  N     
6    N        21.6606   14.7675   55.6961  N     
7    N        21.1751   15.6151   56.5600  N     
8    C        21.1137   12.4860   54.8013  C     
9    C        19.1977   15.4959   58.0615  C     
10   N        18.9098   13.0811   56.9046  N     
11   O        21.2993   11.2713   55.5499  O     
12   C        22.2739   11.0630   56.5061  C     
13   C        23.4595   11.8340   56.6205  C     
14   C        24.4221   11.5188   57.5977  C     
15   C        23.1173    9.6735   58.3366  C     
16   C        21.9047    7.7003   59.1277  C     
17   C        20.8802    7.9865   58.2016  C     
18   C        20.9630    9.1011   57.3465  C     
19   C        22.0955    9.9639   57.3826  C     
20   C        23.0229    8.5549   59.1916  C     
21   N        24.2256   10.4610   58.4117  N     
22   O        21.8150    6.5225   59.8280  O     
23   C        22.3766    6.4796   61.1597  C     
24   C        17.0420   12.5164   58.1270  C     
25   C        15.2944   11.4535   59.0583  C     
26   C        16.0385   12.6208   59.0962  C     
27   C        15.8530   10.6561   58.0669  C     
28   O        16.9010   11.3080   57.5180  O     
29   H        17.5473   14.9740   59.1071  H     
30   H        20.2360   12.3616   54.1720  H     
31   H        21.9674   12.6525   54.1360  H     
32   H        19.3142   16.3807   58.4974  H     
33   H        23.6516   12.6157   55.9877  H     
34   H        25.2706   12.0885   57.6824  H     
35   H        20.0803    7.3508   58.1195  H     
36   H        20.2004    9.2669   56.6862  H     
37   H        23.7934    8.3282   59.8375  H     
38   H        23.4751    6.4902   61.0938  H     
39   H        22.0552    5.5486   61.6460  H     
40   H        22.0320    7.3218   61.7820  H     
41   H        14.4863   11.2233   59.6432  H     
42   H        15.8734   13.3976   59.7361  H     
43   H        15.5222    9.7294   57.7945  H     
@<TRIPOS>BOND
     1    1    2 1
     2    1   10 2
     3    1   24 1
     4    2    9 2
     5    3    5 1
     6    3    6 2
     7    3    8 1
     8    4    5 1
     9    4    7 2
    10    4    9 1
    11    5   10 1
    12    6    7 1
    13    8   11 1
    14   11   12 1
    15   12   13 2
    16   12   19 1
    17   13   14 1
    18   14   21 2
    19   15   19 2
    20   15   20 1
    21   15   21 1
    22   16   17 1
    23   16   20 2
    24   16   22 1
    25   17   18 2
    26   18   19 1
    27   22   23 1
    28   24   26 2
    29   24   28 1
    30   25   26 1
    31   25   27 2
    32   27   28 1
    33    2   29 1
    34    8   30 1
    35    8   31 1
    36    9   32 1
    37   13   33 1
    38   14   34 1
    39   17   35 1
    40   18   36 1
    41   20   37 1
    42   23   38 1
    43   23   39 1
    44   23   40 1
    45   25   41 1
    46   26   42 1
    47   27   43 1
@<TRIPOS>PROPERTY_DATA
  Total_Score	| 9.7289
  Crash		| -0.4121
  Polar		| 2.2098
  FragIndex	| 1
  FragRMSD	| 0.362

