@<TRIPOS>MOLECULE
BindingDB_24483
 45 49 0 0 0
SMALL
NO_CHARGES


@<TRIPOS>ATOM
1    C        18.0336   13.4580   57.7750  C     
2    C        18.1340   14.7411   58.3112  C     
3    C        20.9679   13.6452   55.7473  C     
4    C        20.1117   15.0658   57.1109  C     
5    N        19.9426   13.8334   56.5933  N     
6    N        21.7307   14.7545   55.7609  N     
7    N        21.2136   15.6153   56.5813  N     
8    C        21.2048   12.4860   54.8614  C     
9    C        19.1739   15.5429   58.0083  C     
10   N        18.9504   13.0740   56.9318  N     
11   O        21.3525   11.2107   55.5269  O     
12   C        22.3135   11.0092   56.4966  C     
13   C        23.5010   11.7784   56.5784  C     
14   C        24.4436   11.4987   57.5920  C     
15   C        23.1505    9.6613   58.3565  C     
16   C        21.9540    7.6852   59.1538  C     
17   C        20.9469    7.9350   58.2050  C     
18   C        21.0270    9.0471   57.3443  C     
19   C        22.1395    9.9255   57.3962  C     
20   C        23.0585    8.5605   59.2315  C     
21   N        24.2449   10.4633   58.4416  N     
22   O        21.8599    6.5052   59.8480  O     
23   C        22.3107    6.4887   61.2139  C     
24   C        17.0385   12.5863   58.1281  C     
25   C        15.7006   10.8037   58.0658  C     
26   C        16.7133   11.4563   57.4867  C     
27   S        16.0600   12.7597   59.5185  S     
28   C        15.1123    9.5918   57.5516  C     
29   N        15.2670   11.3732   59.1278  N     
30   H        17.4199   15.0997   58.9028  H     
31   H        20.3454   12.4002   54.1959  H     
32   H        22.0798   12.7009   54.2417  H     
33   H        19.2574   16.4507   58.3866  H     
34   H        23.7030   12.5072   55.8785  H     
35   H        25.2868   12.0716   57.6657  H     
36   H        20.1501    7.2998   58.1119  H     
37   H        20.2781    9.2017   56.6572  H     
38   H        23.8150    8.3676   59.8935  H     
39   H        23.3979    6.3823   61.2721  H     
40   H        21.8724    5.6163   61.7008  H     
41   H        22.0011    7.3742   61.7707  H     
42   H        17.1642   11.1327   56.6629  H     
43   H        14.7134    9.7722   56.5523  H     
44   H        14.3004    9.2361   58.1966  H     
45   H        15.8787    8.8160   57.5046  H     
@<TRIPOS>BOND
     1    1    2 1
     2    1   10 2
     3    1   24 1
     4    2    9 2
     5    3    5 1
     6    3    6 2
     7    3    8 1
     8    4    5 1
     9    4    7 2
    10    4    9 1
    11    5   10 1
    12    6    7 1
    13    8   11 1
    14   11   12 1
    15   12   13 2
    16   12   19 1
    17   13   14 1
    18   14   21 2
    19   15   19 2
    20   15   20 1
    21   15   21 1
    22   16   17 1
    23   16   20 2
    24   16   22 1
    25   17   18 2
    26   18   19 1
    27   22   23 1
    28   24   26 2
    29   24   27 1
    30   25   26 1
    31   25   28 1
    32   25   29 2
    33   27   29 1
    34    2   30 1
    35    8   31 1
    36    8   32 1
    37    9   33 1
    38   13   34 1
    39   14   35 1
    40   17   36 1
    41   18   37 1
    42   20   38 1
    43   23   39 1
    44   23   40 1
    45   23   41 1
    46   26   42 1
    47   28   43 1
    48   28   44 1
    49   28   45 1
@<TRIPOS>PROPERTY_DATA
  Total_Score	| 9.4628
  Crash		| -0.7895
  Polar		| 2.2307
  FragIndex	| 1
  FragRMSD	| 0.436

