@<TRIPOS>MOLECULE
BindingDB_24473
 46 50 0 0 0
SMALL
NO_CHARGES


@<TRIPOS>ATOM
1    C        15.2377   11.6234   59.5500  C     
2    C        15.0895   10.4579   58.7852  C     
3    C        15.9023   10.2565   57.6601  C     
4    C        16.8605   11.2218   57.2917  C     
5    C        16.1942   12.5885   59.1851  C     
6    C        17.0310   12.4274   58.0434  C     
7    C        18.0066   13.3992   57.7126  C     
8    C        18.0715   14.6882   58.2515  C     
9    C        20.9573   13.6650   55.7241  C     
10   C        20.0722   15.0724   57.0947  C     
11   N        19.9333   13.8467   56.5640  N     
12   N        21.7130   14.7810   55.7664  N     
13   N        21.1792   15.6376   56.5939  N     
14   C        21.2015   12.4758   54.8847  C     
15   C        19.1061   15.5165   57.9815  C     
16   N        18.9538   13.0696   56.8846  N     
17   O        21.3009   11.2481   55.6356  O     
18   C        22.3013   10.9926   56.5530  C     
19   C        23.4577   11.7964   56.7001  C     
20   C        24.4262   11.4712   57.6665  C     
21   C        23.1749    9.5645   58.3424  C     
22   C        21.9358    7.6062   59.1466  C     
23   C        20.9365    7.8821   58.1926  C     
24   C        21.0433    8.9802   57.3192  C     
25   C        22.1571    9.8522   57.3868  C     
26   C        23.0739    8.4444   59.2006  C     
27   N        24.2592   10.3761   58.4467  N     
28   O        21.7644    6.4775   59.9149  O     
29   C        22.2725    6.5129   61.2588  C     
30   F        17.5579   10.9369   56.2213  F     
31   H        14.6575   11.7671   60.3798  H     
32   H        14.3985    9.7545   59.0521  H     
33   H        15.7966    9.3982   57.1113  H     
34   H        16.2801   13.4008   59.7985  H     
35   H        17.3307   15.0452   58.8084  H     
36   H        20.3471   12.3756   54.2011  H     
37   H        22.0879   12.6168   54.2669  H     
38   H        19.1608   16.4273   58.3756  H     
39   H        23.6056   12.6179   56.1173  H     
40   H        25.2528   12.0601   57.7802  H     
41   H        20.1238    7.2652   58.1189  H     
42   H        20.2943    9.1352   56.6381  H     
43   H        23.8276    8.2372   59.8677  H     
44   H        23.3639    6.5103   61.2429  H     
45   H        21.9384    5.6146   61.8021  H     
46   H        21.9117    7.3831   61.8135  H     
@<TRIPOS>BOND
     1    1    2 2
     2    1    5 1
     3    2    3 1
     4    3    4 2
     5    4    6 1
     6    4   30 1
     7    5    6 2
     8    6    7 1
     9    7    8 1
    10    7   16 2
    11    8   15 2
    12    9   11 1
    13    9   12 2
    14    9   14 1
    15   10   11 1
    16   10   13 2
    17   10   15 1
    18   11   16 1
    19   12   13 1
    20   14   17 1
    21   17   18 1
    22   18   19 2
    23   18   25 1
    24   19   20 1
    25   20   27 2
    26   21   25 2
    27   21   26 1
    28   21   27 1
    29   22   23 1
    30   22   26 2
    31   22   28 1
    32   23   24 2
    33   24   25 1
    34   28   29 1
    35    1   31 1
    36    2   32 1
    37    3   33 1
    38    5   34 1
    39    8   35 1
    40   14   36 1
    41   14   37 1
    42   15   38 1
    43   19   39 1
    44   20   40 1
    45   23   41 1
    46   24   42 1
    47   26   43 1
    48   29   44 1
    49   29   45 1
    50   29   46 1
@<TRIPOS>PROPERTY_DATA
  Total_Score	| 10.6878
  Crash		| -0.5912
  Polar		| 2.2982
  FragIndex	| 1
  FragRMSD	| 0.322

