@<TRIPOS>MOLECULE
BindingDB_24476
 46 50 0 0 0
SMALL
NO_CHARGES


@<TRIPOS>ATOM
1    C        15.8166   10.4428   57.6132  C     
2    C        14.9333   10.6480   58.6837  C     
3    C        15.0645   11.8005   59.4769  C     
4    C        16.0782   12.7398   59.1950  C     
5    C        16.8236   11.3904   57.3353  C     
6    C        16.9887   12.5690   58.1147  C     
7    C        18.0263   13.4935   57.8107  C     
8    C        18.1658   14.7659   58.3766  C     
9    C        20.9170   13.7040   55.7119  C     
10   C        20.1103   15.1152   57.1172  C     
11   N        19.9251   13.8953   56.5894  N     
12   N        21.6959   14.8061   55.7288  N     
13   N        21.2094   15.6642   56.5762  N     
14   C        21.1323   12.5060   54.8827  C     
15   C        19.2060   15.5750   58.0498  C     
16   N        18.9305   13.1519   56.9411  N     
17   O        21.2870   11.3155   55.6727  O     
18   C        22.3004   11.0745   56.5725  C     
19   C        23.4595   11.8791   56.7235  C     
20   C        24.4289   11.5549   57.6985  C     
21   C        23.1750    9.6455   58.3473  C     
22   C        21.9873    7.6486   59.0958  C     
23   C        20.9705    7.9198   58.1523  C     
24   C        21.0507    9.0391   57.3099  C     
25   C        22.1576    9.9377   57.3926  C     
26   C        23.0989    8.5104   59.1826  C     
27   N        24.2592   10.4620   58.4694  N     
28   O        21.9003    6.4606   59.7904  O     
29   C        22.3866    6.4209   61.1524  C     
30   F        14.2521   12.0164   60.4756  F     
31   F        15.7123    9.3787   56.8645  F     
32   F        13.9878    9.7801   58.9401  F     
33   H        16.1416   13.5516   59.8130  H     
34   H        17.4374   11.1959   56.5436  H     
35   H        17.4970   15.1201   59.0151  H     
36   H        20.2549   12.3731   54.2462  H     
37   H        21.9986   12.6300   54.2245  H     
38   H        19.3065   16.4809   58.4475  H     
39   H        23.6248   12.6920   56.1471  H     
40   H        25.2533   12.1527   57.8271  H     
41   H        20.1873    7.2716   58.0367  H     
42   H        20.3135    9.1916   56.6196  H     
43   H        23.8622    8.2777   59.8400  H     
44   H        23.4810    6.4413   61.1551  H     
45   H        22.0229    5.4923   61.6203  H     
46   H        21.9978    7.2680   61.7416  H     
@<TRIPOS>BOND
     1    1    2 2
     2    1    5 1
     3    1   31 1
     4    2    3 1
     5    2   32 1
     6    3    4 2
     7    3   30 1
     8    4    6 1
     9    5    6 2
    10    6    7 1
    11    7    8 1
    12    7   16 2
    13    8   15 2
    14    9   11 1
    15    9   12 2
    16    9   14 1
    17   10   11 1
    18   10   13 2
    19   10   15 1
    20   11   16 1
    21   12   13 1
    22   14   17 1
    23   17   18 1
    24   18   19 2
    25   18   25 1
    26   19   20 1
    27   20   27 2
    28   21   25 2
    29   21   26 1
    30   21   27 1
    31   22   23 1
    32   22   26 2
    33   22   28 1
    34   23   24 2
    35   24   25 1
    36   28   29 1
    37    4   33 1
    38    5   34 1
    39    8   35 1
    40   14   36 1
    41   14   37 1
    42   15   38 1
    43   19   39 1
    44   20   40 1
    45   23   41 1
    46   24   42 1
    47   26   43 1
    48   29   44 1
    49   29   45 1
    50   29   46 1
@<TRIPOS>PROPERTY_DATA
  Total_Score	| 10.7624
  Crash		| -0.5583
  Polar		| 2.2726
  FragIndex	| 1
  FragRMSD	| 0.334

