@<TRIPOS>MOLECULE
BindingDB_24481
 43 47 0 0 0
SMALL
NO_CHARGES


@<TRIPOS>ATOM
1    C        18.0018   13.3528   57.7484  C     
2    C        18.0846   14.6170   58.3293  C     
3    C        20.9391   13.6508   55.7377  C     
4    C        20.0549   15.0235   57.1383  C     
5    N        19.9120   13.8058   56.5838  N     
6    N        21.6903   14.7687   55.7963  N     
7    N        21.1550   15.6048   56.6419  N     
8    C        21.1852   12.5140   54.8320  C     
9    C        19.1053   15.4540   58.0449  C     
10   N        18.9259   13.0297   56.8912  N     
11   O        21.3221   11.2334   55.4838  O     
12   C        22.2700   11.0400   56.4693  C     
13   C        23.4702   11.7872   56.5308  C     
14   C        24.4041   11.5372   57.5495  C     
15   C        23.1029    9.7168   58.3504  C     
16   C        21.9153    7.7178   59.1306  C     
17   C        20.9105    7.9683   58.1744  C     
18   C        20.9876    9.0813   57.3164  C     
19   C        22.0947    9.9606   57.3754  C     
20   C        23.0045    8.6148   59.2233  C     
21   N        24.1992   10.5153   58.4131  N     
22   O        21.8057    6.5429   59.8450  O     
23   C        22.2827    6.4848   61.1994  C     
24   C        17.0247   12.3952   58.0733  C     
25   C        15.2758   11.3788   59.3325  C     
26   C        16.1548   12.4539   59.1921  C     
27   C        16.8179   11.2179   57.3195  C     
28   S        15.5766   10.2817   58.0453  S     
29   H        17.3732   14.9461   58.9395  H     
30   H        20.3428   12.4449   54.1454  H     
31   H        22.0832   12.7286   54.2419  H     
32   H        19.1640   16.3566   58.4508  H     
33   H        23.6686   12.5033   55.8245  H     
34   H        25.2550   12.0967   57.6078  H     
35   H        20.1228    7.3237   58.0799  H     
36   H        20.2522    9.2166   56.6179  H     
37   H        23.7614    8.4446   59.8929  H     
38   H        23.3750    6.4330   61.2244  H     
39   H        21.8946    5.5721   61.6533  H     
40   H        21.9353    7.3371   61.7835  H     
41   H        14.5933   11.2497   60.0809  H     
42   H        16.1535   13.2118   59.8733  H     
43   H        17.3210   10.9410   56.4742  H     
@<TRIPOS>BOND
     1    1    2 1
     2    1   10 2
     3    1   24 1
     4    2    9 2
     5    3    5 1
     6    3    6 2
     7    3    8 1
     8    4    5 1
     9    4    7 2
    10    4    9 1
    11    5   10 1
    12    6    7 1
    13    8   11 1
    14   11   12 1
    15   12   13 2
    16   12   19 1
    17   13   14 1
    18   14   21 2
    19   15   19 2
    20   15   20 1
    21   15   21 1
    22   16   17 1
    23   16   20 2
    24   16   22 1
    25   17   18 2
    26   18   19 1
    27   22   23 1
    28   24   26 1
    29   24   27 2
    30   25   26 2
    31   25   28 1
    32   27   28 1
    33    2   29 1
    34    8   30 1
    35    8   31 1
    36    9   32 1
    37   13   33 1
    38   14   34 1
    39   17   35 1
    40   18   36 1
    41   20   37 1
    42   23   38 1
    43   23   39 1
    44   23   40 1
    45   25   41 1
    46   26   42 1
    47   27   43 1
@<TRIPOS>PROPERTY_DATA
  Total_Score	| 9.7553
  Crash		| -0.5281
  Polar		| 2.1728
  FragIndex	| 1
  FragRMSD	| 0.293

