@<TRIPOS>MOLECULE
BindingDB_26521
 47 48 0 0 0
SMALL
NO_CHARGES


@<TRIPOS>ATOM
1    C        19.5857   11.6294   36.6838  C     
2    C        20.1824   13.6751   37.7234  C     
3    C        19.4137   11.8880   39.0955  C     
4    C        19.1701   11.1092   37.9299  C     
5    N        20.0544   12.9024   36.6166  N     
6    N        19.8953   13.1542   38.9390  N     
7    N        20.5521   14.9628   37.6028  N     
8    N        19.5082   10.9189   35.5439  N     
9    C        18.5195    9.9848   37.9897  C     
10   C        17.8650    8.9826   38.0382  C     
11   C        17.2394    7.2001   39.4352  C     
12   C        16.1141    7.0145   40.2694  C     
13   C        18.4902    6.6971   39.8646  C     
14   C        18.6123    5.9994   41.0826  C     
15   C        17.4765    5.8122   41.9010  C     
16   C        16.2244    6.3145   41.4879  C     
17   C        17.1010    7.8582   38.1121  C     
18   C        19.0785   11.4001   40.4642  C     
19   C        20.1504   11.6350   41.5518  C     
20   O        15.1404    6.1977   42.3179  O     
21   C        14.1237    5.3126   41.8114  C     
22   O        19.8340    5.5372   41.4993  O     
23   C        20.4129    4.5335   40.6459  C     
24   O        17.5989    5.2391   43.1393  O     
25   C        17.5312    3.8094   43.1651  C     
26   H        20.6352   15.5325   38.3866  H     
27   H        20.6803   15.3481   36.7207  H     
28   H        19.8272   11.3002   34.7130  H     
29   H        19.1746   10.0049   35.5649  H     
30   H        15.2024    7.3887   39.9909  H     
31   H        19.3233    6.8245   39.2778  H     
32   H        16.0646    8.1471   37.9087  H     
33   H        17.4203    7.1720   37.3230  H     
34   H        18.1413   11.8711   40.7624  H     
35   H        18.9061   10.3241   40.4184  H     
36   H        21.0446   11.0528   41.3238  H     
37   H        19.7688   11.3165   42.5239  H     
38   H        20.4190   12.6914   41.6158  H     
39   H        13.6791    5.7082   40.8943  H     
40   H        13.3362    5.2269   42.5588  H     
41   H        14.5227    4.3134   41.6194  H     
42   H        19.7247    3.6988   40.4695  H     
43   H        21.3070    4.1528   41.1465  H     
44   H        20.7096    4.9732   39.6872  H     
45   H        16.6358    3.4269   42.6653  H     
46   H        17.4951    3.5012   44.2107  H     
47   H        18.4205    3.3658   42.7086  H     
@<TRIPOS>BOND
     1    1    4 1
     2    1    5 2
     3    1    8 1
     4    2    5 1
     5    2    6 2
     6    2    7 1
     7    3    4 2
     8    3    6 1
     9    3   18 1
    10    4    9 1
    11    9   10 3
    12   10   17 1
    13   11   12 2
    14   11   13 1
    15   11   17 1
    16   12   16 1
    17   13   14 2
    18   14   15 1
    19   14   22 1
    20   15   16 2
    21   15   24 1
    22   16   20 1
    23   18   19 1
    24   20   21 1
    25   22   23 1
    26   24   25 1
    27    7   26 1
    28    7   27 1
    29    8   28 1
    30    8   29 1
    31   12   30 1
    32   13   31 1
    33   17   32 1
    34   17   33 1
    35   18   34 1
    36   18   35 1
    37   19   36 1
    38   19   37 1
    39   19   38 1
    40   21   39 1
    41   21   40 1
    42   21   41 1
    43   23   42 1
    44   23   43 1
    45   23   44 1
    46   25   45 1
    47   25   46 1
    48   25   47 1
@<TRIPOS>PROPERTY_DATA
  Total_Score	| 3.8060
  Crash		| -4.3888
  Polar		| 0.8261
  FragIndex	| 1
  FragRMSD	| 0.201

