@<TRIPOS>MOLECULE
BindingDB_50298803
 50 51 0 0 0
SMALL
NO_CHARGES


@<TRIPOS>ATOM
1    N        22.4070    8.4667   35.9416  N     
2    C        23.1537    9.3813   36.6063  C     
3    N        22.6000   10.0854   37.6195  N     
4    C        21.3099    9.9102   38.0035  C     
5    C        20.4981    8.9955   37.2773  C     
6    C        21.0992    8.2523   36.2354  C     
7    N        20.4202    7.3396   35.5088  N     
8    C        19.2569    8.7778   37.5884  C     
9    C        18.1556    8.5333   37.9747  C     
10   C        16.9623    8.2293   38.5831  C     
11   C        17.1325    7.3566   39.8039  C     
12   C        15.9842    6.9946   40.5486  C     
13   C        16.0626    6.1581   41.6840  C     
14   C        17.3091    5.6240   42.0720  C     
15   C        18.4693    5.9403   41.3343  C     
16   C        18.3770    6.8268   40.2450  C     
17   O        19.6800    5.4231   41.7172  O     
18   C        20.2782    4.5326   40.7531  C     
19   O        17.3989    4.8970   43.2307  O     
20   C        17.4881    3.4745   43.0380  C     
21   O        14.9579    5.9477   42.4733  O     
22   C        13.9088    5.1757   41.8643  C     
23   C        20.8909   10.7096   39.1790  C     
24   C        16.1778    9.5597   38.8375  C     
25   C        17.0246   10.7765   39.2934  C     
26   N        24.4290    9.6069   36.2653  N     
27   H        19.4906    7.1566   35.7126  H     
28   H        20.8572    6.8332   34.8110  H     
29   H        16.3914    7.6403   37.8528  H     
30   H        15.0673    7.3517   40.2772  H     
31   H        19.2470    7.0701   39.7700  H     
32   H        19.5868    3.7505   40.4290  H     
33   H        21.1335    4.0563   41.2273  H     
34   H        20.6329    5.0850   39.8807  H     
35   H        16.6649    3.0955   42.4265  H     
36   H        17.4352    2.9950   44.0183  H     
37   H        18.4389    3.2037   42.5738  H     
38   H        13.4830    5.6959   41.0030  H     
39   H        13.1205    5.0400   42.6049  H     
40   H        14.2670    4.1928   41.5567  H     
41   H        21.5932   10.5501   40.0018  H     
42   H        19.8957   10.4449   39.5423  H     
43   H        20.8928   11.7685   38.9103  H     
44   H        15.6495    9.8421   37.9203  H     
45   H        15.4061    9.3911   39.5891  H     
46   H        17.7322   10.4820   40.0687  H     
47   H        16.3704   11.5587   39.6785  H     
48   H        17.5882   11.1859   38.4509  H     
49   H        24.9383   10.2971   36.7162  H     
50   H        24.8329    9.1068   35.5368  H     
@<TRIPOS>BOND
     1    1    2 2
     2    1    6 1
     3    2    3 1
     4    2   26 1
     5    3    4 2
     6    4    5 1
     7    4   23 1
     8    5    6 2
     9    5    8 1
    10    6    7 1
    11    8    9 3
    12    9   10 1
    13   10   11 1
    14   10   24 1
    15   11   12 2
    16   11   16 1
    17   12   13 1
    18   13   14 2
    19   13   21 1
    20   14   15 1
    21   14   19 1
    22   15   16 2
    23   15   17 1
    24   17   18 1
    25   19   20 1
    26   21   22 1
    27   24   25 1
    28    7   27 1
    29    7   28 1
    30   10   29 1
    31   12   30 1
    32   16   31 1
    33   18   32 1
    34   18   33 1
    35   18   34 1
    36   20   35 1
    37   20   36 1
    38   20   37 1
    39   22   38 1
    40   22   39 1
    41   22   40 1
    42   23   41 1
    43   23   42 1
    44   23   43 1
    45   24   44 1
    46   24   45 1
    47   25   46 1
    48   25   47 1
    49   25   48 1
    50   26   49 1
    51   26   50 1
@<TRIPOS>PROPERTY_DATA
  Total_Score	| 2.4225
  Crash		| -5.3194
  Polar		| 0.6664
  FragIndex	| 1
  FragRMSD	| 0.707

