@<TRIPOS>MOLECULE
BindingDB_18495
 45 46 0 0 0
SMALL
NO_CHARGES


@<TRIPOS>ATOM
1    C        18.7156    9.4861   37.5378  C     
2    C        19.2005   11.7587   38.0315  C     
3    C        17.3760   10.7250   39.1181  C     
4    C        17.6265    9.5113   38.4426  C     
5    N        19.4606   10.6091   37.3606  N     
6    N        18.1606   11.8020   38.8952  N     
7    N        19.0661    8.3951   36.8355  N     
8    N        19.9425   12.8563   37.8303  N     
9    C        16.8687    8.4891   38.7371  C     
10   C        16.1241    7.6192   39.0885  C     
11   C        15.2224    6.6925   39.5649  C     
12   C        15.6408    5.8684   40.7451  C     
13   C        16.9648    5.8219   41.2548  C     
14   C        14.6551    5.0878   41.3974  C     
15   C        14.9409    4.3418   42.5649  C     
16   C        16.2715    4.3101   43.0397  C     
17   C        17.2928    5.0227   42.3696  C     
18   O        18.5708    4.9958   42.8752  O     
19   C        19.5571    4.4606   41.9745  C     
20   O        16.5443    3.6547   44.2087  O     
21   C        17.0735    2.3317   44.0024  C     
22   O        14.0069    3.6422   43.3000  O     
23   C        12.6917    3.3978   42.7556  C     
24   O        13.9497    7.3500   39.7863  O     
25   C        13.7879    8.2302   40.9208  C     
26   H        16.6015   10.8360   39.7767  H     
27   H        19.8209    8.4282   36.2263  H     
28   H        18.5590    7.5714   36.9274  H     
29   H        19.7366   13.6748   38.3083  H     
30   H        20.6689   12.8453   37.1895  H     
31   H        15.0506    5.9914   38.7474  H     
32   H        17.7008    6.3850   40.8274  H     
33   H        13.6925    5.0998   41.0418  H     
34   H        19.2682    3.4795   41.5963  H     
35   H        20.5010    4.3505   42.5158  H     
36   H        19.7372    5.1368   41.1338  H     
37   H        16.4116    1.7123   43.3918  H     
38   H        17.1765    1.8508   44.9753  H     
39   H        18.0634    2.3767   43.5284  H     
40   H        12.2249    4.3349   42.4171  H     
41   H        12.0665    2.9623   43.5436  H     
42   H        12.7348    2.6823   41.9207  H     
43   H        13.9640    7.7048   41.8632  H     
44   H        12.7610    8.6048   40.9154  H     
45   H        14.4614    9.0917   40.8472  H     
@<TRIPOS>BOND
     1    1    4 2
     2    1    5 1
     3    1    7 1
     4    2    5 2
     5    2    6 1
     6    2    8 1
     7    3    4 1
     8    3    6 2
     9    4    9 1
    10    9   10 3
    11   10   11 1
    12   11   12 1
    13   11   24 1
    14   12   13 1
    15   12   14 2
    16   13   17 2
    17   14   15 1
    18   15   16 2
    19   15   22 1
    20   16   17 1
    21   16   20 1
    22   17   18 1
    23   18   19 1
    24   20   21 1
    25   22   23 1
    26   24   25 1
    27    3   26 1
    28    7   27 1
    29    7   28 1
    30    8   29 1
    31    8   30 1
    32   11   31 1
    33   13   32 1
    34   14   33 1
    35   19   34 1
    36   19   35 1
    37   19   36 1
    38   21   37 1
    39   21   38 1
    40   21   39 1
    41   23   40 1
    42   23   41 1
    43   23   42 1
    44   25   43 1
    45   25   44 1
    46   25   45 1
@<TRIPOS>PROPERTY_DATA
  Total_Score	| 3.3759
  Crash		| -1.1896
  Polar		| 0.0056
  FragIndex	| 1
  FragRMSD	| 0.656

