@<TRIPOS>MOLECULE
BindingDB_18491
 44 45 0 0 0
SMALL
NO_CHARGES


@<TRIPOS>ATOM
1    C        18.3478    6.9568   46.5694  C     
2    C        18.3160    5.9683   48.7322  C     
3    C        16.6126    5.3948   47.1967  C     
4    C        17.1847    6.2323   46.2083  C     
5    N        18.8685    6.7987   47.8146  N     
6    N        17.1904    5.2820   48.4193  N     
7    N        18.9990    7.7961   45.7429  N     
8    N        18.8846    5.8263   49.9395  N     
9    C        16.6582    6.2606   45.0095  C     
10   C        16.1483    6.2325   43.9293  C     
11   C        15.5416    6.1047   42.6986  C     
12   C        16.4769    6.4245   41.5700  C     
13   C        16.0293    7.1797   40.4563  C     
14   C        17.8093    5.9586   41.5632  C     
15   C        18.6804    6.2369   40.4898  C     
16   C        18.2275    7.0076   39.3908  C     
17   C        16.9049    7.5127   39.3935  C     
18   O        16.4606    8.2325   38.3164  O     
19   C        15.5496    9.3233   38.5850  C     
20   O        19.1422    7.2619   38.3990  O     
21   C        18.6180    7.6468   37.1062  C     
22   O        19.9894    5.8316   40.5583  O     
23   C        20.1704    4.4239   40.7706  C     
24   C        14.9373    4.6860   42.5196  C     
25   H        15.7688    4.8379   47.0031  H     
26   H        19.7856    8.2672   46.0647  H     
27   H        18.6816    7.9396   44.8394  H     
28   H        18.4888    5.2299   50.5966  H     
29   H        19.7082    6.2944   50.1447  H     
30   H        14.7023    6.8110   42.7055  H     
31   H        15.0590    7.5023   40.4224  H     
32   H        18.1516    5.4001   42.3537  H     
33   H        14.5658    8.9630   38.9076  H     
34   H        15.4273    9.8632   37.6505  H     
35   H        15.9523   10.0174   39.3367  H     
36   H        17.7323    7.0728   36.8294  H     
37   H        19.3845    7.4787   36.3509  H     
38   H        18.3664    8.7032   37.0893  H     
39   H        19.8521    4.1155   41.7740  H     
40   H        21.2380    4.1986   40.6813  H     
41   H        19.6284    3.8314   40.0268  H     
42   H        15.7143    3.9170   42.5714  H     
43   H        14.4380    4.6050   41.5496  H     
44   H        14.1938    4.4854   43.2957  H     
@<TRIPOS>BOND
     1    1    4 2
     2    1    5 1
     3    1    7 1
     4    2    5 2
     5    2    6 1
     6    2    8 1
     7    3    4 1
     8    3    6 2
     9    4    9 1
    10    9   10 3
    11   10   11 1
    12   11   12 1
    13   11   24 1
    14   12   13 1
    15   12   14 2
    16   13   17 2
    17   14   15 1
    18   15   16 2
    19   15   22 1
    20   16   17 1
    21   16   20 1
    22   17   18 1
    23   18   19 1
    24   20   21 1
    25   22   23 1
    26    3   25 1
    27    7   26 1
    28    7   27 1
    29    8   28 1
    30    8   29 1
    31   11   30 1
    32   13   31 1
    33   14   32 1
    34   19   33 1
    35   19   34 1
    36   19   35 1
    37   21   36 1
    38   21   37 1
    39   21   38 1
    40   23   39 1
    41   23   40 1
    42   23   41 1
    43   24   42 1
    44   24   43 1
    45   24   44 1
@<TRIPOS>PROPERTY_DATA
  Total_Score	| 4.7648
  Crash		| -1.2169
  Polar		| 1.0724
  FragIndex	| 1
  FragRMSD	| 0.841

