@<TRIPOS>MOLECULE
BindingDB_26517
 37 38 0 0 0
SMALL
NO_CHARGES


@<TRIPOS>ATOM
1    C        18.6690    9.4256   37.5198  C     
2    C        19.1936   11.6929   37.9769  C     
3    C        17.3917   10.6935   39.1289  C     
4    C        17.6100    9.4640   38.4653  C     
5    N        19.4240   10.5367   37.3075  N     
6    N        18.1828   11.7624   38.8737  N     
7    N        19.9506   12.7778   37.7646  N     
8    N        18.9874    8.3347   36.7996  N     
9    C        16.8278    8.4647   38.7694  C     
10   C        16.0621    7.6083   39.1392  C     
11   C        13.9954    7.1267   40.3474  C     
12   C        13.2754    6.1971   41.1516  C     
13   C        13.5911    8.4869   40.3767  C     
14   C        12.5281    8.9240   41.2035  C     
15   C        11.8654    7.9991   42.0278  C     
16   C        12.2366    6.6405   42.0011  C     
17   C        15.1845    6.6520   39.5681  C     
18   O        12.2091   10.2535   41.2676  O     
19   C        10.8074   10.5341   41.1100  C     
20   O        13.6218    4.8658   41.1355  O     
21   C        12.5311    3.9301   41.0645  C     
22   H        16.6273   10.8124   39.8013  H     
23   H        19.7650   13.5961   38.2534  H     
24   H        20.6784   12.7453   37.1231  H     
25   H        19.7265    8.3679   36.1723  H     
26   H        18.4842    7.5151   36.9035  H     
27   H        14.0764    9.1869   39.8131  H     
28   H        11.1042    8.3053   42.6412  H     
29   H        11.7431    5.9672   42.5910  H     
30   H        14.8558    6.1021   38.6820  H     
31   H        15.7357    5.9509   40.1961  H     
32   H        10.4034   10.0905   40.1937  H     
33   H        10.6901   11.6189   41.0449  H     
34   H        10.2353   10.1808   41.9732  H     
35   H        11.9889    3.9156   42.0121  H     
36   H        12.9427    2.9360   40.8657  H     
37   H        11.8271    4.1685   40.2658  H     
@<TRIPOS>BOND
     1    1    4 1
     2    1    5 2
     3    1    8 1
     4    2    5 1
     5    2    6 2
     6    2    7 1
     7    3    4 2
     8    3    6 1
     9    4    9 1
    10    9   10 3
    11   10   17 1
    12   11   12 2
    13   11   13 1
    14   11   17 1
    15   12   16 1
    16   12   20 1
    17   13   14 2
    18   14   15 1
    19   14   18 1
    20   15   16 2
    21   18   19 1
    22   20   21 1
    23    3   22 1
    24    7   23 1
    25    7   24 1
    26    8   25 1
    27    8   26 1
    28   13   27 1
    29   15   28 1
    30   16   29 1
    31   17   30 1
    32   17   31 1
    33   19   32 1
    34   19   33 1
    35   19   34 1
    36   21   35 1
    37   21   36 1
    38   21   37 1
@<TRIPOS>PROPERTY_DATA
  Total_Score	| 2.8448
  Crash		| -1.3818
  Polar		| 0.0048
  FragIndex	| 1
  FragRMSD	| 0.700

