@<TRIPOS>MOLECULE
BindingDB_50329608
 50 51 0 0 0
SMALL
NO_CHARGES


@<TRIPOS>ATOM
1    C        14.0803    5.7697   41.0326  C     
2    O        14.8603    6.8349   41.6067  O     
3    C        16.1840    6.7493   41.2608  C     
4    C        16.7296    7.6559   40.3319  C     
5    C        17.0106    5.7939   41.8933  C     
6    O        16.4542    5.0465   42.9000  O     
7    C        17.1186    3.8073   43.2171  C     
8    C        18.3896    5.7616   41.5833  C     
9    O        19.1947    4.9044   42.2801  O     
10   C        20.1039    4.1445   41.4670  C     
11   C        18.9182    6.6938   40.6603  C     
12   C        18.1042    7.6361   39.9664  C     
13   C        18.6621    8.5869   38.9131  C     
14   C        17.8107    8.6286   37.5950  C     
15   C        18.7973   10.0388   39.4795  C     
16   C        19.9258    8.1949   38.5300  C     
17   C        21.0097    7.7902   38.2522  C     
18   C        22.1801    7.2822   38.0159  C     
19   C        23.2519    8.0617   37.5096  C     
20   C        23.0886    9.4754   37.1000  C     
21   N        24.4765    7.4822   37.3833  N     
22   C        24.7011    6.1846   37.7098  C     
23   N        25.9074    5.6298   37.5555  N     
24   N        23.6881    5.4272   38.1896  N     
25   C        22.4431    5.9308   38.3588  C     
26   N        21.5060    5.0900   38.8396  N     
27   H        14.0793    5.8288   39.9403  H     
28   H        13.0496    5.8655   41.3788  H     
29   H        14.4549    4.7924   41.3479  H     
30   H        16.0962    8.3550   39.9341  H     
31   H        17.3458    3.2193   42.3241  H     
32   H        16.4585    3.2123   43.8554  H     
33   H        18.0356    4.0137   43.7772  H     
34   H        19.5951    3.6278   40.6463  H     
35   H        20.5672    3.3985   42.1118  H     
36   H        20.8917    4.7849   41.0726  H     
37   H        19.9271    6.6765   40.5176  H     
38   H        17.6879    7.6143   37.1920  H     
39   H        18.2930    9.2522   36.8383  H     
40   H        16.8210    9.0499   37.7666  H     
41   H        17.8129   10.4656   39.6776  H     
42   H        19.2936   10.7093   38.7714  H     
43   H        19.3703   10.0471   40.4075  H     
44   H        22.3715    9.5515   36.2801  H     
45   H        24.0323    9.8951   36.7619  H     
46   H        22.7313   10.0799   37.9351  H     
47   H        26.0392    4.6984   37.8011  H     
48   H        26.6591    6.1509   37.2218  H     
49   H        21.7365    4.1741   39.0582  H     
50   H        20.5916    5.3955   38.9614  H     
@<TRIPOS>BOND
     1    1    2 1
     2    2    3 1
     3    3    4 2
     4    3    5 1
     5    4   12 1
     6    5    6 1
     7    5    8 2
     8    6    7 1
     9    8    9 1
    10    8   11 1
    11    9   10 1
    12   11   12 2
    13   12   13 1
    14   13   14 1
    15   13   15 1
    16   13   16 1
    17   16   17 3
    18   17   18 1
    19   18   19 2
    20   18   25 1
    21   19   20 1
    22   19   21 1
    23   21   22 2
    24   22   23 1
    25   22   24 1
    26   24   25 2
    27   25   26 1
    28    1   27 1
    29    1   28 1
    30    1   29 1
    31    4   30 1
    32    7   31 1
    33    7   32 1
    34    7   33 1
    35   10   34 1
    36   10   35 1
    37   10   36 1
    38   11   37 1
    39   14   38 1
    40   14   39 1
    41   14   40 1
    42   15   41 1
    43   15   42 1
    44   15   43 1
    45   20   44 1
    46   20   45 1
    47   20   46 1
    48   23   47 1
    49   23   48 1
    50   26   49 1
    51   26   50 1
@<TRIPOS>PROPERTY_DATA
  Total_Score	| 2.6270
  Crash		| -3.4200
  Polar		| 0.0095
  FragIndex	| 1
  FragRMSD	| 1.010

