@<TRIPOS>MOLECULE
BindingDB_18489
 41 42 0 0 0
SMALL
NO_CHARGES


@<TRIPOS>ATOM
1    C        18.3731    7.0212   46.6528  C     
2    C        18.3399    6.0075   48.8025  C     
3    C        16.5698    5.5529   47.2976  C     
4    C        17.1626    6.3704   46.3112  C     
5    N        18.9161    6.8193   47.8821  N     
6    N        17.1729    5.3862   48.4995  N     
7    N        19.0446    7.8371   45.8199  N     
8    N        18.9301    5.8080   49.9893  N     
9    C        16.6374    6.4174   45.1167  C     
10   C        16.1301    6.3812   44.0343  C     
11   C        15.5393    6.2425   42.8042  C     
12   C        16.4531    6.5021   41.6570  C     
13   C        15.9932    7.1798   40.5046  C     
14   C        17.7784    6.0205   41.6491  C     
15   C        18.6372    6.2571   40.5582  C     
16   C        18.1907    6.9911   39.4312  C     
17   C        16.8471    7.4512   39.4055  C     
18   O        16.3434    8.0627   38.2814  O     
19   C        15.5310    9.2282   38.5067  C     
20   O        19.1393    7.1303   38.4337  O     
21   C        18.8707    7.8481   37.2200  C     
22   O        19.9307    5.8079   40.6477  O     
23   C        20.0561    4.3886   40.8064  C     
24   H        15.6969    5.0436   47.1164  H     
25   H        19.8722    8.2566   46.1182  H     
26   H        18.7166    8.0077   44.9239  H     
27   H        18.5186    5.2281   50.6493  H     
28   H        19.7738    6.2416   50.1867  H     
29   H        15.1669    5.2169   42.7295  H     
30   H        14.6733    6.9126   42.7799  H     
31   H        15.0187    7.4786   40.4535  H     
32   H        18.1416    5.5023   42.4538  H     
33   H        14.5922    8.9680   39.0047  H     
34   H        15.2865    9.6629   37.5380  H     
35   H        16.0497    9.9783   39.1070  H     
36   H        18.2736    7.2383   36.5437  H     
37   H        19.8275    8.0514   36.7368  H     
38   H        18.3782    8.8017   37.4130  H     
39   H        19.6093    4.0426   41.7482  H     
40   H        21.1188    4.1424   40.8342  H     
41   H        19.6055    3.8505   39.9678  H     
@<TRIPOS>BOND
     1    1    4 2
     2    1    5 1
     3    1    7 1
     4    2    5 2
     5    2    6 1
     6    2    8 1
     7    3    4 1
     8    3    6 2
     9    4    9 1
    10    9   10 3
    11   10   11 1
    12   11   12 1
    13   12   13 1
    14   12   14 2
    15   13   17 2
    16   14   15 1
    17   15   16 2
    18   15   22 1
    19   16   17 1
    20   16   20 1
    21   17   18 1
    22   18   19 1
    23   20   21 1
    24   22   23 1
    25    3   24 1
    26    7   25 1
    27    7   26 1
    28    8   27 1
    29    8   28 1
    30   11   29 1
    31   11   30 1
    32   13   31 1
    33   14   32 1
    34   19   33 1
    35   19   34 1
    36   19   35 1
    37   21   36 1
    38   21   37 1
    39   21   38 1
    40   23   39 1
    41   23   40 1
    42   23   41 1
@<TRIPOS>PROPERTY_DATA
  Total_Score	| 4.4888
  Crash		| -0.9103
  Polar		| 1.1386
  FragIndex	| 1
  FragRMSD	| 0.851

