@<TRIPOS>MOLECULE
BindingDB_18496
 48 49 0 0 0
SMALL
NO_CHARGES


@<TRIPOS>ATOM
1    C        19.3647   12.0610   39.1916  C     
2    C        20.2061   13.7598   37.7686  C     
3    C        19.6785   11.6337   36.8332  C     
4    C        19.2033   11.1897   38.0917  C     
5    N        19.8568   13.3123   38.9959  N     
6    N        20.1505   12.9070   36.7189  N     
7    N        19.0633   11.6991   40.4514  N     
8    N        20.6049   15.0293   37.5958  N     
9    C        18.5095   10.0889   38.2037  C     
10   C        17.8218    9.1148   38.2634  C     
11   C        17.0225    8.0047   38.3144  C     
12   C        17.2421    7.2617   39.5938  C     
13   C        16.2221    7.0542   40.5448  C     
14   C        18.5163    6.7173   39.8788  C     
15   C        18.7519    5.9525   41.0375  C     
16   C        17.6908    5.6944   41.9341  C     
17   C        16.4184    6.2471   41.6834  C     
18   O        15.3951    6.0457   42.5781  O     
19   C        14.2803    5.3073   42.0437  C     
20   O        17.9175    5.0314   43.1097  O     
21   C        17.8543    3.6000   43.0021  C     
22   O        20.0111    5.5226   41.3498  O     
23   C        20.5183    4.4775   40.5050  C     
24   O        15.6583    8.2644   37.8774  O     
25   C        14.8447    9.3704   38.3379  C     
26   C        19.7177   10.7583   35.6373  C     
27   H        19.1675   12.3357   41.1648  H     
28   H        18.7349   10.8050   40.6387  H     
29   H        20.8260   15.3541   36.7076  H     
30   H        20.6325   15.6421   38.3508  H     
31   H        17.3888    7.3492   37.5207  H     
32   H        15.3286    7.5118   40.4352  H     
33   H        19.2914    6.8928   39.2360  H     
34   H        13.7380    5.8943   41.3016  H     
35   H        13.5944    5.0844   42.8628  H     
36   H        14.5907    4.3636   41.5939  H     
37   H        16.8761    3.2624   42.6622  H     
38   H        18.0355    3.1788   43.9900  H     
39   H        18.6202    3.2197   42.3271  H     
40   H        19.8312    3.6336   40.4476  H     
41   H        21.4612    4.1327   40.9291  H     
42   H        20.7146    4.8425   39.4936  H     
43   H        14.2091    9.0621   39.1787  H     
44   H        14.1671    9.6557   37.5254  H     
45   H        15.4431   10.2449   38.6091  H     
46   H        20.5016   10.0102   35.7724  H     
47   H        19.9218   11.3243   34.7306  H     
48   H        18.7684   10.2507   35.5029  H     
@<TRIPOS>BOND
     1    1    4 2
     2    1    5 1
     3    1    7 1
     4    2    5 2
     5    2    6 1
     6    2    8 1
     7    3    4 1
     8    3    6 2
     9    3   26 1
    10    4    9 1
    11    9   10 3
    12   10   11 1
    13   11   12 1
    14   11   24 1
    15   12   13 1
    16   12   14 2
    17   13   17 2
    18   14   15 1
    19   15   16 2
    20   15   22 1
    21   16   17 1
    22   16   20 1
    23   17   18 1
    24   18   19 1
    25   20   21 1
    26   22   23 1
    27   24   25 1
    28    7   27 1
    29    7   28 1
    30    8   29 1
    31    8   30 1
    32   11   31 1
    33   13   32 1
    34   14   33 1
    35   19   34 1
    36   19   35 1
    37   19   36 1
    38   21   37 1
    39   21   38 1
    40   21   39 1
    41   23   40 1
    42   23   41 1
    43   23   42 1
    44   25   43 1
    45   25   44 1
    46   25   45 1
    47   26   46 1
    48   26   47 1
    49   26   48 1
@<TRIPOS>PROPERTY_DATA
  Total_Score	| 3.7906
  Crash		| -4.8798
  Polar		| 1.4878
  FragIndex	| 1
  FragRMSD	| 0.341

