@<TRIPOS>MOLECULE
BindingDB_18069
 39 40 0 0 0
SMALL
NO_CHARGES


@<TRIPOS>ATOM
1    C        18.9245    9.7699   37.2710  C     
2    C        18.9527   11.8079   38.4891  C     
3    C        17.3448   10.1704   39.0434  C     
4    C        17.8570    9.2764   38.0752  C     
5    N        19.4337   11.0095   37.5067  N     
6    N        17.9031   11.3883   39.2455  N     
7    N        19.4923    9.0836   36.2660  N     
8    N        19.4804   13.0171   38.7171  N     
9    C        17.2421    7.9304   37.9442  C     
10   C        17.3504    7.1662   39.2072  C     
11   C        16.2232    6.9783   40.0361  C     
12   C        16.3129    6.2941   41.2633  C     
13   C        17.5861    5.8462   41.7165  C     
14   O        15.2027    6.1757   42.0601  O     
15   C        14.2230    5.2115   41.6146  C     
16   O        17.8307    5.3749   42.9945  O     
17   C        17.5630    3.9765   43.2117  C     
18   C        18.7103    5.9763   40.8657  C     
19   C        18.5950    6.6530   39.6296  C     
20   O        19.9432    5.5253   41.2668  O     
21   C        20.4062    4.3971   40.5104  C     
22   H        16.5476    9.9115   39.6297  H     
23   H        20.1958    9.4928   35.7404  H     
24   H        19.1962    8.1945   36.0409  H     
25   H        19.1349   13.5632   39.4414  H     
26   H        20.2296   13.3278   38.1862  H     
27   H        16.1976    8.0661   37.6616  H     
28   H        17.6970    7.3430   37.1500  H     
29   H        15.3185    7.3652   39.7691  H     
30   H        13.7677    5.5002   40.6634  H     
31   H        13.4260    5.1420   42.3542  H     
32   H        14.6756    4.2271   41.5122  H     
33   H        16.4751    3.8071   43.2229  H     
34   H        17.9562    3.7025   44.1944  H     
35   H        18.0426    3.3496   42.4514  H     
36   H        19.4227    6.7702   39.0402  H     
37   H        19.7380    3.5376   40.6150  H     
38   H        21.3824    4.1137   40.8909  H     
39   H        20.5113    4.6380   39.4484  H     
@<TRIPOS>BOND
     1    1    4 2
     2    1    5 1
     3    1    7 1
     4    2    5 2
     5    2    6 1
     6    2    8 1
     7    3    4 1
     8    3    6 2
     9    4    9 1
    10    9   10 1
    11   10   11 2
    12   10   19 1
    13   11   12 1
    14   12   13 2
    15   12   14 1
    16   13   16 1
    17   13   18 1
    18   14   15 1
    19   16   17 1
    20   18   19 2
    21   18   20 1
    22   20   21 1
    23    3   22 1
    24    7   23 1
    25    7   24 1
    26    8   25 1
    27    8   26 1
    28    9   27 1
    29    9   28 1
    30   11   29 1
    31   15   30 1
    32   15   31 1
    33   15   32 1
    34   17   33 1
    35   17   34 1
    36   17   35 1
    37   19   36 1
    38   21   37 1
    39   21   38 1
    40   21   39 1
@<TRIPOS>PROPERTY_DATA
  Total_Score	| 5.1546
  Crash		| -1.2548
  Polar		| 1.4456
  FragIndex	| 1
  FragRMSD	| 0.086

