@<TRIPOS>MOLECULE
BindingDB_18493
 42 43 0 0 0
SMALL
NO_CHARGES


@<TRIPOS>ATOM
1    C        18.6034    9.4168   37.6110  C     
2    C        19.2166   11.6899   37.9557  C     
3    C        17.3911   10.7976   39.1726  C     
4    C        17.5737    9.5209   38.5834  C     
5    N        19.3974   10.4918   37.3381  N     
6    N        18.2243   11.8221   38.8558  N     
7    N        18.8719    8.2856   36.9368  N     
8    N        20.0143   12.7357   37.6978  N     
9    C        16.7853    8.5412   38.9673  C     
10   C        16.0420    7.6840   39.3623  C     
11   C        15.1802    6.7064   39.8143  C     
12   C        13.9208    7.1084   40.5350  C     
13   C        13.0477    6.0867   40.9970  C     
14   C        13.5121    8.4568   40.7768  C     
15   C        12.2621    8.7640   41.3492  C     
16   C        11.3666    7.7188   41.6746  C     
17   C        11.8045    6.3786   41.5836  C     
18   O        10.9594    5.3785   41.9710  O     
19   C        11.4148    4.7067   43.1600  C     
20   O        10.1041    8.0195   42.1154  O     
21   C         9.2853    8.6188   41.0978  C     
22   O        11.9080   10.0819   41.5109  O     
23   C        11.6392   10.4888   42.8800  C     
24   O        14.8422    5.9763   38.6441  O     
25   H        16.6233   10.9914   39.8231  H     
26   H        19.6004    8.2774   36.2939  H     
27   H        18.3232    7.4921   37.0613  H     
28   H        19.8864   13.5801   38.1735  H     
29   H        20.7375   12.6301   37.0615  H     
30   H        15.7436    6.0351   40.4541  H     
31   H        13.3035    5.1043   40.8786  H     
32   H        14.1107    9.2417   40.4800  H     
33   H        12.3346    4.1530   42.9451  H     
34   H        10.6390    4.0132   43.4878  H     
35   H        11.6015    5.3963   43.9918  H     
36   H         9.7101    9.5659   40.7242  H     
37   H         8.3156    8.8240   41.5385  H     
38   H         9.1448    7.9369   40.2468  H     
39   H        10.6471   10.1756   43.2000  H     
40   H        11.6579   11.5867   42.9034  H     
41   H        12.3799   10.1177   43.5947  H     
42   H        13.8941    5.7638   38.7240  H     
@<TRIPOS>BOND
     1    1    4 2
     2    1    5 1
     3    1    7 1
     4    2    5 2
     5    2    6 1
     6    2    8 1
     7    3    4 1
     8    3    6 2
     9    4    9 1
    10    9   10 3
    11   10   11 1
    12   11   12 1
    13   11   24 1
    14   12   13 1
    15   12   14 2
    16   13   17 2
    17   14   15 1
    18   15   16 2
    19   15   22 1
    20   16   17 1
    21   16   20 1
    22   17   18 1
    23   18   19 1
    24   20   21 1
    25   22   23 1
    26    3   25 1
    27    7   26 1
    28    7   27 1
    29    8   28 1
    30    8   29 1
    31   11   30 1
    32   13   31 1
    33   14   32 1
    34   19   33 1
    35   19   34 1
    36   19   35 1
    37   21   36 1
    38   21   37 1
    39   21   38 1
    40   23   39 1
    41   23   40 1
    42   23   41 1
    43   24   42 1
@<TRIPOS>PROPERTY_DATA
  Total_Score	| 4.0079
  Crash		| -1.7709
  Polar		| 1.5707
  FragIndex	| 1
  FragRMSD	| 0.792

