@<TRIPOS>MOLECULE
BindingDB_50157950
 41 42 0 0 0
SMALL
NO_CHARGES


@<TRIPOS>ATOM
1    C        -5.5123    2.5202   15.6142  C     
2    S        -5.8312    1.2008   16.6444  S     
3    S        -6.5916    3.8245   15.4833  S     
4    C        -5.5278    4.3734   14.2432  C     
5    N        -4.4945    2.5611   14.8348  N     
6    N        -4.4659    3.5612   14.0740  N     
7    N        -5.8528    5.4924   13.5521  N     
8    C        -5.1939    6.0494   12.5479  C     
9    N        -6.3382    8.3222    9.6526  N     
10   N        -7.6125    7.6562    7.0334  N     
11   O        -5.8178   -0.1556   15.8214  O     
12   O        -4.6869    1.1783   17.7505  O     
13   C        -5.7279    7.2401   11.8902  C     
14   N        -7.3100    1.2924   17.4275  N     
15   O        -4.1124    5.6013   12.1693  O     
16   C        -5.6640    7.1606   10.3292  C     
17   C        -5.7192    8.7212    8.3412  C     
18   C        -7.8313    8.1849    9.5170  C     
19   C        -6.1270    7.7768    7.1769  C     
20   C        -8.2611    7.2750    8.3286  C     
21   C        -8.2560    8.8296    6.3657  C     
22   H        -6.6812    5.9368   13.8246  H     
23   H        -6.1842    9.1278   10.2653  H     
24   H        -7.7764    6.8776    6.3859  H     
25   H        -6.7626    7.4061   12.2048  H     
26   H        -5.1367    8.1127   12.2130  H     
27   H        -7.4580    0.7798   18.2431  H     
28   H        -7.9538    1.9813   17.1723  H     
29   H        -6.0879    6.2124    9.9744  H     
30   H        -4.5913    7.1512   10.0659  H     
31   H        -6.0387    9.7428    8.0975  H     
32   H        -4.6293    8.7537    8.4097  H     
33   H        -8.2710    7.7988   10.4330  H     
34   H        -8.2526    9.1847    9.3706  H     
35   H        -5.7206    6.7791    7.3707  H     
36   H        -5.6831    8.1281    6.2407  H     
37   H        -9.3541    7.3025    8.2463  H     
38   H        -7.9943    6.2374    8.5581  H     
39   H        -9.3163    8.6258    6.1858  H     
40   H        -7.7889    9.0093    5.3941  H     
41   H        -8.1747    9.7385    6.9671  H     
@<TRIPOS>BOND
     1    1    2 1
     2    1    3 1
     3    1    5 2
     4    2   11 2
     5    2   12 2
     6    2   14 am
     7    3    4 1
     8    4    6 2
     9    4    7 1
    10    5    6 1
    11    7    8 am
    12    8   13 1
    13    8   15 2
    14    9   16 1
    15    9   17 1
    16    9   18 1
    17   10   19 1
    18   10   20 1
    19   10   21 1
    20   13   16 1
    21   17   19 1
    22   18   20 1
    23    7   22 1
    24    9   23 1
    25   10   24 1
    26   13   25 1
    27   13   26 1
    28   14   27 1
    29   14   28 1
    30   16   29 1
    31   16   30 1
    32   17   31 1
    33   17   32 1
    34   18   33 1
    35   18   34 1
    36   19   35 1
    37   19   36 1
    38   20   37 1
    39   20   38 1
    40   21   39 1
    41   21   40 1
    42   21   41 1
@<TRIPOS>PROPERTY_DATA
  Total_Score	| 6.6036
  Crash		| -0.9062
  Polar		| 3.9442
  FragIndex	| 1
  FragRMSD	| 1.459

