@<TRIPOS>MOLECULE
BindingDB_11048
 44 45 0 0 0
SMALL
NO_CHARGES


@<TRIPOS>ATOM
1    C        -5.2906    2.3235   15.5281  C     
2    C        -4.9535    4.0796   14.0788  C     
3    N        -4.1018    2.3379   15.0516  N     
4    N        -3.8904    3.2858   14.2616  N     
5    S        -6.3285    3.5728   15.0093  S     
6    N        -7.3672    1.3212   17.1818  N     
7    S        -5.7837    1.1337   16.6489  S     
8    O        -5.7476   -0.2570   15.8683  O     
9    O        -4.7839    1.0873   17.8812  O     
10   N        -4.8342    5.1575   13.2668  N     
11   C        -5.7461    6.0718   12.9463  C     
12   C        -5.2995    7.2121   12.1529  C     
13   O        -6.9057    5.9990   13.3386  O     
14   C        -6.3521    8.2990   11.7674  C     
15   S        -7.2335    7.9907   10.2174  S     
16   S        -6.1453    8.9989    8.7667  S     
17   C        -6.1581   10.7515    9.2778  C     
18   C        -4.7181   11.3544    9.2465  C     
19   C        -3.8126   10.6998   10.1818  C     
20   O        -3.2303    9.6783    9.8325  O     
21   N        -3.6372   11.2462   11.3830  N     
22   C        -2.8689   10.8202   12.4106  C     
23   S        -1.8888    9.3931   12.5192  S     
24   N        -2.8255   11.5531   13.5367  N     
25   N        -2.0700   11.0796   14.4203  N     
26   C        -1.4980    9.9898   14.0729  C     
27   N        -1.1564    8.0199   16.0045  N     
28   S        -0.3746    9.1893   15.0777  S     
29   O         0.7198    8.4997   14.1431  O     
30   O         0.3217   10.2588   16.0316  O     
31   H        -7.8923    0.5351   17.4103  H     
32   H        -7.7860    2.2033   17.1571  H     
33   H        -3.9492    5.2914   12.8760  H     
34   H        -4.5228    7.7178   12.7405  H     
35   H        -4.8192    6.8359   11.2422  H     
36   H        -7.0997    8.3938   12.5629  H     
37   H        -5.8492    9.2626   11.6769  H     
38   H        -6.7808   11.3106    8.5673  H     
39   H        -6.5911   10.8671   10.2697  H     
40   H        -4.3312   11.2986    8.2299  H     
41   H        -4.7687   12.4183    9.5128  H     
42   H        -4.1153   12.0810   11.5416  H     
43   H        -0.6573    7.5171   16.6691  H     
44   H        -2.1062    7.8473   15.8705  H     
@<TRIPOS>BOND
     1    1    3 2
     2    1    5 1
     3    1    7 1
     4    2    4 2
     5    2    5 1
     6    2   10 1
     7    3    4 1
     8    6    7 am
     9    7    8 2
    10    7    9 2
    11   10   11 am
    12   11   12 1
    13   11   13 2
    14   12   14 1
    15   14   15 1
    16   15   16 1
    17   16   17 1
    18   17   18 1
    19   18   19 1
    20   19   20 2
    21   19   21 am
    22   21   22 1
    23   22   23 1
    24   22   24 2
    25   23   26 1
    26   24   25 1
    27   25   26 2
    28   26   28 1
    29   27   28 am
    30   28   29 2
    31   28   30 2
    32    6   31 1
    33    6   32 1
    34   10   33 1
    35   12   34 1
    36   12   35 1
    37   14   36 1
    38   14   37 1
    39   17   38 1
    40   17   39 1
    41   18   40 1
    42   18   41 1
    43   21   42 1
    44   27   43 1
    45   27   44 1
@<TRIPOS>PROPERTY_DATA
  Total_Score	| 5.9679
  Crash		| -1.4276
  Polar		| 3.8047
  FragIndex	| 1
  FragRMSD	| 1.048

