@<TRIPOS>MOLECULE
BindingDB_10880
 19 19 0 0 0
SMALL
NO_CHARGES


@<TRIPOS>ATOM
1    C        -5.3395    2.4125   15.5374  C     
2    C        -5.0469    4.1905   14.0881  C     
3    S        -6.3705    3.6794   15.0902  S     
4    N        -3.9937    3.3668   14.2008  N     
5    N        -4.1861    2.4159   14.9918  N     
6    N        -7.3519    1.4290   17.2919  N     
7    S        -5.8235    1.2152   16.6386  S     
8    O        -5.8194   -0.1746   15.8721  O     
9    O        -4.7587    1.1847   17.8180  O     
10   N        -4.9946    5.2624   13.2654  N     
11   C        -5.9372    6.1716   13.0395  C     
12   C        -5.6446    7.2279   12.1060  C     
13   O        -7.0331    6.1504   13.5833  O     
14   H        -7.6734    0.8180   17.9783  H     
15   H        -7.8706    2.2162   17.0676  H     
16   H        -4.1665    5.3856   12.7777  H     
17   H        -4.7716    7.7869   12.4471  H     
18   H        -6.4827    7.9205   12.0090  H     
19   H        -5.4321    6.7994   11.1250  H     
@<TRIPOS>BOND
     1    1    3 1
     2    1    5 2
     3    1    7 1
     4    2    3 1
     5    2    4 2
     6    2   10 1
     7    4    5 1
     8    6    7 am
     9    7    8 2
    10    7    9 2
    11   10   11 am
    12   11   12 1
    13   11   13 2
    14    6   14 1
    15    6   15 1
    16   10   16 1
    17   12   17 1
    18   12   18 1
    19   12   19 1
@<TRIPOS>PROPERTY_DATA
  Total_Score	| 4.5820
  Crash		| -0.4429
  Polar		| 3.8753
  FragIndex	| 1
  FragRMSD	| 1.058

