@<TRIPOS>MOLECULE
BindingDB_15700
 40 42 0 0 0
SMALL
NO_CHARGES


@<TRIPOS>ATOM
1    C        42.9939   55.2130   58.9521  C     
2    C        44.3205   54.9433   59.3274  C     
3    C        44.6397   53.7105   59.9166  C     
4    C        43.6342   52.7524   60.1336  C     
5    C        42.2899   52.9968   59.7567  C     
6    C        41.9919   54.2476   59.1622  C     
7    C        39.9723   52.4071   60.3994  C     
8    C        41.4552   50.7386   60.0091  C     
9    C        40.2969   50.0203   60.4681  C     
10   C        39.1963   51.0735   60.2734  C     
11   N        41.3016   52.0566   59.9972  N     
12   O        42.4675   50.1382   59.6694  O     
13   C        37.9908   50.9037   61.0799  C     
14   O        37.0386   50.3427   60.5472  O     
15   N        37.8579   51.4574   62.2841  N     
16   C        36.6533   51.7084   62.8864  C     
17   C        35.6280   50.7424   63.1092  C     
18   C        34.3402   51.1928   63.5174  C     
19   C        34.1033   52.5616   63.7445  C     
20   C        35.1453   53.4906   63.6193  C     
21   C        36.4125   53.0637   63.1987  C     
22   Cl       33.0146   50.1531   63.7305  Cl    
23   C        35.8879   49.2851   62.9521  C     
24   Br       45.6584   56.2063   59.0549  Br    
25   H        42.7538   56.1081   58.5245  H     
26   H        45.6019   53.5096   60.1946  H     
27   H        43.8911   51.8752   60.5890  H     
28   H        41.0426   54.4641   58.8553  H     
29   H        39.5132   53.1616   59.7574  H     
30   H        40.0038   52.7888   61.4237  H     
31   H        40.1021   49.1315   59.8638  H     
32   H        40.4225   49.7384   61.5160  H     
33   H        38.9023   50.9990   59.2169  H     
34   H        38.6144   51.9660   62.6121  H     
35   H        33.1691   52.8910   64.0013  H     
36   H        34.9707   54.4829   63.7927  H     
37   H        37.1474   53.7617   63.0663  H     
38   H        36.9253   49.0645   62.6919  H     
39   H        35.2462   48.8729   62.1697  H     
40   H        35.6769   48.7769   63.8949  H     
@<TRIPOS>BOND
     1    1    2 2
     2    1    6 1
     3    2    3 1
     4    2   24 1
     5    3    4 2
     6    4    5 1
     7    5    6 2
     8    5   11 1
     9    7   10 1
    10    7   11 1
    11    8    9 1
    12    8   11 1
    13    8   12 2
    14    9   10 1
    15   10   13 1
    16   13   14 2
    17   13   15 am
    18   15   16 1
    19   16   17 2
    20   16   21 1
    21   17   18 1
    22   17   23 1
    23   18   19 2
    24   18   22 1
    25   19   20 1
    26   20   21 2
    27    1   25 1
    28    3   26 1
    29    4   27 1
    30    6   28 1
    31    7   29 1
    32    7   30 1
    33    9   31 1
    34    9   32 1
    35   10   33 1
    36   15   34 1
    37   19   35 1
    38   20   36 1
    39   21   37 1
    40   23   38 1
    41   23   39 1
    42   23   40 1
@<TRIPOS>PROPERTY_DATA
  Total_Score	| 2.1457
  Crash		| -1.7401
  Polar		| 0.8073
  FragIndex	| 1
  FragRMSD	| 1.250

