@<TRIPOS>MOLECULE
BindingDB_50292718
 41 43 0 0 0
SMALL
NO_CHARGES


@<TRIPOS>ATOM
1    C        35.7601   -4.1037   13.7125  C     
2    C        36.4483   -2.9744   13.4554  C     
3    N        36.0927   -2.1308   12.4364  N     
4    C        35.0230   -2.4653   11.6791  C     
5    N        34.3522   -3.5907   11.9259  N     
6    C        34.6962   -4.4056   12.9194  C     
7    O        34.0497   -5.4274   13.0981  O     
8    O        34.6089   -1.7924   10.7446  O     
9    C        36.8887   -0.9368   12.1842  C     
10   O        38.2758   -1.2656   12.0137  O     
11   C        39.0760   -0.1334   12.4026  C     
12   C        38.1295    0.9238   13.0296  C     
13   C        36.8627    0.1100   13.3186  C     
14   O        35.6825    0.9074   13.3256  O     
15   O        37.8717    1.9790   12.1010  O     
16   C        40.1895   -0.6096   13.3759  C     
17   N        41.0869   -1.6578   12.8009  N     
18   C        41.9964   -2.3054   13.7855  C     
19   C        43.2801   -2.7047   13.0270  C     
20   C        42.9949   -2.3434   11.5630  C     
21   C        41.9453   -1.2314   11.6692  C     
22   H        36.0300   -4.7031   14.4594  H     
23   H        37.2362   -2.7707   14.0278  H     
24   H        33.5999   -3.8266   11.3589  H     
25   H        36.5779   -0.4344   11.2592  H     
26   H        39.5435    0.2799   11.5046  H     
27   H        38.5235    1.3652   13.9499  H     
28   H        36.9644   -0.3680   14.2971  H     
29   H        35.0349    0.3821   13.8367  H     
30   H        38.5843    2.6337   12.2561  H     
31   H        40.7847    0.2543   13.6876  H     
32   H        39.7032   -1.0185   14.2674  H     
33   H        40.4824   -2.3995   12.4406  H     
34   H        42.2562   -1.6373   14.6113  H     
35   H        41.5066   -3.1909   14.1988  H     
36   H        44.1284   -2.1240   13.3947  H     
37   H        43.5076   -3.7689   13.1366  H     
38   H        43.8942   -2.0105   11.0375  H     
39   H        42.5681   -3.2049   11.0407  H     
40   H        41.3747   -1.1571   10.7408  H     
41   H        42.4342   -0.2730   11.8712  H     
@<TRIPOS>BOND
     1    1    2 2
     2    1    6 1
     3    2    3 1
     4    3    4 1
     5    9    3 1
     6    4    5 1
     7    4    8 2
     8    5    6 1
     9    6    7 2
    10    9   10 1
    11    9   13 1
    12   10   11 1
    13   11   12 1
    14   11   16 1
    15   12   13 1
    16   12   15 1
    17   13   14 1
    18   16   17 1
    19   17   18 1
    20   17   21 1
    21   18   19 1
    22   19   20 1
    23   20   21 1
    24    1   22 1
    25    2   23 1
    26    5   24 1
    27    9   25 1
    28   11   26 1
    29   12   27 1
    30   13   28 1
    31   14   29 1
    32   15   30 1
    33   16   31 1
    34   16   32 1
    35   17   33 1
    36   18   34 1
    37   18   35 1
    38   19   36 1
    39   19   37 1
    40   20   38 1
    41   20   39 1
    42   21   40 1
    43   21   41 1
@<TRIPOS>PROPERTY_DATA
  Total_Score	| 4.6566
  Crash		| -0.3978
  Polar		| 4.2820
  FragIndex	| 1
  FragRMSD	| 0.410

