@<TRIPOS>MOLECULE
BindingDB_50342008
 48 50 0 0 0
SMALL
NO_CHARGES


@<TRIPOS>ATOM
1    C        37.5648    0.7188   13.4250  C     
2    C        36.3192    0.2917   12.6371  C     
3    C        36.8222   -0.8839   11.7620  C     
4    O        38.2569   -0.9469   11.9006  O     
5    C        38.6930    0.2985   12.4585  C     
6    N        36.1690   -2.1411   12.1050  N     
7    O        37.6213    0.0318   14.6746  O     
8    C        40.1279    0.2595   13.0548  C     
9    N        40.5823   -1.0115   13.7280  N     
10   C        40.6598   -2.2281   12.8528  C     
11   C        41.8282   -2.1860   11.8250  C     
12   C        43.1942   -1.8850   12.5142  C     
13   C        43.1001   -0.7081   13.5318  C     
14   C        41.8751   -0.8555   14.4734  C     
15   C        44.2582   -1.6191   11.5133  C     
16   O        45.1705   -2.5692   11.2074  O     
17   O        44.4188   -0.3841   10.9776  O     
18   C        36.7016   -2.9608   13.0616  C     
19   C        36.1158   -4.1256   13.4283  C     
20   C        34.9285   -4.4475   12.8073  C     
21   N        34.4029   -3.6357   11.8971  N     
22   C        34.9922   -2.4965   11.5501  C     
23   O        34.3991   -1.8145   10.7266  O     
24   O        34.3030   -5.4689   13.0543  O     
25   C        36.7503   -4.9707   14.4357  C     
26   H        37.5716    1.7974   13.6135  H     
27   H        35.4945    0.0070   13.2949  H     
28   H        35.9840    1.1210   12.0067  H     
29   H        36.6507   -0.6312   10.7095  H     
30   H        38.7220    1.0277   11.6382  H     
31   H        36.6968    0.0032   15.0025  H     
32   H        40.8234    0.5231   12.2558  H     
33   H        40.1659    1.0860   13.7707  H     
34   H        39.8798   -1.2188   14.4403  H     
35   H        40.7948   -3.1075   13.4894  H     
36   H        39.7182   -2.3876   12.3319  H     
37   H        41.8816   -3.1515   11.3147  H     
38   H        41.6131   -1.4333   11.0640  H     
39   H        43.4756   -2.7796   13.0814  H     
40   H        44.0128   -0.6745   14.1341  H     
41   H        43.0174    0.2486   13.0093  H     
42   H        41.8281    0.0074   15.1423  H     
43   H        42.0263   -1.7276   15.1163  H     
44   H        37.5485   -2.6962   13.5135  H     
45   H        33.5709   -3.8829   11.4634  H     
46   H        37.7457   -5.2675   14.0960  H     
47   H        36.1830   -5.8804   14.6401  H     
48   H        36.8527   -4.4189   15.3735  H     
@<TRIPOS>BOND
     1    1    2 1
     2    1    5 1
     3    1    7 1
     4    2    3 1
     5    3    4 1
     6    3    6 1
     7    4    5 1
     8    5    8 1
     9    6   18 1
    10    6   22 1
    11    8    9 1
    12    9   10 1
    13    9   14 1
    14   10   11 1
    15   11   12 1
    16   12   13 1
    17   12   15 1
    18   13   14 1
    19   15   16 1
    20   15   17 2
    21   18   19 2
    22   19   20 1
    23   19   25 1
    24   20   21 1
    25   20   24 2
    26   21   22 1
    27   22   23 2
    28    1   26 1
    29    2   27 1
    30    2   28 1
    31    3   29 1
    32    5   30 1
    33    7   31 1
    34    8   32 1
    35    8   33 1
    36    9   34 1
    37   10   35 1
    38   10   36 1
    39   11   37 1
    40   11   38 1
    41   12   39 1
    42   13   40 1
    43   13   41 1
    44   14   42 1
    45   14   43 1
    46   18   44 1
    47   21   45 1
    48   25   46 1
    49   25   47 1
    50   25   48 1
@<TRIPOS>PROPERTY_DATA
  Total_Score	| 6.3205
  Crash		| -0.8843
  Polar		| 5.2949
  FragIndex	| 1
  FragRMSD	| 1.108

