@<TRIPOS>MOLECULE
BindingDB_50292717
 46 48 0 0 0
SMALL
NO_CHARGES


@<TRIPOS>ATOM
1    C        36.0177   -4.2700   13.4329  C     
2    C        36.5519   -3.0464   13.2113  C     
3    N        36.0268   -2.1721   12.3000  N     
4    C        34.9120   -2.5373   11.6375  C     
5    N        34.3626   -3.7266   11.8544  N     
6    C        34.8830   -4.5922   12.7231  C     
7    O        34.3097   -5.6644   12.8441  O     
8    O        34.3442   -1.8237   10.8198  O     
9    C        36.6625   -0.8825   12.0862  C     
10   O        38.0963   -0.9602   12.0503  O     
11   C        38.6514    0.2862   12.4967  C     
12   C        37.4720    1.1415   13.0442  C     
13   C        36.3402    0.1211   13.2041  C     
14   O        37.1011    2.1589   12.1131  O     
15   C        39.7850    0.0305   13.5393  C     
16   N        40.9014   -0.9098   13.1845  N     
17   C        41.6442   -0.5603   11.9334  C     
18   C        42.9412   -1.4008   11.8062  C     
19   C        42.6419   -2.9189   11.8933  C     
20   C        41.8023   -3.2578   13.1516  C     
21   C        40.5390   -2.3639   13.2401  C     
22   C        36.6655   -5.1776   14.3765  C     
23   H        37.3610   -2.7811   13.7286  H     
24   H        33.5702   -3.9793   11.3574  H     
25   H        36.3559   -0.4429   11.1272  H     
26   H        39.0876    0.7882   11.6311  H     
27   H        37.6971    1.6284   13.9946  H     
28   H        35.3464    0.5658   13.0821  H     
29   H        36.4101   -0.3547   14.1876  H     
30   H        36.1594    2.3689   12.3017  H     
31   H        40.2426    0.9971   13.7636  H     
32   H        39.3273   -0.3061   14.4752  H     
33   H        41.5821   -0.7868   13.9376  H     
34   H        41.0174   -0.7338   11.0533  H     
35   H        41.9257    0.4956   11.9480  H     
36   H        43.4288   -1.1821   10.8532  H     
37   H        43.6305   -1.1251   12.6103  H     
38   H        42.0969   -3.2341   10.9994  H     
39   H        43.5828   -3.4765   11.9268  H     
40   H        41.5023   -4.3117   13.1189  H     
41   H        42.4139   -3.1071   14.0491  H     
42   H        40.0315   -2.5919   14.1828  H     
43   H        39.8692   -2.6357   12.4214  H     
44   H        37.6850   -5.3858   14.0462  H     
45   H        36.1455   -6.1310   14.4753  H     
46   H        36.7050   -4.7125   15.3622  H     
@<TRIPOS>BOND
     1    1    2 2
     2    1    6 1
     3    1   22 1
     4    2    3 1
     5    3    4 1
     6    9    3 1
     7    4    5 1
     8    4    8 2
     9    5    6 1
    10    6    7 2
    11    9   10 1
    12    9   13 1
    13   10   11 1
    14   11   12 1
    15   11   15 1
    16   12   13 1
    17   12   14 1
    18   15   16 1
    19   16   17 1
    20   16   21 1
    21   17   18 1
    22   18   19 1
    23   19   20 1
    24   20   21 1
    25    2   23 1
    26    5   24 1
    27    9   25 1
    28   11   26 1
    29   12   27 1
    30   13   28 1
    31   13   29 1
    32   14   30 1
    33   15   31 1
    34   15   32 1
    35   16   33 1
    36   17   34 1
    37   17   35 1
    38   18   36 1
    39   18   37 1
    40   19   38 1
    41   19   39 1
    42   20   40 1
    43   20   41 1
    44   21   42 1
    45   21   43 1
    46   22   44 1
    47   22   45 1
    48   22   46 1
@<TRIPOS>PROPERTY_DATA
  Total_Score	| 4.7003
  Crash		| -0.6372
  Polar		| 3.4855
  FragIndex	| 1
  FragRMSD	| 0.356

