@<TRIPOS>MOLECULE
BindingDB_50292719
 44 46 0 0 0
SMALL
NO_CHARGES


@<TRIPOS>ATOM
1    C        35.7847   -3.8793   13.7231  C     
2    C        36.3960   -2.7281   13.3873  C     
3    N        36.0029   -1.9872   12.3027  N     
4    C        34.9295   -2.4208   11.6054  C     
5    N        34.3242   -3.5601   11.9379  N     
6    C        34.7384   -4.2987   12.9626  C     
7    O        34.1678   -5.3511   13.2042  O     
8    O        34.4568   -1.8228   10.6503  O     
9    C        36.7772   -0.8176   11.8908  C     
10   O        38.1812   -1.1194   11.9728  O     
11   C        38.8408   -0.1430   12.7923  C     
12   C        37.7486    0.5478   13.6350  C     
13   C        36.5225    0.4698   12.7182  C     
14   O        36.4817    1.6249   11.8722  O     
15   O        38.1099    1.8826   13.9911  O     
16   C        39.9325   -0.8423   13.6442  C     
17   N        41.0271   -1.3992   12.7766  N     
18   C        42.3099   -0.6338   12.9008  C     
19   C        43.3808   -1.1324   11.8979  C     
20   C        43.6203   -2.6527   12.0478  C     
21   C        42.2863   -3.4323   11.9565  C     
22   C        41.2352   -2.8722   12.9501  C     
23   H        36.0922   -4.4092   14.5069  H     
24   H        37.1655   -2.4407   13.9422  H     
25   H        33.5736   -3.8677   11.4073  H     
26   H        36.5982   -0.5823   10.8375  H     
27   H        39.3009    0.5968   12.1304  H     
28   H        37.5498   -0.0088   14.5548  H     
29   H        35.5988    0.4165   13.3015  H     
30   H        35.6431    2.0835   12.0792  H     
31   H        37.3808    2.2046   14.5635  H     
32   H        40.3286   -0.1375   14.3862  H     
33   H        39.4382   -1.6411   14.2077  H     
34   H        40.7161   -1.2813   11.8085  H     
35   H        42.1349    0.4263   12.7003  H     
36   H        42.7061   -0.7213   13.9192  H     
37   H        43.0523   -0.9084   10.8791  H     
38   H        44.3210   -0.6015   12.0744  H     
39   H        44.2984   -2.9925   11.2571  H     
40   H        44.0950   -2.8547   13.0133  H     
41   H        41.8972   -3.3572   10.9375  H     
42   H        42.4646   -4.4889   12.1735  H     
43   H        41.5469   -3.0964   13.9764  H     
44   H        40.2943   -3.3978   12.7574  H     
@<TRIPOS>BOND
     1    1    2 2
     2    1    6 1
     3    2    3 1
     4    3    4 1
     5    9    3 1
     6    4    5 1
     7    4    8 2
     8    5    6 1
     9    6    7 2
    10    9   10 1
    11    9   13 1
    12   10   11 1
    13   11   12 1
    14   11   16 1
    15   12   13 1
    16   12   15 1
    17   13   14 1
    18   16   17 1
    19   17   18 1
    20   17   22 1
    21   18   19 1
    22   19   20 1
    23   20   21 1
    24   21   22 1
    25    1   23 1
    26    2   24 1
    27    5   25 1
    28    9   26 1
    29   11   27 1
    30   12   28 1
    31   13   29 1
    32   14   30 1
    33   15   31 1
    34   16   32 1
    35   16   33 1
    36   17   34 1
    37   18   35 1
    38   18   36 1
    39   19   37 1
    40   19   38 1
    41   20   39 1
    42   20   40 1
    43   21   41 1
    44   21   42 1
    45   22   43 1
    46   22   44 1
@<TRIPOS>PROPERTY_DATA
  Total_Score	| 4.7076
  Crash		| -0.8065
  Polar		| 4.0724
  FragIndex	| 1
  FragRMSD	| 0.705

