@<TRIPOS>MOLECULE
BindingDB_50342006
 46 48 0 0 0
SMALL
NO_CHARGES


@<TRIPOS>ATOM
1    C        37.9040    0.9593   13.5096  C     
2    C        36.6412    0.4430   12.7811  C     
3    C        37.1018   -0.9150   12.1764  C     
4    O        38.4488   -1.1163   12.6443  O     
5    C        39.0232    0.1874   12.7941  C     
6    N        36.2055   -2.0287   12.4610  N     
7    O        36.2615    1.3693   11.7602  O     
8    O        38.1161    2.3706   13.4274  O     
9    C        40.3985    0.1842   13.5291  C     
10   N        41.3391   -0.9546   13.2479  N     
11   C        41.4158   -1.4123   11.8256  C     
12   C        42.2716   -2.6999   11.7155  C     
13   C        43.7138   -2.5118   12.2649  C     
14   C        43.6643   -1.8753   13.6840  C     
15   C        42.7166   -0.6488   13.7768  C     
16   C        44.6084   -1.7939   11.3207  C     
17   O        45.6450   -2.4360   10.7402  O     
18   O        44.3979   -0.5095   10.9421  O     
19   C        36.4369   -2.8563   13.5260  C     
20   C        35.6924   -3.9595   13.7373  C     
21   C        34.6843   -4.2321   12.8689  C     
22   N        34.4241   -3.4003   11.8641  N     
23   C        35.1506   -2.2997   11.6602  C     
24   O        34.8205   -1.5940   10.7161  O     
25   O        34.0104   -5.2460   12.9927  O     
26   H        37.8581    0.6655   14.5644  H     
27   H        35.8094    0.3110   13.4838  H     
28   H        37.1966   -0.8076   11.0840  H     
29   H        39.1883    0.6241   11.7955  H     
30   H        35.5615    1.9259   12.1631  H     
31   H        37.3618    2.7692   13.9085  H     
32   H        40.8844    1.1346   13.2939  H     
33   H        40.2038    0.1781   14.6066  H     
34   H        40.9890   -1.7480   13.7914  H     
35   H        40.4275   -1.6602   11.4460  H     
36   H        41.8140   -0.6188   11.1911  H     
37   H        41.7761   -3.4884   12.2954  H     
38   H        42.3072   -3.0354   10.6775  H     
39   H        44.1373   -3.5151   12.3884  H     
40   H        43.3063   -2.6291   14.3915  H     
41   H        44.6736   -1.5878   14.0039  H     
42   H        43.1620    0.1874   13.2299  H     
43   H        42.6609   -0.3578   14.8308  H     
44   H        37.1592   -2.6554   14.1796  H     
45   H        35.8770   -4.5569   14.5138  H     
46   H        33.6931   -3.6061   11.2550  H     
@<TRIPOS>BOND
     1    1    2 1
     2    1    5 1
     3    1    8 1
     4    2    3 1
     5    2    7 1
     6    3    4 1
     7    3    6 1
     8    4    5 1
     9    5    9 1
    10    6   19 1
    11    6   23 1
    12    9   10 1
    13   10   11 1
    14   10   15 1
    15   11   12 1
    16   12   13 1
    17   13   14 1
    18   13   16 1
    19   14   15 1
    20   16   17 1
    21   16   18 2
    22   19   20 2
    23   20   21 1
    24   21   22 1
    25   21   25 2
    26   22   23 1
    27   23   24 2
    28    1   26 1
    29    2   27 1
    30    3   28 1
    31    5   29 1
    32    7   30 1
    33    8   31 1
    34    9   32 1
    35    9   33 1
    36   10   34 1
    37   11   35 1
    38   11   36 1
    39   12   37 1
    40   12   38 1
    41   13   39 1
    42   14   40 1
    43   14   41 1
    44   15   42 1
    45   15   43 1
    46   19   44 1
    47   20   45 1
    48   22   46 1
@<TRIPOS>PROPERTY_DATA
  Total_Score	| 5.6654
  Crash		| -1.0984
  Polar		| 6.0503
  FragIndex	| 1
  FragRMSD	| 1.008

