@<TRIPOS>MOLECULE
BindingDB_50292720
 42 44 0 0 0
SMALL
NO_CHARGES


@<TRIPOS>ATOM
1    C        35.6396   -3.7587   13.8746  C     
2    C        36.2079   -2.5541   13.6723  C     
3    N        35.8638   -1.7635   12.6069  N     
4    C        34.9325   -2.2336   11.7455  C     
5    N        34.3792   -3.4310   11.9408  N     
6    C        34.7100   -4.1920   12.9804  C     
7    O        34.1754   -5.2834   13.1103  O     
8    O        34.5544   -1.6295   10.7510  O     
9    C        36.5654   -0.5038   12.3913  C     
10   O        37.9604   -0.7667   12.1731  O     
11   C        38.7491    0.3296   12.6614  C     
12   C        37.7647    1.3653   13.2670  C     
13   C        36.5083    0.5262   13.5460  C     
14   O        35.3185    1.3243   13.5978  O     
15   O        37.4942    2.4048   12.3231  O     
16   C        39.8100   -0.1757   13.6887  C     
17   N        40.8321   -1.1788   13.2423  N     
18   C        40.3478   -2.5928   13.1698  C     
19   C        41.5333   -3.5481   12.8819  C     
20   O        42.2642   -3.1308   11.7105  O     
21   C        42.7626   -1.7800   11.7905  C     
22   C        41.5984   -0.7860   12.0197  C     
23   H        35.9041   -4.3198   14.6526  H     
24   H        36.9054   -2.2575   14.3165  H     
25   H        33.7247   -3.7599   11.3028  H     
26   H        36.2134    0.0038   11.4860  H     
27   H        39.2709    0.7798   11.8125  H     
28   H        38.1433    1.8257   14.1845  H     
29   H        36.6243    0.0314   14.5131  H     
30   H        35.1488    1.6285   12.6869  H     
31   H        36.9794    3.0767   12.8187  H     
32   H        40.3620    0.6991   14.0443  H     
33   H        39.2868   -0.5771   14.5610  H     
34   H        41.5251   -1.1856   13.9951  H     
35   H        39.8900   -2.8856   14.1185  H     
36   H        39.6051   -2.7119   12.3803  H     
37   H        42.2026   -3.5860   13.7464  H     
38   H        41.1521   -4.5563   12.7073  H     
39   H        43.4967   -1.6945   12.5971  H     
40   H        43.2656   -1.5396   10.8519  H     
41   H        40.9520   -0.7939   11.1371  H     
42   H        42.0143    0.2185   12.1373  H     
@<TRIPOS>BOND
     1    1    2 2
     2    1    6 1
     3    2    3 1
     4    3    4 1
     5    9    3 1
     6    4    5 1
     7    4    8 2
     8    5    6 1
     9    6    7 2
    10    9   10 1
    11    9   13 1
    12   10   11 1
    13   11   12 1
    14   11   16 1
    15   12   13 1
    16   12   15 1
    17   13   14 1
    18   16   17 1
    19   17   18 1
    20   17   22 1
    21   18   19 1
    22   19   20 1
    23   20   21 1
    24   21   22 1
    25    1   23 1
    26    2   24 1
    27    5   25 1
    28    9   26 1
    29   11   27 1
    30   12   28 1
    31   13   29 1
    32   14   30 1
    33   15   31 1
    34   16   32 1
    35   16   33 1
    36   17   34 1
    37   18   35 1
    38   18   36 1
    39   19   37 1
    40   19   38 1
    41   21   39 1
    42   21   40 1
    43   22   41 1
    44   22   42 1
@<TRIPOS>PROPERTY_DATA
  Total_Score	| 4.5645
  Crash		| -0.6414
  Polar		| 4.5460
  FragIndex	| 1
  FragRMSD	| 0.432

