@<TRIPOS>MOLECULE
BindingDB_50292723
 32 33 0 0 0
SMALL
NO_CHARGES


@<TRIPOS>ATOM
1    O        40.8884   -0.8792   10.5461  O     
2    C        40.3890   -0.8301   11.8832  C     
3    C        38.9645   -0.2337   11.8784  C     
4    C        38.4343    0.2224   13.2455  C     
5    O        39.0367    1.4520   13.6475  O     
6    C        36.9153    0.3125   12.9680  C     
7    O        36.5846    1.6129   12.4137  O     
8    C        36.7182   -0.7873   11.8763  C     
9    O        38.0224   -1.2210   11.4566  O     
10   N        35.9627   -1.9697   12.2813  N     
11   C        34.8715   -2.3970   11.6060  C     
12   O        34.3832   -1.8019   10.6575  O     
13   N        34.2817   -3.5463   11.9337  N     
14   C        34.7165   -4.2925   12.9450  C     
15   O        34.1505   -5.3479   13.1903  O     
16   C        35.7923   -3.8875   13.6759  C     
17   C        36.4060   -2.7406   13.3256  C     
18   P        36.4848    2.8323   13.3860  P     
19   O        36.8980    4.0962   12.6137  O     
20   O        35.0277    3.0228   13.8312  O     
21   O        37.3046    2.7713   14.5655  O     
22   H        40.0949   -0.9452    9.9701  H     
23   H        40.3769   -1.8373   12.3061  H     
24   H        41.0625   -0.2042   12.4703  H     
25   H        38.9425    0.6120   11.1813  H     
26   H        38.6400   -0.5352   14.0085  H     
27   H        39.9533    1.2185   13.9079  H     
28   H        36.3283    0.0751   13.8638  H     
29   H        36.2745   -0.3119   10.9957  H     
30   H        33.5276   -3.8579   11.4040  H     
31   H        36.1249   -4.4339   14.4413  H     
32   H        37.2074   -2.4693   13.8443  H     
@<TRIPOS>BOND
     1    1    2 1
     2    3    2 1
     3    3    4 1
     4    3    9 1
     5    4    5 1
     6    4    6 1
     7    6    7 1
     8    6    8 1
     9    7   18 1
    10    8    9 1
    11    8   10 1
    12   10   11 1
    13   10   17 1
    14   11   12 2
    15   11   13 1
    16   13   14 1
    17   14   15 2
    18   14   16 1
    19   16   17 2
    20   18   19 1
    21   18   20 1
    22   18   21 2
    23    1   22 1
    24    2   23 1
    25    2   24 1
    26    3   25 1
    27    4   26 1
    28    5   27 1
    29    6   28 1
    30    8   29 1
    31   13   30 1
    32   16   31 1
    33   17   32 1
@<TRIPOS>PROPERTY_DATA
  Total_Score	| 5.5771
  Crash		| -1.0404
  Polar		| 6.0808
  FragIndex	| 1
  FragRMSD	| 0.900

