@<TRIPOS>MOLECULE
BindingDB_50292714
 46 48 0 0 0
SMALL
NO_CHARGES


@<TRIPOS>ATOM
1    C        35.1574   -5.1491   13.8174  C     
2    C        36.0074   -4.1798   14.1808  C     
3    N        36.1270   -3.0078   13.4787  N     
4    C        35.3072   -2.8267   12.4167  C     
5    N        34.4325   -3.7750   12.0762  N     
6    C        34.3465   -4.9244   12.7489  C     
7    O        33.5434   -5.7776   12.4035  O     
8    O        35.3024   -1.8179   11.7207  O     
9    C        37.1405   -2.0671   13.9319  C     
10   O        37.1994   -0.8005   13.2597  O     
11   C        38.5652   -0.3661   13.0915  C     
12   C        39.3109   -1.7304   12.8795  C     
13   C        38.5854   -2.6309   13.8943  C     
14   O        38.7234   -4.0136   13.5352  O     
15   N        40.8116   -1.9023   12.8050  N     
16   C        41.6005   -2.0394   14.0825  C     
17   C        43.0633   -2.4889   13.8171  C     
18   C        43.7688   -1.5563   12.8026  C     
19   C        42.9236   -1.4221   11.5131  C     
20   C        41.4831   -0.9640   11.8511  C     
21   C        38.5164    0.5646   11.8335  C     
22   O        37.5925    1.6403   11.9775  O     
23   C        39.0594    0.3972   14.2747  C     
24   O        38.3347    0.4446   15.4227  O     
25   O        40.0886    1.2630   14.1706  O     
26   H        35.1183   -6.0085   14.3252  H     
27   H        36.5776   -4.3502   14.9837  H     
28   H        33.8303   -3.6417   11.3224  H     
29   H        36.8929   -1.8205   14.9680  H     
30   H        38.9689   -2.0859   11.9031  H     
31   H        38.9834   -2.4976   14.9005  H     
32   H        39.6597   -4.2380   13.6845  H     
33   H        40.9211   -2.8203   12.3621  H     
34   H        41.6039   -1.1031   14.6446  H     
35   H        41.1989   -2.8235   14.7240  H     
36   H        43.6253   -2.4858   14.7610  H     
37   H        43.0693   -3.5128   13.4225  H     
38   H        43.9079   -0.5657   13.2563  H     
39   H        44.7548   -1.9651   12.5554  H     
40   H        43.3960   -0.6956   10.8372  H     
41   H        42.8783   -2.3904   11.0066  H     
42   H        40.9309   -0.9104   10.9091  H     
43   H        41.5381    0.0418   12.2832  H     
44   H        39.4959    0.9934   11.6067  H     
45   H        38.1981   -0.0281   10.9601  H     
46   H        37.4163    1.7083   12.9436  H     
@<TRIPOS>BOND
     1    1    2 2
     2    1    6 1
     3    2    3 1
     4    3    4 1
     5    9    3 1
     6    4    5 1
     7    4    8 2
     8    5    6 1
     9    6    7 2
    10    9   10 1
    11    9   13 1
    12   10   11 1
    13   11   12 1
    14   11   21 1
    15   11   23 1
    16   12   13 1
    17   12   15 1
    18   13   14 1
    19   15   16 1
    20   15   20 1
    21   16   17 1
    22   17   18 1
    23   18   19 1
    24   19   20 1
    25   21   22 1
    26   23   24 1
    27   23   25 2
    28    1   26 1
    29    2   27 1
    30    5   28 1
    31    9   29 1
    32   12   30 1
    33   13   31 1
    34   14   32 1
    35   15   33 1
    36   16   34 1
    37   16   35 1
    38   17   36 1
    39   17   37 1
    40   18   38 1
    41   18   39 1
    42   19   40 1
    43   19   41 1
    44   20   42 1
    45   20   43 1
    46   21   44 1
    47   21   45 1
    48   22   46 1
@<TRIPOS>PROPERTY_DATA
  Total_Score	| 1.4457
  Crash		| -0.9304
  Polar		| 2.0207
  FragIndex	| 1
  FragRMSD	| 1.293

