@<TRIPOS>MOLECULE
BindingDB_50331792
 29 30 0 0 0
SMALL
NO_CHARGES


@<TRIPOS>ATOM
1    O        36.9725    2.1700   12.1135  O     
2    C        37.4147    1.1425   13.0270  C     
3    C        36.3671    0.0422   13.2606  C     
4    C        38.5740    0.3330   12.3865  C     
5    C        36.6495   -0.9023   12.0772  C     
6    O        38.0773   -0.9621   11.9988  O     
7    C        39.7416    0.1343   13.2758  C     
8    O        40.9757    0.5594   12.8946  O     
9    N        36.0307   -2.2079   12.2584  N     
10   C        34.9232   -2.5809   11.5831  C     
11   N        34.3452   -3.7507   11.8405  N     
12   C        34.8077   -4.5664   12.7773  C     
13   C        35.9587   -4.2605   13.4590  C     
14   C        36.5514   -3.0784   13.1708  C     
15   O        34.3853   -1.8952   10.7242  O     
16   O        34.1806   -5.5963   12.9729  O     
17   C        36.5807   -5.1463   14.4402  C     
18   O        39.6380   -0.6088   14.4087  O     
19   H        36.0120    2.3362   12.2927  H     
20   H        37.6760    1.6110   13.9771  H     
21   H        36.5632   -0.4698   14.2124  H     
22   H        35.3378    0.4200   13.2511  H     
23   H        38.9173    0.8536   11.4873  H     
24   H        36.2976   -0.4218   11.1499  H     
25   H        33.5548   -4.0045   11.3429  H     
26   H        37.3922   -2.8345   13.6489  H     
27   H        36.7277   -4.6147   15.3845  H     
28   H        37.5567   -5.4848   14.0737  H     
29   H        35.9800   -6.0323   14.6531  H     
@<TRIPOS>BOND
     1    2    1 1
     2    2    3 1
     3    2    4 1
     4    3    5 1
     5    4    6 1
     6    4    7 1
     7    5    6 1
     8    5    9 1
     9    7    8 1
    10    7   18 2
    11    9   10 1
    12    9   14 1
    13   10   11 1
    14   10   15 2
    15   11   12 1
    16   12   13 1
    17   12   16 2
    18   13   14 2
    19   13   17 1
    20    1   19 1
    21    2   20 1
    22    3   21 1
    23    3   22 1
    24    4   23 1
    25    5   24 1
    26   11   25 1
    27   14   26 1
    28   17   27 1
    29   17   28 1
    30   17   29 1
@<TRIPOS>PROPERTY_DATA
  Total_Score	| 4.2338
  Crash		| -0.4394
  Polar		| 3.7004
  FragIndex	| 1
  FragRMSD	| 0.255

