@<TRIPOS>MOLECULE
BindingDB_50292724
 32 33 0 0 0
SMALL
NO_CHARGES


@<TRIPOS>ATOM
1    C        35.8149   -4.3204   13.6285  C     
2    C        36.5727   -3.2665   13.2551  C     
3    N        36.1768   -2.4499   12.2295  N     
4    C        35.0146   -2.7076   11.6029  C     
5    N        34.2823   -3.7611   11.9624  N     
6    C        34.6565   -4.5671   12.9498  C     
7    O        33.9569   -5.5319   13.2142  O     
8    O        34.5680   -2.0379   10.6846  O     
9    C        37.0420   -1.3738   11.7612  C     
10   O        38.3965   -1.3803   12.2767  O     
11   C        38.8172   -0.0099   12.4567  C     
12   C        37.5417    0.7448   12.9223  C     
13   C        36.4866    0.0555   12.0433  C     
14   O        35.1847    0.1399   12.6265  O     
15   O        37.4962    2.1493   12.5698  O     
16   C        40.0160    0.0541   13.4288  C     
17   O        39.6293   -0.3254   14.7422  O     
18   P        37.0296    3.1713   13.6377  P     
19   O        35.6004    2.9419   14.1862  O     
20   O        38.0956    3.2447   14.7575  O     
21   O        37.0334    4.4693   13.0022  O     
22   H        36.1064   -4.9141   14.3712  H     
23   H        37.4175   -3.0970   13.7454  H     
24   H        33.4687   -3.9551   11.4749  H     
25   H        37.1431   -1.4860   10.6789  H     
26   H        39.1458    0.4293   11.4812  H     
27   H        37.3480    0.5107   13.9774  H     
28   H        36.4337    0.5635   11.0758  H     
29   H        35.2795   -0.1059   13.5816  H     
30   H        40.7922   -0.6225   13.0888  H     
31   H        40.4251    1.0646   13.4520  H     
32   H        39.4326   -1.2920   14.6822  H     
@<TRIPOS>BOND
     1    1    2 2
     2    1    6 1
     3    2    3 1
     4    3    4 1
     5    9    3 1
     6    4    5 1
     7    4    8 2
     8    5    6 1
     9    6    7 2
    10    9   10 1
    11    9   13 1
    12   10   11 1
    13   11   12 1
    14   11   16 1
    15   12   13 1
    16   12   15 1
    17   13   14 1
    18   15   18 1
    19   16   17 1
    20   18   19 1
    21   18   20 1
    22   18   21 2
    23    1   22 1
    24    2   23 1
    25    5   24 1
    26    9   25 1
    27   11   26 1
    28   12   27 1
    29   13   28 1
    30   14   29 1
    31   16   30 1
    32   16   31 1
    33   17   32 1
@<TRIPOS>PROPERTY_DATA
  Total_Score	| 5.9784
  Crash		| -0.9364
  Polar		| 6.6270
  FragIndex	| 1
  FragRMSD	| 0.480

