@<TRIPOS>MOLECULE
BindingDB_50292716
 43 45 0 0 0
SMALL
NO_CHARGES


@<TRIPOS>ATOM
1    C        35.9832   -4.3022   13.4225  C     
2    C        36.5740   -3.1178   13.1407  C     
3    N        36.0402   -2.2222   12.2551  N     
4    C        34.9093   -2.5666   11.6061  C     
5    N        34.3328   -3.7370   11.8522  N     
6    C        34.8207   -4.5937   12.7484  C     
7    O        34.1900   -5.6254   12.9242  O     
8    O        34.3424   -1.8465   10.7959  O     
9    C        36.6659   -0.9173   12.0800  C     
10   O        38.0968   -0.9837   11.9460  O     
11   C        38.6871    0.1991   12.5183  C     
12   C        37.5270    1.0696   13.0708  C     
13   C        36.4115    0.0294   13.2697  C     
14   O        37.1538    2.0795   12.1202  O     
15   C        39.7350   -0.1817   13.6126  C     
16   N        40.7721   -1.2168   13.3247  N     
17   C        40.3667   -2.6428   13.3693  C     
18   C        41.5748   -3.4226   12.8099  C     
19   C        42.4319   -2.3665   12.0828  C     
20   C        41.5806   -1.0849   12.0918  C     
21   C        36.5978   -5.2093   14.3906  C     
22   H        37.4273   -2.8959   13.5990  H     
23   H        33.5282   -3.9738   11.3663  H     
24   H        36.2967   -0.4288   11.1716  H     
25   H        39.1996    0.7378   11.7211  H     
26   H        37.7695    1.5680   14.0071  H     
27   H        35.4111    0.4747   13.2404  H     
28   H        36.5554   -0.4900   14.2193  H     
29   H        36.2136    2.3057   12.2956  H     
30   H        40.2758    0.7364   13.8705  H     
31   H        39.2044   -0.4814   14.5189  H     
32   H        41.4463   -1.1190   14.0886  H     
33   H        40.1419   -2.9492   14.3921  H     
34   H        39.4930   -2.8304   12.7435  H     
35   H        42.1463   -3.8867   13.6250  H     
36   H        41.2497   -4.2063   12.1193  H     
37   H        43.3685   -2.1998   12.6333  H     
38   H        42.6758   -2.6698   11.0615  H     
39   H        40.9528   -1.0521   11.1950  H     
40   H        42.2133   -0.1936   12.1243  H     
41   H        37.5779   -5.5235   14.0201  H     
42   H        36.0030   -6.1077   14.5699  H     
43   H        36.7267   -4.6968   15.3430  H     
@<TRIPOS>BOND
     1    1    2 2
     2    1    6 1
     3    1   21 1
     4    2    3 1
     5    3    4 1
     6    9    3 1
     7    4    5 1
     8    4    8 2
     9    5    6 1
    10    6    7 2
    11    9   10 1
    12    9   13 1
    13   10   11 1
    14   11   12 1
    15   11   15 1
    16   12   13 1
    17   12   14 1
    18   15   16 1
    19   16   17 1
    20   16   20 1
    21   17   18 1
    22   18   19 1
    23   19   20 1
    24    2   22 1
    25    5   23 1
    26    9   24 1
    27   11   25 1
    28   12   26 1
    29   13   27 1
    30   13   28 1
    31   14   29 1
    32   15   30 1
    33   15   31 1
    34   16   32 1
    35   17   33 1
    36   17   34 1
    37   18   35 1
    38   18   36 1
    39   19   37 1
    40   19   38 1
    41   20   39 1
    42   20   40 1
    43   21   41 1
    44   21   42 1
    45   21   43 1
@<TRIPOS>PROPERTY_DATA
  Total_Score	| 4.6337
  Crash		| -0.4935
  Polar		| 3.3950
  FragIndex	| 1
  FragRMSD	| 0.309

