@<TRIPOS>MOLECULE
BindingDB_50331790
 45 46 0 0 0
SMALL
NO_CHARGES


@<TRIPOS>ATOM
1    N        40.7387   -1.0847   13.3421  N     
2    C        39.4452   -1.2958   12.7884  C     
3    C        38.6764   -2.4877   13.3903  C     
4    C        38.4661   -0.1257   13.0776  C     
5    C        37.2083   -2.0073   13.5951  C     
6    O        37.1545   -0.7323   12.9122  O     
7    C        38.6760    1.0809   12.1500  C     
8    O        37.5056    1.8904   12.0664  O     
9    N        36.2267   -3.0339   13.2495  N     
10   C        35.2139   -2.8610   12.3654  C     
11   N        34.3598   -3.8513   12.1235  N     
12   C        34.4691   -5.0331   12.7226  C     
13   C        35.5088   -5.2879   13.5855  C     
14   C        36.3256   -4.2532   13.8784  C     
15   O        35.0048   -1.8119   11.7641  O     
16   O        33.6041   -5.8705   12.5039  O     
17   C        35.7595   -6.6293   14.1015  C     
18   C        41.7752   -1.9174   13.2273  C     
19   C        43.0588   -1.5414   13.7906  C     
20   O        41.6477   -3.0043   12.6922  O     
21   N        43.2255   -2.1528   15.1212  N     
22   C        44.2906   -1.9101   12.9161  C     
23   C        44.4756   -1.1045   11.6851  C     
24   O        43.5795   -0.1621   11.2693  O     
25   O        45.5603   -1.3492   10.9266  O     
26   H        40.8897   -0.2566   13.7952  H     
27   H        39.5157   -1.4352   11.6979  H     
28   H        38.7382   -3.3409   12.7012  H     
29   H        39.1101   -2.7850   14.3533  H     
30   H        38.5926    0.2134   14.1220  H     
31   H        37.0535   -1.7734   14.6601  H     
32   H        39.4940    1.6918   12.5340  H     
33   H        38.9376    0.7324   11.1573  H     
34   H        37.2113    2.0268   12.9942  H     
35   H        33.6316   -3.7091   11.5023  H     
36   H        37.0375   -4.3919   14.5504  H     
37   H        34.9488   -6.9392   14.7640  H     
38   H        36.6976   -6.7034   14.6575  H     
39   H        35.8236   -7.3389   13.2733  H     
40   H        43.0920   -0.4663   13.9484  H     
41   H        42.4403   -1.8726   15.7271  H     
42   H        44.1143   -1.8303   15.5328  H     
43   H        43.2445   -3.1847   15.0361  H     
44   H        45.2071   -1.7818   13.5087  H     
45   H        44.2440   -2.9736   12.6265  H     
@<TRIPOS>BOND
     1    2    1 1
     2    1   18 am
     3    2    3 1
     4    2    4 1
     5    3    5 1
     6    4    6 1
     7    4    7 1
     8    5    6 1
     9    5    9 1
    10    7    8 1
    11    9   10 1
    12    9   14 1
    13   10   11 1
    14   10   15 2
    15   11   12 1
    16   12   13 1
    17   12   16 2
    18   13   14 2
    19   13   17 1
    20   18   19 1
    21   18   20 2
    22   19   21 1
    23   19   22 1
    24   22   23 1
    25   23   24 1
    26   23   25 2
    27    1   26 1
    28    2   27 1
    29    3   28 1
    30    3   29 1
    31    4   30 1
    32    5   31 1
    33    7   32 1
    34    7   33 1
    35    8   34 1
    36   11   35 1
    37   14   36 1
    38   17   37 1
    39   17   38 1
    40   17   39 1
    41   19   40 1
    42   21   41 1
    43   21   42 1
    44   21   43 1
    45   22   44 1
    46   22   45 1
@<TRIPOS>PROPERTY_DATA
  Total_Score	| 4.0622
  Crash		| -0.7640
  Polar		| 4.9614
  FragIndex	| 1
  FragRMSD	| 1.486

