@<TRIPOS>MOLECULE
BindingDB_50292722
 32 33 0 0 0
SMALL
NO_CHARGES


@<TRIPOS>ATOM
1    O        40.6777    0.5244   14.2325  O     
2    C        39.9753   -0.5266   13.5740  C     
3    C        38.8005    0.0317   12.7302  C     
4    C        37.6559    0.6628   13.5576  C     
5    O        38.0609    1.9896   13.9674  O     
6    C        36.4714    0.5027   12.5827  C     
7    O        36.3935    1.6203   11.7094  O     
8    C        36.8245   -0.7957   11.8104  C     
9    O        38.2368   -1.0196   11.9449  O     
10   N        36.0677   -1.9665   12.2522  N     
11   C        34.9577   -2.3840   11.6052  C     
12   O        34.4603   -1.7786   10.6665  O     
13   N        34.3493   -3.5163   11.9598  N     
14   C        34.7923   -4.2553   12.9718  C     
15   C        35.8654   -3.8466   13.6957  C     
16   C        36.4887   -2.7076   13.3278  C     
17   P        36.9827    3.0580   14.3001  P     
18   O        37.3818    3.7998   15.5914  O     
19   O        35.6198    2.5939   14.4032  O     
20   O        37.0506    4.0977   13.1603  O     
21   O        34.2176   -5.2971   13.2449  O     
22   H        41.3943    0.0794   14.7342  H     
23   H        40.6746   -1.0591   12.9239  H     
24   H        39.6005   -1.2294   14.3260  H     
25   H        39.2048    0.7760   12.0412  H     
26   H        37.4560    0.0602   14.4483  H     
27   H        35.5285    0.3926   13.1222  H     
28   H        35.5971    2.1209   11.9739  H     
29   H        36.6665   -0.6313   10.7400  H     
30   H        33.5715   -3.8127   11.4585  H     
31   H        36.1897   -4.3778   14.4761  H     
32   H        37.2762   -2.4216   13.8621  H     
@<TRIPOS>BOND
     1    1    2 1
     2    3    2 1
     3    3    4 1
     4    3    9 1
     5    4    5 1
     6    4    6 1
     7    5   17 1
     8    6    7 1
     9    6    8 1
    10    8    9 1
    11    8   10 1
    12   10   11 1
    13   10   16 1
    14   11   12 2
    15   11   13 1
    16   13   14 1
    17   14   15 1
    18   14   21 2
    19   15   16 2
    20   17   18 1
    21   17   19 2
    22   17   20 1
    23    1   22 1
    24    2   23 1
    25    2   24 1
    26    3   25 1
    27    4   26 1
    28    6   27 1
    29    7   28 1
    30    8   29 1
    31   13   30 1
    32   15   31 1
    33   16   32 1
@<TRIPOS>PROPERTY_DATA
  Total_Score	| 5.7878
  Crash		| -0.8389
  Polar		| 6.4069
  FragIndex	| 1
  FragRMSD	| 0.616

