@<TRIPOS>MOLECULE
BindingDB_50342007
 48 50 0 0 0
SMALL
NO_CHARGES


@<TRIPOS>ATOM
1    C        37.7374    0.8245   12.8858  C     
2    C        36.4399    0.0732   12.5112  C     
3    C        36.9184   -1.3198   12.0483  C     
4    O        38.2360   -1.4162   12.6117  O     
5    C        38.8674   -0.1492   12.4638  C     
6    N        36.0404   -2.4394   12.3633  N     
7    O        37.8434    2.0881   12.2343  O     
8    C        40.1950   -0.0262   13.2727  C     
9    N        40.8566   -1.2715   13.8147  N     
10   C        40.9895   -2.4741   12.9298  C     
11   C        42.0498   -2.2911   11.8162  C     
12   C        43.4413   -1.9776   12.4420  C     
13   C        43.3472   -0.7869   13.4449  C     
14   C        42.1830   -0.9744   14.4622  C     
15   C        44.4501   -1.7200   11.3887  C     
16   O        45.2712   -2.7034   10.9602  O     
17   O        44.5871   -0.4845   10.8586  O     
18   C        36.4100   -3.3883   13.2784  C     
19   C        35.7272   -4.5444   13.4462  C     
20   C        34.5790   -4.6977   12.7116  C     
21   N        34.1954   -3.7589   11.8548  N     
22   C        34.9026   -2.6480   11.6682  C     
23   O        34.4816   -1.8805   10.8129  O     
24   O        33.8812   -5.6985   12.8004  O     
25   C        36.2061   -5.5993   14.3288  C     
26   H        37.7491    0.9894   13.9704  H     
27   H        35.7754   -0.0104   13.3766  H     
28   H        35.9105    0.5794   11.6972  H     
29   H        37.0381   -1.3047   10.9565  H     
30   H        39.1048   -0.0116   11.4009  H     
31   H        38.4048    2.6406   12.8204  H     
32   H        40.8957    0.5283   12.6400  H     
33   H        39.9982    0.6062   14.1451  H     
34   H        40.2433   -1.5743   14.5764  H     
35   H        41.2757   -3.3331   13.5436  H     
36   H        40.0430   -2.7540   12.4824  H     
37   H        42.1056   -3.2092   11.2217  H     
38   H        41.7323   -1.4775   11.1537  H     
39   H        43.7601   -2.8613   13.0059  H     
40   H        44.2883   -0.7000   13.9973  H     
41   H        43.1960    0.1502   12.8996  H     
42   H        42.1155   -0.0796   15.0892  H     
43   H        42.4364   -1.8005   15.1345  H     
44   H        37.2289   -3.2538   13.8238  H     
45   H        33.4012   -3.9077   11.3199  H     
46   H        37.1434   -5.3457   14.8266  H     
47   H        36.3707   -6.5132   13.7540  H     
48   H        35.4601   -5.7935   15.1008  H     
@<TRIPOS>BOND
     1    1    2 1
     2    1    5 1
     3    1    7 1
     4    2    3 1
     5    3    4 1
     6    3    6 1
     7    4    5 1
     8    5    8 1
     9    6   18 1
    10    6   22 1
    11    8    9 1
    12    9   10 1
    13    9   14 1
    14   10   11 1
    15   11   12 1
    16   12   13 1
    17   12   15 1
    18   13   14 1
    19   15   16 1
    20   15   17 2
    21   18   19 2
    22   19   20 1
    23   19   25 1
    24   20   21 1
    25   20   24 2
    26   21   22 1
    27   22   23 2
    28    1   26 1
    29    2   27 1
    30    2   28 1
    31    3   29 1
    32    5   30 1
    33    7   31 1
    34    8   32 1
    35    8   33 1
    36    9   34 1
    37   10   35 1
    38   10   36 1
    39   11   37 1
    40   11   38 1
    41   12   39 1
    42   13   40 1
    43   13   41 1
    44   14   42 1
    45   14   43 1
    46   18   44 1
    47   21   45 1
    48   25   46 1
    49   25   47 1
    50   25   48 1
@<TRIPOS>PROPERTY_DATA
  Total_Score	| 6.1112
  Crash		| -0.9734
  Polar		| 5.4864
  FragIndex	| 1
  FragRMSD	| 0.878

