@<TRIPOS>MOLECULE
BindingDB_50292715
 53 55 0 0 0
SMALL
NO_CHARGES


@<TRIPOS>ATOM
1    C        35.8014   -4.2078   13.7008  C     
2    C        36.4600   -3.0640   13.4313  C     
3    N        36.0806   -2.2357   12.4081  N     
4    C        35.0040   -2.5923   11.6730  C     
5    N        34.3677   -3.7362   11.9257  N     
6    C        34.7454   -4.5445   12.9127  C     
7    O        34.1355   -5.5890   13.0915  O     
8    O        34.5480   -1.9196   10.7586  O     
9    C        36.8293   -1.0092   12.1584  C     
10   O        38.2433   -1.2367   12.0293  O     
11   C        38.9730   -0.1217   12.5891  C     
12   C        37.9257    0.9045   13.0980  C     
13   C        36.6730    0.0409   13.2767  C     
14   O        35.4573    0.7713   13.1426  O     
15   O        37.7067    1.9357   12.1294  O     
16   C        39.9469   -0.6680   13.6842  C     
17   N        41.3077   -1.1068   13.2325  N     
18   C        41.2998   -2.1966   12.2122  C     
19   C        42.7225   -2.7753   12.0059  C     
20   C        43.7532   -1.6673   11.6243  C     
21   C        43.6797   -0.4992   12.6513  C     
22   C        42.2245    0.0123   12.8408  C     
23   C        45.1490   -2.1542   11.4691  C     
24   O        46.0689   -1.3495   10.8640  O     
25   O        45.5137   -3.3855   11.9015  O     
26   C        47.4333   -1.6663   10.5505  C     
27   C        47.5359   -2.6417    9.3619  C     
28   H        36.0803   -4.7891   14.4592  H     
29   H        37.2366   -2.8319   14.0076  H     
30   H        33.6135   -3.9918   11.3685  H     
31   H        36.5305   -0.5399   11.2137  H     
32   H        39.5507    0.3411   11.7909  H     
33   H        38.2034    1.3833   14.0417  H     
34   H        36.6992   -0.4293   14.2644  H     
35   H        35.0306    0.7195   14.0239  H     
36   H        38.5355    2.4576   12.1145  H     
37   H        40.0893    0.0793   14.4659  H     
38   H        39.4680   -1.5171   14.1819  H     
39   H        41.7332   -1.5209   14.0641  H     
40   H        40.6404   -3.0089   12.5353  H     
41   H        40.9269   -1.8138   11.2556  H     
42   H        43.0307   -3.2671   12.9347  H     
43   H        42.6875   -3.5322   11.2146  H     
44   H        43.4588   -1.2728   10.6468  H     
45   H        44.0654   -0.8331   13.6199  H     
46   H        44.3014    0.3347   12.3105  H     
47   H        41.8916    0.4896   11.9159  H     
48   H        42.2376    0.7756   13.6240  H     
49   H        47.9446   -0.7440   10.2703  H     
50   H        47.9426   -2.0829   11.4215  H     
51   H        46.9913   -3.5642    9.5748  H     
52   H        48.5804   -2.8967    9.1643  H     
53   H        47.1126   -2.1863    8.4628  H     
@<TRIPOS>BOND
     1    1    2 2
     2    1    6 1
     3    2    3 1
     4    3    4 1
     5    9    3 1
     6    4    5 1
     7    4    8 2
     8    5    6 1
     9    6    7 2
    10    9   10 1
    11    9   13 1
    12   10   11 1
    13   11   12 1
    14   11   16 1
    15   12   13 1
    16   12   15 1
    17   13   14 1
    18   16   17 1
    19   17   18 1
    20   17   22 1
    21   18   19 1
    22   19   20 1
    23   20   21 1
    24   20   23 1
    25   21   22 1
    26   23   24 1
    27   23   25 2
    28   24   26 1
    29   26   27 1
    30    1   28 1
    31    2   29 1
    32    5   30 1
    33    9   31 1
    34   11   32 1
    35   12   33 1
    36   13   34 1
    37   14   35 1
    38   15   36 1
    39   16   37 1
    40   16   38 1
    41   17   39 1
    42   18   40 1
    43   18   41 1
    44   19   42 1
    45   19   43 1
    46   20   44 1
    47   21   45 1
    48   21   46 1
    49   22   47 1
    50   22   48 1
    51   26   49 1
    52   26   50 1
    53   27   51 1
    54   27   52 1
    55   27   53 1
@<TRIPOS>PROPERTY_DATA
  Total_Score	| 5.7506
  Crash		| -0.8388
  Polar		| 5.3794
  FragIndex	| 1
  FragRMSD	| 0.792

