@<TRIPOS>MOLECULE
BindingDB_5537
 49 52 0 0 0
SMALL
NO_CHARGES


@<TRIPOS>ATOM
1    C         6.9110   45.2656   50.9874  C     
2    C         7.5851   43.5698   49.4165  C     
3    N         8.8886   43.9765   49.5032  N     
4    N         6.6308   44.2167   50.1657  N     
5    C         8.2537   45.6760   51.0673  C     
6    C         9.2176   45.0023   50.3209  C     
7    C        10.1676   46.5729   51.4744  C     
8    N         8.8569   46.6461   51.7772  N     
9    N        10.3903   45.5785   50.6007  N     
10   O         5.9986   45.8991   51.7809  O     
11   N         7.3090   42.5573   48.5847  N     
12   C         4.7007   46.2072   51.2330  C     
13   C         3.6360   45.0880   51.4797  C     
14   C         1.7134   45.9057   53.6907  C     
15   C         3.1606   45.4404   53.9980  C     
16   C         3.6854   44.4673   52.9076  C     
17   C         2.1839   45.5693   51.1720  C     
18   C         1.5767   46.4991   52.2625  C     
19   C         6.1001   41.9654   48.3975  C     
20   C         4.0348   40.9365   49.2115  C     
21   C         3.6320   40.6790   47.8892  C     
22   C         4.4597   41.0536   46.8019  C     
23   C         5.6959   41.6692   47.0644  C     
24   C         5.2597   41.5777   49.4701  C     
25   O         3.9294   40.7765   45.5504  O     
26   C         4.3808   41.4891   44.3959  C     
27   H        10.8841   47.1916   51.8521  H     
28   H        11.2616   45.3179   50.2387  H     
29   H         8.0334   42.2512   47.9999  H     
30   H         4.3818   47.1276   51.7289  H     
31   H         4.7599   46.4356   50.1596  H     
32   H         3.8645   44.2872   50.7735  H     
33   H         1.0335   45.0565   53.7907  H     
34   H         1.4159   46.6580   54.4258  H     
35   H         3.8208   46.3128   54.0642  H     
36   H         3.1802   44.9409   54.9716  H     
37   H         3.0675   43.5634   52.9245  H     
38   H         4.7035   44.1617   53.1577  H     
39   H         2.1533   46.0857   50.2095  H     
40   H         1.5396   44.6900   51.0843  H     
41   H         0.5122   46.6553   52.0514  H     
42   H         2.0591   47.4824   52.2305  H     
43   H         3.4589   40.6394   49.9997  H     
44   H         2.7385   40.1987   47.7287  H     
45   H         6.3335   41.9316   46.3069  H     
46   H         5.5676   41.7366   50.4269  H     
47   H         4.1517   42.5465   44.4534  H     
48   H         3.8475   41.0818   43.5137  H     
49   H         5.4379   41.3370   44.2227  H     
@<TRIPOS>BOND
     1    1    4 1
     2    1    5 2
     3    1   10 1
     4    2    3 1
     5    2    4 2
     6    2   11 1
     7    3    6 2
     8    5    6 1
     9    5    8 1
    10    6    9 1
    11    7    8 2
    12    7    9 1
    13   10   12 1
    14   11   19 1
    15   12   13 1
    16   13   16 1
    17   13   17 1
    18   14   15 1
    19   14   18 1
    20   15   16 1
    21   17   18 1
    22   19   23 1
    23   19   24 2
    24   20   21 2
    25   20   24 1
    26   21   22 1
    27   22   23 2
    28   22   25 1
    29   25   26 1
    30    7   27 1
    31    9   28 1
    32   11   29 1
    33   12   30 1
    34   12   31 1
    35   13   32 1
    36   14   33 1
    37   14   34 1
    38   15   35 1
    39   15   36 1
    40   16   37 1
    41   16   38 1
    42   17   39 1
    43   17   40 1
    44   18   41 1
    45   18   42 1
    46   20   43 1
    47   21   44 1
    48   23   45 1
    49   24   46 1
    50   26   47 1
    51   26   48 1
    52   26   49 1
@<TRIPOS>PROPERTY_DATA
  Total_Score	| 9.9559
  Crash		| -0.5997
  Polar		| 3.0179
  FragIndex	| 1
  FragRMSD	| 0.483

