@<TRIPOS>MOLECULE
BindingDB_5541
 46 49 0 0 0
SMALL
NO_CHARGES


@<TRIPOS>ATOM
1    C         6.9264   45.2110   51.0249  C     
2    C         7.6218   43.5732   49.4251  C     
3    N         8.9120   44.0023   49.5122  N     
4    N         6.6555   44.1839   50.1763  N     
5    C         8.2591   45.6309   51.1371  C     
6    C         9.2329   45.0121   50.3600  C     
7    C        10.1393   46.5837   51.5461  C     
8    N         8.8327   46.5935   51.8677  N     
9    N        10.3930   45.6231   50.6364  N     
10   O         5.9941   45.8287   51.8112  O     
11   N         7.3374   42.5756   48.5586  N     
12   C         4.7163   46.1585   51.2358  C     
13   C         3.6291   45.0728   51.4867  C     
14   C         1.7108   45.8752   53.6983  C     
15   C         3.1446   45.3824   54.0200  C     
16   C         3.6700   44.4354   52.9111  C     
17   C         2.1933   45.6066   51.1840  C     
18   C         1.6265   46.5354   52.2981  C     
19   C         6.1387   41.9587   48.3998  C     
20   C         4.1515   40.8329   49.2880  C     
21   C         3.7042   40.5776   47.9740  C     
22   C         4.4809   41.0008   46.8813  C     
23   C         5.7009   41.6619   47.0943  C     
24   C         5.3688   41.5113   49.5004  C     
25   O         2.5631   39.8809   47.7487  O     
26   H        10.8304   47.2352   51.9209  H     
27   H        11.2582   45.4294   50.2415  H     
28   H         8.0462   42.3036   47.9499  H     
29   H         4.4115   47.0930   51.7020  H     
30   H         4.7951   46.3695   50.1669  H     
31   H         3.8353   44.2670   50.7763  H     
32   H         1.0190   45.0299   53.7379  H     
33   H         1.4002   46.5947   54.4585  H     
34   H         3.8184   46.2376   54.1136  H     
35   H         3.1371   44.8501   54.9759  H     
36   H         3.0544   43.5341   52.9094  H     
37   H         4.6821   44.1108   53.1546  H     
38   H         2.1948   46.1468   50.2326  H     
39   H         1.5197   44.7514   51.0772  H     
40   H         0.5820   46.7621   52.0755  H     
41   H         2.1678   47.4846   52.3114  H     
42   H         3.6064   40.4958   50.0923  H     
43   H         4.1743   40.8050   45.9211  H     
44   H         6.2588   41.9501   46.2900  H     
45   H         5.6993   41.6501   50.4624  H     
46   H         2.5289   39.1961   48.4501  H     
@<TRIPOS>BOND
     1    1    4 1
     2    1    5 2
     3    1   10 1
     4    2    3 1
     5    2    4 2
     6    2   11 1
     7    3    6 2
     8    5    6 1
     9    5    8 1
    10    6    9 1
    11    7    8 2
    12    7    9 1
    13   10   12 1
    14   11   19 1
    15   12   13 1
    16   13   16 1
    17   13   17 1
    18   14   15 1
    19   14   18 1
    20   15   16 1
    21   17   18 1
    22   19   23 1
    23   19   24 2
    24   20   21 2
    25   20   24 1
    26   21   22 1
    27   21   25 1
    28   22   23 2
    29    7   26 1
    30    9   27 1
    31   11   28 1
    32   12   29 1
    33   12   30 1
    34   13   31 1
    35   14   32 1
    36   14   33 1
    37   15   34 1
    38   15   35 1
    39   16   36 1
    40   16   37 1
    41   17   38 1
    42   17   39 1
    43   18   40 1
    44   18   41 1
    45   20   42 1
    46   22   43 1
    47   23   44 1
    48   24   45 1
    49   25   46 1
@<TRIPOS>PROPERTY_DATA
  Total_Score	| 9.4843
  Crash		| -0.6967
  Polar		| 2.9882
  FragIndex	| 1
  FragRMSD	| 0.484

