@<TRIPOS>MOLECULE
BindingDB_5531
 45 48 0 0 0
SMALL
NO_CHARGES


@<TRIPOS>ATOM
1    C         6.9214   45.2234   51.0130  C     
2    C         7.5624   43.5077   49.4624  C     
3    N         8.8638   43.9133   49.5219  N     
4    N         6.6232   44.1664   50.2033  N     
5    C         8.2606   45.6232   51.0775  C     
6    C         9.2105   44.9486   50.3233  C     
7    C        10.1792   46.5430   51.4171  C     
8    N         8.8749   46.6047   51.7542  N     
9    N        10.3899   45.5358   50.5531  N     
10   O         6.0041   45.8720   51.7844  O     
11   N         7.2627   42.4935   48.6251  N     
12   C         4.7157   46.1866   51.2271  C     
13   C         3.6418   45.0833   51.4658  C     
14   C         1.7302   45.8887   53.6773  C     
15   C         3.1721   45.4036   53.9881  C     
16   C         3.6823   44.4436   52.8854  C     
17   C         2.2036   45.6027   51.1532  C     
18   C         1.6191   46.5241   52.2641  C     
19   C         6.0424   41.9182   48.4197  C     
20   C         3.9668   40.8895   49.2114  C     
21   C         3.5736   40.6516   47.8823  C     
22   C         4.4163   41.0342   46.8193  C     
23   C         5.6514   41.6475   47.0920  C     
24   C         5.1933   41.5255   49.4810  C     
25   Cl        3.9368   40.7607   45.2203  Cl    
26   H        10.9020   47.1789   51.7697  H     
27   H        11.2461   45.2957   50.1575  H     
28   H         7.9775   42.1865   48.0474  H     
29   H         4.4002   47.1082   51.7200  H     
30   H         4.7920   46.4058   50.1591  H     
31   H         3.8550   44.2808   50.7570  H     
32   H         1.0428   45.0374   53.7438  H     
33   H         1.4225   46.6240   54.4302  H     
34   H         3.8376   46.2654   54.0651  H     
35   H         3.1740   44.8921   54.9579  H     
36   H         3.0457   43.5541   52.8949  H     
37   H         4.6918   44.1135   53.1311  H     
38   H         2.2069   46.1474   50.2084  H     
39   H         1.5351   44.7488   51.0306  H     
40   H         0.5636   46.7213   52.0542  H     
41   H         2.1377   47.4875   52.2627  H     
42   H         3.3671   40.5901   49.9874  H     
43   H         2.6815   40.1913   47.6975  H     
44   H         6.2614   41.9180   46.3163  H     
45   H         5.4767   41.6718   50.4538  H     
@<TRIPOS>BOND
     1    1    4 1
     2    1    5 2
     3    1   10 1
     4    2    3 1
     5    2    4 2
     6    2   11 1
     7    3    6 2
     8    5    6 1
     9    5    8 1
    10    6    9 1
    11    7    8 2
    12    7    9 1
    13   10   12 1
    14   11   19 1
    15   12   13 1
    16   13   16 1
    17   13   17 1
    18   14   15 1
    19   14   18 1
    20   15   16 1
    21   17   18 1
    22   19   23 1
    23   19   24 2
    24   20   21 2
    25   20   24 1
    26   21   22 1
    27   22   23 2
    28   22   25 1
    29    7   26 1
    30    9   27 1
    31   11   28 1
    32   12   29 1
    33   12   30 1
    34   13   31 1
    35   14   32 1
    36   14   33 1
    37   15   34 1
    38   15   35 1
    39   16   36 1
    40   16   37 1
    41   17   38 1
    42   17   39 1
    43   18   40 1
    44   18   41 1
    45   20   42 1
    46   21   43 1
    47   23   44 1
    48   24   45 1
@<TRIPOS>PROPERTY_DATA
  Total_Score	| 9.5070
  Crash		| -0.5402
  Polar		| 3.0149
  FragIndex	| 1
  FragRMSD	| 0.490

