@<TRIPOS>MOLECULE
BindingDB_5542
 49 52 0 0 0
SMALL
NO_CHARGES


@<TRIPOS>ATOM
1    C         6.9423   45.2830   50.9664  C     
2    C         7.6356   43.6397   49.3616  C     
3    N         8.9317   44.0510   49.4505  N     
4    N         6.6776   44.2492   50.1226  N     
5    C         8.2793   45.7067   51.0581  C     
6    C         9.2518   45.0615   50.2993  C     
7    C        10.1889   46.5721   51.5324  C     
8    N         8.8735   46.6417   51.8127  N     
9    N        10.4269   45.6185   50.6195  N     
10   O         5.9954   45.8437   51.7776  O     
11   N         7.3453   42.6501   48.4866  N     
12   C         4.7144   46.1762   51.2093  C     
13   C         3.6276   45.0775   51.4407  C     
14   C         1.8108   45.8917   53.7383  C     
15   C         3.2462   45.3510   53.9752  C     
16   C         3.6993   44.3953   52.8414  C     
17   C         2.1773   45.6120   51.1992  C     
18   C         1.6347   46.5284   52.3329  C     
19   C         6.1475   42.0231   48.3174  C     
20   C         4.1446   40.8922   49.1565  C     
21   C         3.7536   40.6034   47.8322  C     
22   C         4.5675   41.0142   46.7574  C     
23   C         5.7626   41.7038   47.0009  C     
24   C         5.3311   41.6076   49.3980  C     
25   O         2.6048   39.9151   47.5540  O     
26   C         2.7286   38.4968   47.7686  C     
27   H        10.9077   47.1459   51.9777  H     
28   H        11.2982   45.3672   50.2754  H     
29   H         8.0638   42.3812   47.8939  H     
30   H         4.4077   47.0999   51.7040  H     
31   H         4.7901   46.3968   50.1395  H     
32   H         3.8143   44.2901   50.6997  H     
33   H         1.0930   45.0756   53.8484  H     
34   H         1.5816   46.6385   54.5051  H     
35   H         3.9438   46.1870   54.0486  H     
36   H         3.2788   44.8175   54.9286  H     
37   H         3.0507   43.5060   52.8453  H     
38   H         4.7182   44.0545   53.0363  H     
39   H         2.1381   46.1489   50.2511  H     
40   H         1.5043   44.7555   51.1080  H     
41   H         0.5724   46.7174   52.1580  H     
42   H         2.1437   47.4961   52.3087  H     
43   H         3.5813   40.5706   49.9429  H     
44   H         4.2896   40.7905   45.7997  H     
45   H         6.3610   41.9533   46.2108  H     
46   H         5.6276   41.7664   50.3622  H     
47   H         3.6086   38.0713   47.2630  H     
48   H         1.8365   38.0180   47.3536  H     
49   H         2.7772   38.2770   48.8412  H     
@<TRIPOS>BOND
     1    1    4 1
     2    1    5 2
     3    1   10 1
     4    2    3 1
     5    2    4 2
     6    2   11 1
     7    3    6 2
     8    5    6 1
     9    5    8 1
    10    6    9 1
    11    7    8 2
    12    7    9 1
    13   10   12 1
    14   11   19 1
    15   12   13 1
    16   13   16 1
    17   13   17 1
    18   14   15 1
    19   14   18 1
    20   15   16 1
    21   17   18 1
    22   19   23 1
    23   19   24 2
    24   20   21 2
    25   20   24 1
    26   21   22 1
    27   21   25 1
    28   22   23 2
    29   25   26 1
    30    7   27 1
    31    9   28 1
    32   11   29 1
    33   12   30 1
    34   12   31 1
    35   13   32 1
    36   14   33 1
    37   14   34 1
    38   15   35 1
    39   15   36 1
    40   16   37 1
    41   16   38 1
    42   17   39 1
    43   17   40 1
    44   18   41 1
    45   18   42 1
    46   20   43 1
    47   22   44 1
    48   23   45 1
    49   24   46 1
    50   26   47 1
    51   26   48 1
    52   26   49 1
@<TRIPOS>PROPERTY_DATA
  Total_Score	| 10.4665
  Crash		| -0.8836
  Polar		| 2.9844
  FragIndex	| 1
  FragRMSD	| 0.504

