@<TRIPOS>MOLECULE
BindingDB_5530
 45 48 0 0 0
SMALL
NO_CHARGES


@<TRIPOS>ATOM
1    C         6.9087   45.2371   50.9888  C     
2    C         7.5487   43.5212   49.4417  C     
3    N         8.8519   43.9231   49.5028  N     
4    N         6.6112   44.1852   50.1769  N     
5    C         8.2566   45.6246   51.0751  C     
6    C         9.2059   44.9540   50.3093  C     
7    C        10.1645   46.5449   51.4292  C     
8    N         8.8624   46.6058   51.7626  N     
9    N        10.3788   45.5488   50.5455  N     
10   O         5.9946   45.9215   51.7431  O     
11   N         7.2509   42.5058   48.5990  N     
12   C         4.6929   46.1914   51.1879  C     
13   C         3.6439   45.0746   51.4975  C     
14   C         1.7409   45.9114   53.6987  C     
15   C         3.1945   45.4709   54.0161  C     
16   C         3.7246   44.4855   52.9447  C     
17   C         2.1855   45.5535   51.1927  C     
18   C         1.6050   46.5082   52.2746  C     
19   C         6.0352   41.9151   48.3971  C     
20   C         3.9317   40.9208   49.1707  C     
21   C         3.5690   40.6423   47.8402  C     
22   C         4.4432   40.9724   46.7903  C     
23   C         5.6755   41.5901   47.0694  C     
24   C         5.1593   41.5509   49.4475  C     
25   H        10.8835   47.1730   51.7855  H     
26   H        11.2295   45.3224   50.1468  H     
27   H         7.9688   42.2058   48.0201  H     
28   H         4.3645   47.1256   51.6469  H     
29   H         4.7418   46.3600   50.1016  H     
30   H         3.8575   44.2410   50.8068  H     
31   H         1.0747   45.0483   53.7915  H     
32   H         1.4200   46.6567   54.4342  H     
33   H         3.8407   46.3507   54.0652  H     
34   H         3.2180   44.9883   54.9939  H     
35   H         3.1225   43.5731   52.9878  H     
36   H         4.7564   44.2102   53.1798  H     
37   H         2.1539   46.0459   50.2211  H     
38   H         1.5363   44.6757   51.1255  H     
39   H         0.5527   46.6890   52.0662  H     
40   H         2.1181   47.4721   52.2366  H     
41   H         3.3059   40.6572   49.9353  H     
42   H         2.6778   40.1856   47.6373  H     
43   H         4.1862   40.7603   45.8254  H     
44   H         6.3045   41.8202   46.2954  H     
45   H         5.4198   41.7177   50.4228  H     
@<TRIPOS>BOND
     1    1    4 1
     2    1    5 2
     3    1   10 1
     4    2    3 1
     5    2    4 2
     6    2   11 1
     7    3    6 2
     8    5    6 1
     9    5    8 1
    10    6    9 1
    11    7    8 2
    12    7    9 1
    13   10   12 1
    14   11   19 1
    15   12   13 1
    16   13   16 1
    17   13   17 1
    18   14   15 1
    19   14   18 1
    20   15   16 1
    21   17   18 1
    22   19   23 1
    23   19   24 2
    24   20   21 2
    25   20   24 1
    26   21   22 1
    27   22   23 2
    28    7   25 1
    29    9   26 1
    30   11   27 1
    31   12   28 1
    32   12   29 1
    33   13   30 1
    34   14   31 1
    35   14   32 1
    36   15   33 1
    37   15   34 1
    38   16   35 1
    39   16   36 1
    40   17   37 1
    41   17   38 1
    42   18   39 1
    43   18   40 1
    44   20   41 1
    45   21   42 1
    46   22   43 1
    47   23   44 1
    48   24   45 1
@<TRIPOS>PROPERTY_DATA
  Total_Score	| 9.7161
  Crash		| -0.5046
  Polar		| 3.0080
  FragIndex	| 1
  FragRMSD	| 0.480

