@<TRIPOS>MOLECULE
BindingDB_5536
 49 52 0 0 0
SMALL
NO_CHARGES


@<TRIPOS>ATOM
1    C         6.8833   45.1991   51.0136  C     
2    C         7.5909   43.4992   49.4795  C     
3    N         8.8766   43.9426   49.5435  N     
4    N         6.6217   44.1286   50.2102  N     
5    C         8.2134   45.6374   51.0937  C     
6    C         9.1882   44.9906   50.3431  C     
7    C        10.0972   46.6049   51.4601  C     
8    N         8.7903   46.6342   51.7842  N     
9    N        10.3449   45.6133   50.5871  N     
10   O         5.9411   45.8522   51.7595  O     
11   N         7.3318   42.4737   48.6428  N     
12   C         4.6654   46.1564   51.1627  C     
13   C         3.5635   45.0864   51.4443  C     
14   C         1.7696   45.8839   53.7646  C     
15   C         3.2022   45.3421   54.0007  C     
16   C         3.6533   44.4085   52.8478  C     
17   C         2.1254   45.6599   51.2263  C     
18   C         1.6321   46.5754   52.3843  C     
19   C         6.1208   41.8988   48.4157  C     
20   C         4.0498   40.8320   49.1557  C     
21   C         3.6188   40.7460   47.8197  C     
22   C         4.4272   41.2234   46.7617  C     
23   C         5.7000   41.7528   47.0760  C     
24   C         5.2935   41.4149   49.4552  C     
25   C         3.9498   41.1437   45.3553  C     
26   O         4.5931   42.0886   44.4970  O     
27   H        10.7981   47.2495   51.8283  H     
28   H        11.2100   45.3956   50.2045  H     
29   H         8.0501   42.1975   48.0558  H     
30   H         4.3642   47.1089   51.6001  H     
31   H         4.7496   46.3251   50.0810  H     
32   H         3.7102   44.2931   50.7060  H     
33   H         1.0558   45.0561   53.8228  H     
34   H         1.5181   46.5964   54.5528  H     
35   H         3.9008   46.1794   54.0872  H     
36   H         3.2244   44.7875   54.9445  H     
37   H         3.0104   43.5245   52.8530  H     
38   H         4.6704   44.0590   53.0413  H     
39   H         2.0872   46.2146   50.2855  H     
40   H         1.4261   44.8233   51.1354  H     
41   H         0.5807   46.8294   52.2248  H     
42   H         2.1954   47.5141   52.3910  H     
43   H         3.4599   40.4692   49.9106  H     
44   H         2.7080   40.3280   47.6246  H     
45   H         6.3102   42.0821   46.3201  H     
46   H         5.5963   41.4690   50.4301  H     
47   H         4.1319   40.1377   44.9734  H     
48   H         2.8758   41.3420   45.3063  H     
49   H         4.0670   42.0879   43.6664  H     
@<TRIPOS>BOND
     1    1    4 1
     2    1    5 2
     3    1   10 1
     4    2    3 1
     5    2    4 2
     6    2   11 1
     7    3    6 2
     8    5    6 1
     9    5    8 1
    10    6    9 1
    11    7    8 2
    12    7    9 1
    13   10   12 1
    14   11   19 1
    15   12   13 1
    16   13   16 1
    17   13   17 1
    18   14   15 1
    19   14   18 1
    20   15   16 1
    21   17   18 1
    22   19   23 1
    23   19   24 2
    24   20   21 2
    25   20   24 1
    26   21   22 1
    27   22   23 2
    28   22   25 1
    29   25   26 1
    30    7   27 1
    31    9   28 1
    32   11   29 1
    33   12   30 1
    34   12   31 1
    35   13   32 1
    36   14   33 1
    37   14   34 1
    38   15   35 1
    39   15   36 1
    40   16   37 1
    41   16   38 1
    42   17   39 1
    43   17   40 1
    44   18   41 1
    45   18   42 1
    46   20   43 1
    47   21   44 1
    48   23   45 1
    49   24   46 1
    50   25   47 1
    51   25   48 1
    52   26   49 1
@<TRIPOS>PROPERTY_DATA
  Total_Score	| 10.8152
  Crash		| -0.7943
  Polar		| 4.3932
  FragIndex	| 1
  FragRMSD	| 0.496

