@<TRIPOS>MOLECULE
BindingDB_5558
 49 52 0 0 0
SMALL
NO_CHARGES


@<TRIPOS>ATOM
1    C         6.9247   45.2473   51.0705  C     
2    C         7.6813   43.6784   49.4168  C     
3    N         8.9491   44.1623   49.5018  N     
4    N         6.6981   44.2185   50.2016  N     
5    C         8.2330   45.7500   51.1504  C     
6    C         9.2213   45.1753   50.3584  C     
7    C        10.1034   46.7182   51.5920  C     
8    N         8.7916   46.7178   51.8964  N     
9    N        10.3695   45.7921   50.6549  N     
10   O         5.9469   45.7714   51.8750  O     
11   N         7.4498   42.6756   48.5407  N     
12   C         4.6773   46.1270   51.2846  C     
13   C         3.5613   45.0450   51.4744  C     
14   C         1.6631   45.8235   53.7241  C     
15   C         3.0904   45.2886   54.0071  C     
16   C         3.5823   44.3497   52.8747  C     
17   C         2.1261   45.6079   51.1967  C     
18   C         1.5575   46.5041   52.3340  C     
19   C         6.2845   42.0084   48.3582  C     
20   C         4.6645   41.0260   46.8173  C     
21   C         3.9865   40.4077   47.8872  C     
22   C         4.4449   40.6424   49.2069  C     
23   C         5.5921   41.4181   49.4401  C     
24   C         5.8108   41.8075   47.0430  C     
25   C         2.8309   39.5139   47.6312  C     
26   C         3.2189   38.2971   47.1386  C     
27   N         3.5486   37.2663   46.7431  N     
28   H        10.8077   47.3190   52.0287  H     
29   H        11.2385   45.5887   50.2841  H     
30   H         8.1869   42.3965   47.9773  H     
31   H         4.3864   47.0450   51.7980  H     
32   H         4.7800   46.3639   50.2177  H     
33   H         3.7511   44.2645   50.7256  H     
34   H         0.9532   44.9919   53.7724  H     
35   H         1.3887   46.5441   54.4987  H     
36   H         3.7764   46.1274   54.1208  H     
37   H         3.0905   44.7438   54.9510  H     
38   H         2.9306   43.4657   52.8451  H     
39   H         4.5920   43.9999   53.1106  H     
40   H         2.1197   46.1691   50.2604  H     
41   H         1.4421   44.7678   51.0544  H     
42   H         0.5046   46.7203   52.1328  H     
43   H         2.0885   47.4578   52.3562  H     
44   H         4.3359   40.8822   45.8568  H     
45   H         3.9837   40.2039   50.0114  H     
46   H         5.9580   41.5048   50.3933  H     
47   H         6.3036   42.2150   46.2426  H     
48   H         2.2676   39.3165   48.5465  H     
49   H         2.1663   39.9954   46.9126  H     
@<TRIPOS>BOND
     1    1    4 1
     2    1    5 2
     3    1   10 1
     4    2    3 1
     5    2    4 2
     6    2   11 1
     7    3    6 2
     8    5    6 1
     9    5    8 1
    10    6    9 1
    11    7    8 2
    12    7    9 1
    13   10   12 1
    14   11   19 1
    15   12   13 1
    16   13   16 1
    17   13   17 1
    18   14   15 1
    19   14   18 1
    20   15   16 1
    21   17   18 1
    22   19   23 1
    23   19   24 2
    24   20   21 2
    25   20   24 1
    26   21   22 1
    27   21   25 1
    28   22   23 2
    29   25   26 1
    30   26   27 3
    31    7   28 1
    32    9   29 1
    33   11   30 1
    34   12   31 1
    35   12   32 1
    36   13   33 1
    37   14   34 1
    38   14   35 1
    39   15   36 1
    40   15   37 1
    41   16   38 1
    42   16   39 1
    43   17   40 1
    44   17   41 1
    45   18   42 1
    46   18   43 1
    47   20   44 1
    48   22   45 1
    49   23   46 1
    50   24   47 1
    51   25   48 1
    52   25   49 1
@<TRIPOS>PROPERTY_DATA
  Total_Score	| 10.5999
  Crash		| -1.6549
  Polar		| 3.9057
  FragIndex	| 1
  FragRMSD	| 0.528

