@<TRIPOS>MOLECULE
BindingDB_5538
 49 52 0 0 0
SMALL
NO_CHARGES


@<TRIPOS>ATOM
1    C         6.9349   45.2883   50.9883  C     
2    C         7.6287   43.5631   49.4722  C     
3    N         8.9272   43.9763   49.5591  N     
4    N         6.6676   44.2279   50.1872  N     
5    C         8.2854   45.6966   51.0953  C     
6    C         9.2516   45.0191   50.3629  C     
7    C        10.1800   46.6078   51.4992  C     
8    N         8.8708   46.6704   51.7958  N     
9    N        10.4181   45.6170   50.6275  N     
10   O         5.9986   45.9951   51.6948  O     
11   N         7.3414   42.5424   48.6495  N     
12   C         4.6994   46.1921   51.1017  C     
13   C         3.6521   45.0731   51.4367  C     
14   C         1.7946   45.9164   53.6806  C     
15   C         3.2548   45.4871   53.9639  C     
16   C         3.7650   44.4982   52.8814  C     
17   C         2.1892   45.5496   51.1629  C     
18   C         1.6305   46.5058   52.2572  C     
19   C         6.1257   41.9730   48.4621  C     
20   C         4.0812   40.8813   49.2504  C     
21   C         3.6523   40.7123   47.9186  C     
22   C         4.4578   41.1650   46.8497  C     
23   C         5.6864   41.7827   47.1406  C     
24   C         5.3153   41.5031   49.5278  C     
25   C         5.1951   41.3183   44.1152  C     
26   S         3.8255   40.9302   45.2235  S     
27   H        10.8943   47.2340   51.8812  H     
28   H        11.2820   45.3821   50.2524  H     
29   H         8.0598   42.2339   48.0633  H     
30   H         4.3506   47.1423   51.5042  H     
31   H         4.7572   46.3267   50.0199  H     
32   H         3.8609   44.2466   50.7451  H     
33   H         1.1358   45.0496   53.7876  H     
34   H         1.4893   46.6588   54.4176  H     
35   H         3.9032   46.3675   53.9910  H     
36   H         3.3091   45.0036   54.9433  H     
37   H         3.1668   43.5796   52.9413  H     
38   H         4.7931   44.2114   53.1032  H     
39   H         2.1361   46.0455   50.1890  H     
40   H         1.5393   44.6693   51.1103  H     
41   H         0.5688   46.6874   52.0682  H     
42   H         2.1351   47.4731   52.2070  H     
43   H         3.5088   40.5358   50.0200  H     
44   H         2.7531   40.2500   47.7474  H     
45   H         6.2934   42.1540   46.4013  H     
46   H         5.6332   41.5896   50.4915  H     
47   H         5.4217   42.3733   44.1196  H     
48   H         4.8850   41.0540   43.0785  H     
49   H         6.0716   40.7308   44.3445  H     
@<TRIPOS>BOND
     1    1    4 1
     2    1    5 2
     3    1   10 1
     4    2    3 1
     5    2    4 2
     6    2   11 1
     7    3    6 2
     8    5    6 1
     9    5    8 1
    10    6    9 1
    11    7    8 2
    12    7    9 1
    13   10   12 1
    14   11   19 1
    15   12   13 1
    16   13   16 1
    17   13   17 1
    18   14   15 1
    19   14   18 1
    20   15   16 1
    21   17   18 1
    22   19   23 1
    23   19   24 2
    24   20   21 2
    25   20   24 1
    26   21   22 1
    27   22   23 2
    28   22   26 1
    29   25   26 1
    30    7   27 1
    31    9   28 1
    32   11   29 1
    33   12   30 1
    34   12   31 1
    35   13   32 1
    36   14   33 1
    37   14   34 1
    38   15   35 1
    39   15   36 1
    40   16   37 1
    41   16   38 1
    42   17   39 1
    43   17   40 1
    44   18   41 1
    45   18   42 1
    46   20   43 1
    47   21   44 1
    48   23   45 1
    49   24   46 1
    50   25   47 1
    51   25   48 1
    52   25   49 1
@<TRIPOS>PROPERTY_DATA
  Total_Score	| 10.1330
  Crash		| -0.7672
  Polar		| 3.0336
  FragIndex	| 1
  FragRMSD	| 0.516

