@<TRIPOS>MOLECULE
BindingDB_27941
 70 72 0 0 0
SMALL
NO_CHARGES


@<TRIPOS>ATOM
1    C        80.2173   65.1832   12.8428  C     
2    C        80.5734   63.6966   12.6972  C     
3    N        79.7954   63.0348   13.7037  N     
4    C        78.7344   63.8601   14.2225  C     
5    C        78.7880   65.1516   13.3741  C     
6    C        77.3125   63.1964   14.2160  C     
7    N        76.7804   63.1187   15.5429  N     
8    C        76.2444   62.0575   16.1408  C     
9    O        76.1739   60.9821   15.5610  O     
10   C        80.0868   61.8177   14.2110  C     
11   O        79.5829   61.4969   15.2826  O     
12   C        80.9943   60.8315   13.5986  C     
13   C        80.3451   59.4280   13.2431  C     
14   C        79.4458   58.8449   14.3866  C     
15   C        79.4694   59.5768   11.9490  C     
16   C        81.4716   58.3706   12.9188  C     
17   N        82.1728   60.6745   14.4394  N     
18   C        83.4262   61.0072   14.1252  C     
19   C        84.5333   60.8107   15.0573  C     
20   O        83.6958   61.4498   13.0070  O     
21   N        84.5377   61.9621   15.9950  N     
22   C        84.5087   59.3969   15.7022  C     
23   C        84.7876   61.7066   17.4267  C     
24   C        75.7529   62.1756   17.4431  C     
25   C        74.4413   61.7685   17.8421  C     
26   C        76.6058   62.7540   18.4155  C     
27   C        76.1837   62.9484   19.7407  C     
28   C        74.8912   62.5647   20.1282  C     
29   C        74.0167   61.9685   19.1957  C     
30   C        72.7249   61.5823   19.5781  C     
31   C        71.8890   61.0242   18.6817  C     
32   C        72.2659   60.8483   17.3835  C     
33   C        73.4926   61.2142   16.9583  C     
34   H        80.8886   65.6467   13.5689  H     
35   H        80.2967   65.7140   11.8963  H     
36   H        80.2895   63.3215   11.7111  H     
37   H        81.6479   63.5602   12.8612  H     
38   H        79.0053   64.1280   15.2504  H     
39   H        78.5533   66.0349   13.9621  H     
40   H        78.1113   65.1079   12.5252  H     
41   H        76.5960   63.7896   13.6471  H     
42   H        77.3519   62.2198   13.7265  H     
43   H        76.7832   63.9453   16.0512  H     
44   H        81.3332   61.2160   12.6246  H     
45   H        80.0009   58.8293   15.3302  H     
46   H        79.1283   57.8116   14.1473  H     
47   H        78.5423   59.4431   14.5184  H     
48   H        78.6721   60.3138   12.1094  H     
49   H        79.0030   58.6252   11.6745  H     
50   H        80.0792   59.9159   11.1030  H     
51   H        82.1774   58.7638   12.1735  H     
52   H        81.0375   57.4400   12.5226  H     
53   H        82.0285   58.1252   13.8314  H     
54   H        82.0267   60.2988   15.3340  H     
55   H        85.4810   60.8665   14.5023  H     
56   H        85.2951   62.5929   15.6735  H     
57   H        83.6417   62.4715   15.9128  H     
58   H        83.6815   59.3095   16.4014  H     
59   H        85.4399   59.1988   16.2358  H     
60   H        84.4069   58.6063   14.9354  H     
61   H        83.9571   61.1502   17.8604  H     
62   H        84.8708   62.6679   17.9554  H     
63   H        85.7195   61.1556   17.5568  H     
64   H        77.5591   63.0344   18.1723  H     
65   H        76.8150   63.3726   20.4223  H     
66   H        74.5944   62.7235   21.0930  H     
67   H        72.4132   61.7155   20.5114  H     
68   H        70.9766   60.7481   18.9669  H     
69   H        71.6182   60.4604   16.7376  H     
70   H        73.7024   61.0990   15.9962  H     
@<TRIPOS>BOND
     1    1    2 1
     2    1    5 1
     3    2    3 1
     4    3    4 1
     5    3   10 am
     6    4    5 1
     7    4    6 1
     8    6    7 1
     9    7    8 am
    10    8    9 2
    11    8   24 1
    12   10   11 2
    13   10   12 1
    14   12   13 1
    15   12   17 1
    16   13   14 1
    17   13   15 1
    18   13   16 1
    19   17   18 am
    20   18   19 1
    21   18   20 2
    22   19   21 1
    23   19   22 1
    24   21   23 1
    25   24   25 2
    26   24   26 1
    27   25   29 1
    28   25   33 1
    29   26   27 2
    30   27   28 1
    31   28   29 2
    32   29   30 1
    33   30   31 2
    34   31   32 1
    35   32   33 2
    36    1   34 1
    37    1   35 1
    38    2   36 1
    39    2   37 1
    40    4   38 1
    41    5   39 1
    42    5   40 1
    43    6   41 1
    44    6   42 1
    45    7   43 1
    46   12   44 1
    47   14   45 1
    48   14   46 1
    49   14   47 1
    50   15   48 1
    51   15   49 1
    52   15   50 1
    53   16   51 1
    54   16   52 1
    55   16   53 1
    56   17   54 1
    57   19   55 1
    58   21   56 1
    59   21   57 1
    60   22   58 1
    61   22   59 1
    62   22   60 1
    63   23   61 1
    64   23   62 1
    65   23   63 1
    66   26   64 1
    67   27   65 1
    68   28   66 1
    69   30   67 1
    70   31   68 1
    71   32   69 1
    72   33   70 1
@<TRIPOS>PROPERTY_DATA
  Total_Score	| 11.7004
  Crash		| -2.2539
  Polar		| 5.1641
  FragIndex	| 1
  FragRMSD	| 0.120

