@<TRIPOS>MOLECULE
BindingDB_27926
 73 76 0 0 0
SMALL
NO_CHARGES


@<TRIPOS>ATOM
1    C        75.8087   62.1709   17.4175  C     
2    C        76.2958   62.1053   16.1101  C     
3    N        76.9042   63.1603   15.5763  N     
4    O        76.0872   61.0984   15.4438  O     
5    C        77.3592   63.3218   14.2265  C     
6    C        77.3805   64.8972   12.3900  C     
7    C        78.7199   65.0772   13.1389  C     
8    C        78.7986   63.9201   14.1556  C     
9    C        76.4545   64.3206   13.4641  C     
10   C        79.9729   64.9369   12.2621  C     
11   C        80.3928   63.4642   12.4259  C     
12   N        79.8132   63.0146   13.6618  N     
13   C        80.1658   61.8864   14.3108  C     
14   C        81.0565   60.8213   13.8084  C     
15   O        79.7199   61.7139   15.4438  O     
16   N        82.0381   60.4887   14.8229  N     
17   C        80.2911   59.5441   13.2561  C     
18   C        79.4420   59.9249   11.9927  C     
19   C        81.3357   58.4672   12.8094  C     
20   C        79.3389   58.8827   14.3145  C     
21   C        83.2614   60.9837   14.9545  C     
22   C        84.1146   60.5579   16.0654  C     
23   O        83.6597   61.8313   14.1608  O     
24   N        85.0821   59.4871   15.7015  N     
25   C        84.8238   61.7222   16.8102  C     
26   C        85.5154   59.3816   14.2933  C     
27   C        74.0167   61.8881   19.1005  C     
28   C        74.4974   61.7425   17.7666  C     
29   C        76.6230   62.7265   18.4381  C     
30   C        76.1548   62.8626   19.7554  C     
31   C        74.8549   62.4520   20.0870  C     
32   C        72.7007   61.4721   19.4039  C     
33   C        71.8791   60.9284   18.4000  C     
34   C        72.3844   60.8164   17.0949  C     
35   N        73.6476   61.2241   16.8314  N     
36   H        76.9937   63.9360   16.1490  H     
37   H        77.3267   62.3679   13.6758  H     
38   H        77.0076   65.8458   11.9952  H     
39   H        77.4789   64.1777   11.5689  H     
40   H        78.7189   66.0485   13.6538  H     
41   H        79.1083   64.3159   15.1189  H     
42   H        75.5890   63.8235   13.0185  H     
43   H        76.1064   65.1212   14.1249  H     
44   H        79.7903   65.2058   11.2209  H     
45   H        80.7598   65.5868   12.6593  H     
46   H        80.0080   62.8638   11.5925  H     
47   H        81.4848   63.4162   12.4338  H     
48   H        81.6256   61.1941   12.9518  H     
49   H        81.7657   59.8506   15.4973  H     
50   H        78.6661   60.6532   12.2440  H     
51   H        78.9509   59.0423   11.5664  H     
52   H        80.0824   60.3617   11.2189  H     
53   H        82.0247   58.8845   12.0690  H     
54   H        80.8426   57.5982   12.3604  H     
55   H        81.9238   58.1130   13.6609  H     
56   H        79.8734   58.6790   15.2438  H     
57   H        78.9356   57.9350   13.9420  H     
58   H        78.4890   59.5289   14.5459  H     
59   H        83.4557   60.1143   16.8180  H     
60   H        85.9244   59.6192   16.2685  H     
61   H        84.6773   58.5871   15.9676  H     
62   H        85.4689   62.2829   16.1322  H     
63   H        85.4356   61.3327   17.6274  H     
64   H        84.0863   62.4093   17.2321  H     
65   H        84.6743   59.0795   13.6704  H     
66   H        86.2943   58.6140   14.2253  H     
67   H        85.9218   60.3261   13.9316  H     
68   H        77.5781   63.0266   18.2326  H     
69   H        76.7653   63.2605   20.4720  H     
70   H        74.5239   62.5661   21.0472  H     
71   H        72.3303   61.5571   20.3548  H     
72   H        70.9273   60.6261   18.6127  H     
73   H        71.8093   60.4361   16.3438  H     
@<TRIPOS>BOND
     1    1    2 1
     2    1   28 1
     3    1   29 2
     4    2    3 am
     5    2    4 2
     6    5    3 1
     7    5    8 1
     8    5    9 1
     9    6    7 1
    10    6    9 1
    11    7    8 1
    12    7   10 1
    13    8   12 1
    14   10   11 1
    15   11   12 1
    16   12   13 am
    17   13   14 1
    18   13   15 2
    19   14   16 1
    20   14   17 1
    21   16   21 am
    22   17   18 1
    23   17   19 1
    24   17   20 1
    25   21   22 1
    26   21   23 2
    27   22   24 1
    28   22   25 1
    29   24   26 1
    30   27   28 2
    31   27   31 1
    32   27   32 1
    33   28   35 1
    34   29   30 1
    35   30   31 2
    36   32   33 2
    37   33   34 1
    38   34   35 2
    39    3   36 1
    40    5   37 1
    41    6   38 1
    42    6   39 1
    43    7   40 1
    44    8   41 1
    45    9   42 1
    46    9   43 1
    47   10   44 1
    48   10   45 1
    49   11   46 1
    50   11   47 1
    51   14   48 1
    52   16   49 1
    53   18   50 1
    54   18   51 1
    55   18   52 1
    56   19   53 1
    57   19   54 1
    58   19   55 1
    59   20   56 1
    60   20   57 1
    61   20   58 1
    62   22   59 1
    63   24   60 1
    64   24   61 1
    65   25   62 1
    66   25   63 1
    67   25   64 1
    68   26   65 1
    69   26   66 1
    70   26   67 1
    71   29   68 1
    72   30   69 1
    73   31   70 1
    74   32   71 1
    75   33   72 1
    76   34   73 1
@<TRIPOS>PROPERTY_DATA
  Total_Score	| 10.5826
  Crash		| -1.9936
  Polar		| 6.9310
  FragIndex	| 1
  FragRMSD	| 0.378

