@<TRIPOS>MOLECULE
BindingDB_27927
 71 74 0 0 0
SMALL
NO_CHARGES


@<TRIPOS>ATOM
1    C        75.8744   62.3241   17.3650  C     
2    C        76.2519   62.2255   16.0404  C     
3    N        76.9186   63.2321   15.4774  N     
4    O        75.9445   61.2282   15.3859  O     
5    C        77.3114   63.3588   14.1160  C     
6    C        77.2628   64.8801   12.2136  C     
7    C        78.6211   65.0955   12.9176  C     
8    C        78.7310   63.9945   13.9952  C     
9    C        76.3719   64.2887   13.3131  C     
10   C        79.8721   64.9210   12.0394  C     
11   C        80.3748   63.4933   12.3273  C     
12   N        79.7622   63.0778   13.5626  N     
13   C        80.1025   61.9701   14.2550  C     
14   C        81.0070   60.8966   13.8087  C     
15   O        79.6041   61.8196   15.3671  O     
16   N        81.9691   60.6255   14.8525  N     
17   C        80.2715   59.5585   13.3700  C     
18   C        79.3907   59.7971   12.0942  C     
19   C        81.3422   58.4724   12.9887  C     
20   C        79.3485   58.9613   14.4881  C     
21   C        83.2537   60.9737   14.9120  C     
22   C        84.0936   60.5682   16.0431  C     
23   O        83.7301   61.6965   14.0434  O     
24   N        85.0949   59.4946   15.7603  N     
25   C        84.7581   61.7913   16.7352  C     
26   C        85.6343   59.3192   14.3879  C     
27   C        74.1497   62.5306   19.0850  C     
28   C        74.4988   62.3382   17.7418  C     
29   C        76.8538   62.4510   18.4015  C     
30   C        76.4819   62.6174   19.7461  C     
31   C        72.9723   62.6138   19.7214  C     
32   C        75.1202   62.6631   20.0752  C     
33   O        74.5679   62.8399   21.3064  O     
34   C        73.2538   62.7859   21.0192  C     
35   H        77.1562   63.9576   16.0730  H     
36   H        77.3094   62.3746   13.6328  H     
37   H        76.8634   65.8213   11.8228  H     
38   H        77.3561   64.1633   11.3881  H     
39   H        78.6200   66.0962   13.3839  H     
40   H        79.0487   64.4616   14.9326  H     
41   H        75.5230   63.7493   12.8886  H     
42   H        75.9967   65.1012   13.9506  H     
43   H        79.6597   65.0795   10.9816  H     
44   H        80.6323   65.6445   12.3585  H     
45   H        80.0857   62.8100   11.5171  H     
46   H        81.4650   63.5145   12.4043  H     
47   H        81.5439   61.2384   12.9180  H     
48   H        81.6243   60.1260   15.6111  H     
49   H        78.6055   60.5341   12.3003  H     
50   H        78.9046   58.8644   11.7735  H     
51   H        80.0060   60.1658   11.2634  H     
52   H        82.0039   58.8386   12.1967  H     
53   H        80.8672   57.5515   12.6287  H     
54   H        81.9601   58.2101   13.8563  H     
55   H        79.8954   58.8314   15.4212  H     
56   H        78.9541   57.9836   14.1932  H     
57   H        78.4958   59.6150   14.6824  H     
58   H        83.4385   60.1193   16.8010  H     
59   H        85.9079   59.6673   16.3621  H     
60   H        84.6886   58.5899   16.0345  H     
61   H        85.4735   62.2851   16.0675  H     
62   H        85.2875   61.4631   17.6355  H     
63   H        83.9841   62.5155   17.0217  H     
64   H        84.8616   58.9253   13.7180  H     
65   H        86.4463   58.5874   14.4319  H     
66   H        86.0273   60.2632   13.9824  H     
67   H        73.7570   62.2518   17.0383  H     
68   H        77.8448   62.4194   18.1804  H     
69   H        77.1943   62.7134   20.4723  H     
70   H        72.0653   62.5526   19.3257  H     
71   H        72.5499   62.8842   21.7248  H     
@<TRIPOS>BOND
     1    1    2 1
     2    1   28 1
     3    1   29 2
     4    2    3 am
     5    2    4 2
     6    5    3 1
     7    5    8 1
     8    5    9 1
     9    6    7 1
    10    6    9 1
    11    7    8 1
    12    7   10 1
    13    8   12 1
    14   10   11 1
    15   11   12 1
    16   12   13 am
    17   13   14 1
    18   13   15 2
    19   14   16 1
    20   14   17 1
    21   16   21 am
    22   17   18 1
    23   17   19 1
    24   17   20 1
    25   21   22 1
    26   21   23 2
    27   22   24 1
    28   22   25 1
    29   24   26 1
    30   27   28 2
    31   27   31 1
    32   27   32 1
    33   29   30 1
    34   30   32 2
    35   31   34 2
    36   32   33 1
    37   33   34 1
    38    3   35 1
    39    5   36 1
    40    6   37 1
    41    6   38 1
    42    7   39 1
    43    8   40 1
    44    9   41 1
    45    9   42 1
    46   10   43 1
    47   10   44 1
    48   11   45 1
    49   11   46 1
    50   14   47 1
    51   16   48 1
    52   18   49 1
    53   18   50 1
    54   18   51 1
    55   19   52 1
    56   19   53 1
    57   19   54 1
    58   20   55 1
    59   20   56 1
    60   20   57 1
    61   22   58 1
    62   24   59 1
    63   24   60 1
    64   25   61 1
    65   25   62 1
    66   25   63 1
    67   26   64 1
    68   26   65 1
    69   26   66 1
    70   28   67 1
    71   29   68 1
    72   30   69 1
    73   31   70 1
    74   34   71 1
@<TRIPOS>PROPERTY_DATA
  Total_Score	| 10.4293
  Crash		| -2.0260
  Polar		| 6.8366
  FragIndex	| 1
  FragRMSD	| 0.429

