@<TRIPOS>MOLECULE
BindingDB_27931
 70 73 0 0 0
SMALL
NO_CHARGES


@<TRIPOS>ATOM
1    C        75.6596   62.2259   17.3907  C     
2    C        76.0942   62.1514   16.0616  C     
3    N        76.9601   63.0426   15.5935  N     
4    O        75.5784   61.3431   15.2897  O     
5    C        77.3872   63.2110   14.2351  C     
6    C        77.4319   64.8022   12.3986  C     
7    C        78.7404   65.0085   13.1975  C     
8    C        78.8203   63.8294   14.1815  C     
9    C        76.4831   64.1878   13.4428  C     
10   C        80.0357   64.9267   12.3783  C     
11   C        80.5179   63.4777   12.5359  C     
12   N        79.8560   62.9492   13.6912  N     
13   C        80.1398   61.7759   14.2806  C     
14   C        81.0820   60.7532   13.7930  C     
15   O        79.5999   61.5239   15.3520  O     
16   N        82.0388   60.4948   14.8457  N     
17   C        80.3930   59.4216   13.2650  C     
18   C        79.4134   58.7515   14.3006  C     
19   C        79.5696   59.7482   11.9601  C     
20   C        81.4811   58.3507   12.8815  C     
21   C        83.2756   60.9754   14.9642  C     
22   C        84.1160   60.5843   16.1021  C     
23   O        83.7098   61.7790   14.1528  O     
24   N        85.1162   59.5159   15.7892  N     
25   C        84.7902   61.7989   16.7953  C     
26   C        85.7009   59.4217   14.4371  C     
27   C        73.9317   61.8845   19.0763  C     
28   C        74.4017   61.6844   17.7667  C     
29   C        76.4310   62.8939   18.3906  C     
30   C        75.9508   63.0663   19.7074  C     
31   N        72.7890   61.5490   19.6778  N     
32   C        74.6800   62.5703   20.0157  C     
33   N        73.9086   62.5921   21.1080  N     
34   N        72.8182   61.9895   20.8648  N     
35   H        77.3191   63.6673   16.2429  H     
36   H        77.3903   62.2340   13.7344  H     
37   H        77.0477   65.7502   12.0177  H     
38   H        77.5815   64.1006   11.5667  H     
39   H        78.6832   65.9601   13.7436  H     
40   H        79.1239   64.2122   15.1578  H     
41   H        75.6310   63.6725   12.9783  H     
42   H        76.1042   64.9813   14.1007  H     
43   H        79.8867   65.1932   11.3280  H     
44   H        80.7788   65.6152   12.7982  H     
45   H        80.2761   62.8910   11.6463  H     
46   H        81.5954   63.4818   12.6793  H     
47   H        81.6291   61.1555   12.9426  H     
48   H        81.7501   59.8860   15.5342  H     
49   H        79.9157   58.6008   15.2611  H     
50   H        79.0529   57.7772   13.9479  H     
51   H        78.5280   59.3870   14.4621  H     
52   H        78.8274   60.5337   12.1513  H     
53   H        79.0397   58.8673   11.5851  H     
54   H        80.2385   60.1107   11.1691  H     
55   H        82.2275   58.7799   12.2065  H     
56   H        81.0298   57.4838   12.3820  H     
57   H        81.9984   57.9940   13.7709  H     
58   H        83.4780   60.1372   16.8665  H     
59   H        85.8965   59.6539   16.4281  H     
60   H        84.7048   58.6114   16.0219  H     
61   H        85.4402   62.3383   16.1192  H     
62   H        85.3813   61.4571   17.6426  H     
63   H        84.0347   62.4811   17.1702  H     
64   H        84.9457   59.1455   13.7042  H     
65   H        86.4695   58.6508   14.4514  H     
66   H        86.1647   60.3667   14.1446  H     
67   H        73.8022   61.1917   17.1018  H     
68   H        77.3568   63.2689   18.1735  H     
69   H        76.5062   63.5625   20.4105  H     
70   H        74.1457   63.0184   21.9491  H     
@<TRIPOS>BOND
     1    1    2 1
     2    1   28 1
     3    1   29 2
     4    2    3 am
     5    2    4 2
     6    5    3 1
     7    5    8 1
     8    5    9 1
     9    6    7 1
    10    6    9 1
    11    7    8 1
    12    7   10 1
    13    8   12 1
    14   10   11 1
    15   11   12 1
    16   12   13 am
    17   13   14 1
    18   13   15 2
    19   14   16 1
    20   14   17 1
    21   16   21 am
    22   17   18 1
    23   17   19 1
    24   17   20 1
    25   21   22 1
    26   21   23 2
    27   22   24 1
    28   22   25 1
    29   24   26 1
    30   27   28 2
    31   27   31 1
    32   27   32 1
    33   29   30 1
    34   30   32 2
    35   31   34 2
    36   32   33 1
    37   33   34 1
    38    3   35 1
    39    5   36 1
    40    6   37 1
    41    6   38 1
    42    7   39 1
    43    8   40 1
    44    9   41 1
    45    9   42 1
    46   10   43 1
    47   10   44 1
    48   11   45 1
    49   11   46 1
    50   14   47 1
    51   16   48 1
    52   18   49 1
    53   18   50 1
    54   18   51 1
    55   19   52 1
    56   19   53 1
    57   19   54 1
    58   20   55 1
    59   20   56 1
    60   20   57 1
    61   22   58 1
    62   24   59 1
    63   24   60 1
    64   25   61 1
    65   25   62 1
    66   25   63 1
    67   26   64 1
    68   26   65 1
    69   26   66 1
    70   28   67 1
    71   29   68 1
    72   30   69 1
    73   33   70 1
@<TRIPOS>PROPERTY_DATA
  Total_Score	| 9.3262
  Crash		| -2.4510
  Polar		| 6.5141
  FragIndex	| 1
  FragRMSD	| 0.387

