@<TRIPOS>MOLECULE
BindingDB_27921
 77 80 0 0 0
SMALL
NO_CHARGES


@<TRIPOS>ATOM
1    C        75.1091   61.8974   16.7197  C     
2    C        76.0903   61.9142   15.7358  C     
3    N        76.5660   63.0805   15.3194  N     
4    O        76.3344   60.8644   15.1409  O     
5    C        77.2749   63.3315   14.0936  C     
6    C        77.6064   65.1345   12.4698  C     
7    C        78.7749   65.2160   13.4767  C     
8    C        78.7035   63.9237   14.3196  C     
9    C        76.5160   64.3897   13.2602  C     
10   C        80.1817   65.2071   12.8586  C     
11   C        80.5973   63.7230   12.8542  C     
12   N        79.7805   63.0816   13.8523  N     
13   C        80.0493   61.8734   14.3817  C     
14   C        80.9982   60.8801   13.8407  C     
15   O        79.4218   61.5462   15.3858  O     
16   N        81.9642   60.6081   14.8815  N     
17   C        80.3516   59.5328   13.3012  C     
18   C        79.3421   58.8556   14.2992  C     
19   C        79.5908   59.8033   11.9516  C     
20   C        81.4912   58.5038   12.9828  C     
21   C        83.2187   61.0240   14.9527  C     
22   C        84.1168   60.6119   16.0320  C     
23   O        83.6549   61.7947   14.1037  O     
24   N        85.0903   59.5387   15.6700  N     
25   C        84.8415   61.8313   16.6650  C     
26   C        85.6035   59.4179   14.2847  C     
27   C        75.2989   62.3750   18.0497  C     
28   C        73.8565   61.3875   16.3442  C     
29   C        72.8041   61.3091   17.2606  C     
30   C        72.9584   61.7315   18.5972  C     
31   C        74.2077   62.3053   18.9901  C     
32   C        74.4296   62.8518   20.2780  C     
33   C        75.6325   63.3385   20.6354  C     
34   C        76.6836   63.3293   19.7746  C     
35   C        76.5340   62.8789   18.5076  C     
36   C        71.7854   61.4968   19.4866  C     
37   H        76.3101   63.8701   15.8397  H     
38   H        77.3583   62.4237   13.4817  H     
39   H        77.2725   66.1314   12.1639  H     
40   H        77.8843   64.5446   11.5893  H     
41   H        78.6434   66.1031   14.1155  H     
42   H        78.8674   64.1691   15.3758  H     
43   H        75.7857   63.9222   12.5828  H     
44   H        75.9971   65.1082   13.9106  H     
45   H        80.2051   65.6529   11.8586  H     
46   H        80.8600   65.7690   13.5083  H     
47   H        80.3986   63.2788   11.8729  H     
48   H        81.6714   63.6510   13.0793  H     
49   H        81.5164   61.3118   12.9742  H     
50   H        81.6547   60.0410   15.5979  H     
51   H        79.7895   58.7587   15.2910  H     
52   H        79.0702   57.8512   13.9502  H     
53   H        78.4274   59.4394   14.4009  H     
54   H        78.7799   60.5118   12.0984  H     
55   H        79.1566   58.8787   11.5635  H     
56   H        80.2683   60.2153   11.1982  H     
57   H        82.2149   58.9339   12.2858  H     
58   H        81.0823   57.5952   12.5402  H     
59   H        82.0165   58.2268   13.8984  H     
60   H        83.5251   60.1840   16.8500  H     
61   H        85.9227   59.6680   16.2513  H     
62   H        84.6833   58.6341   15.9362  H     
63   H        85.4844   62.3206   15.9330  H     
64   H        85.4539   61.5278   17.5145  H     
65   H        84.1195   62.5707   17.0224  H     
66   H        84.8014   59.1452   13.5978  H     
67   H        86.3576   58.6264   14.2600  H     
68   H        86.0699   60.3525   13.9614  H     
69   H        73.6952   61.0527   15.3911  H     
70   H        71.9202   60.9105   16.9372  H     
71   H        73.6942   62.9233   20.9407  H     
72   H        75.7517   63.7327   21.5400  H     
73   H        77.5673   63.6677   20.0724  H     
74   H        77.3283   62.8968   17.9051  H     
75   H        70.9806   62.1741   19.1957  H     
76   H        71.9996   61.6383   20.5428  H     
77   H        71.4411   60.4656   19.3721  H     
@<TRIPOS>BOND
     1    1    2 1
     2    1   27 2
     3    1   28 1
     4    2    3 am
     5    2    4 2
     6    5    3 1
     7    5    8 1
     8    5    9 1
     9    6    7 1
    10    6    9 1
    11    7    8 1
    12    7   10 1
    13    8   12 1
    14   10   11 1
    15   11   12 1
    16   12   13 am
    17   13   14 1
    18   13   15 2
    19   14   16 1
    20   14   17 1
    21   16   21 am
    22   17   18 1
    23   17   19 1
    24   17   20 1
    25   21   22 1
    26   21   23 2
    27   22   24 1
    28   22   25 1
    29   24   26 1
    30   27   31 1
    31   27   35 1
    32   28   29 2
    33   29   30 1
    34   30   31 2
    35   30   36 1
    36   31   32 1
    37   32   33 2
    38   33   34 1
    39   34   35 2
    40    3   37 1
    41    5   38 1
    42    6   39 1
    43    6   40 1
    44    7   41 1
    45    8   42 1
    46    9   43 1
    47    9   44 1
    48   10   45 1
    49   10   46 1
    50   11   47 1
    51   11   48 1
    52   14   49 1
    53   16   50 1
    54   18   51 1
    55   18   52 1
    56   18   53 1
    57   19   54 1
    58   19   55 1
    59   19   56 1
    60   20   57 1
    61   20   58 1
    62   20   59 1
    63   22   60 1
    64   24   61 1
    65   24   62 1
    66   25   63 1
    67   25   64 1
    68   25   65 1
    69   26   66 1
    70   26   67 1
    71   26   68 1
    72   28   69 1
    73   29   70 1
    74   32   71 1
    75   33   72 1
    76   34   73 1
    77   35   74 1
    78   36   75 1
    79   36   76 1
    80   36   77 1
@<TRIPOS>PROPERTY_DATA
  Total_Score	| 11.1692
  Crash		| -2.3257
  Polar		| 6.4620
  FragIndex	| 1
  FragRMSD	| 0.783

