@<TRIPOS>MOLECULE
BindingDB_27932
 69 72 0 0 0
SMALL
NO_CHARGES


@<TRIPOS>ATOM
1    C        75.8935   62.0354   17.2869  C     
2    C        76.2476   62.0353   15.9793  C     
3    N        76.9144   63.0863   15.5153  N     
4    O        75.9068   61.0991   15.2738  O     
5    C        77.3502   63.3242   14.1732  C     
6    C        77.3646   64.9837   12.4167  C     
7    C        78.7240   65.1082   13.1413  C     
8    C        78.7846   63.9326   14.1419  C     
9    C        76.4491   64.3629   13.4804  C     
10   C        79.9702   64.9417   12.2619  C     
11   C        80.3667   63.4606   12.4222  C     
12   N        79.7953   63.0197   13.6642  N     
13   C        80.1395   61.8918   14.3213  C     
14   C        80.9925   60.8052   13.8248  C     
15   O        79.6671   61.7176   15.4452  O     
16   N        82.0029   60.5305   14.8319  N     
17   C        80.2211   59.4841   13.3986  C     
18   C        79.3152   59.7532   12.1492  C     
19   C        81.2800   58.3961   12.9972  C     
20   C        79.3049   58.8925   14.5208  C     
21   C        83.2363   61.0032   14.9245  C     
22   C        84.0925   60.6226   16.0558  C     
23   O        83.6984   61.7448   14.0437  O     
24   N        85.1160   59.5493   15.8163  N     
25   C        84.6720   61.8805   16.7626  C     
26   C        85.7618   59.4152   14.4858  C     
27   C        74.2251   62.1591   18.9325  C     
28   C        74.5842   61.9284   17.6342  C     
29   C        76.8413   62.3153   18.2652  C     
30   C        76.4620   62.4987   19.5636  C     
31   N        73.0913   62.2118   19.5104  N     
32   C        75.1327   62.4586   19.8543  C     
33   N        74.4865   62.6439   20.9418  N     
34   O        73.2174   62.5083   20.7588  O     
35   H        77.1316   63.7777   16.1608  H     
36   H        77.3192   62.4087   13.5731  H     
37   H        76.9893   65.9569   12.0879  H     
38   H        77.4312   64.3165   11.5515  H     
39   H        78.7628   66.0732   13.6609  H     
40   H        79.0729   64.3251   15.1224  H     
41   H        75.5643   63.8975   13.0355  H     
42   H        76.1231   65.1356   14.1872  H     
43   H        79.7889   65.2057   11.2152  H     
44   H        80.7736   65.5780   12.6527  H     
45   H        79.9680   62.8697   11.5951  H     
46   H        81.4538   63.3890   12.4385  H     
47   H        81.4863   61.1532   12.9106  H     
48   H        81.7425   59.9361   15.5579  H     
49   H        78.5324   60.4762   12.3836  H     
50   H        78.8265   58.8324   11.8224  H     
51   H        79.8989   60.1423   11.3121  H     
52   H        81.8842   58.7359   12.1530  H     
53   H        80.7951   57.4624   12.7103  H     
54   H        81.9532   58.1788   13.8319  H     
55   H        79.8495   58.7909   15.4582  H     
56   H        78.9276   57.9044   14.2387  H     
57   H        78.4307   59.5254   14.6979  H     
58   H        83.4536   60.1464   16.8166  H     
59   H        85.8822   59.6970   16.4790  H     
60   H        84.6735   58.6483   16.0362  H     
61   H        85.1969   62.5294   16.0574  H     
62   H        85.3573   61.5793   17.5614  H     
63   H        83.8432   62.4494   17.2133  H     
64   H        85.0156   59.2232   13.6994  H     
65   H        86.4413   58.5536   14.5385  H     
66   H        86.3483   60.3111   14.2494  H     
67   H        73.8744   61.7441   16.9593  H     
68   H        77.8060   62.3451   18.0447  H     
69   H        77.1380   62.6981   20.2639  H     
@<TRIPOS>BOND
     1    1    2 1
     2    1   28 2
     3    1   29 1
     4    2    3 am
     5    2    4 2
     6    5    3 1
     7    5    8 1
     8    5    9 1
     9    6    7 1
    10    6    9 1
    11    7    8 1
    12    7   10 1
    13    8   12 1
    14   10   11 1
    15   11   12 1
    16   12   13 am
    17   13   14 1
    18   13   15 2
    19   14   16 1
    20   14   17 1
    21   16   21 am
    22   17   18 1
    23   17   19 1
    24   17   20 1
    25   21   22 1
    26   21   23 2
    27   22   24 1
    28   22   25 1
    29   24   26 1
    30   27   28 1
    31   27   31 2
    32   27   32 1
    33   29   30 2
    34   30   32 1
    35   31   34 1
    36   32   33 2
    37   33   34 1
    38    3   35 1
    39    5   36 1
    40    6   37 1
    41    6   38 1
    42    7   39 1
    43    8   40 1
    44    9   41 1
    45    9   42 1
    46   10   43 1
    47   10   44 1
    48   11   45 1
    49   11   46 1
    50   14   47 1
    51   16   48 1
    52   18   49 1
    53   18   50 1
    54   18   51 1
    55   19   52 1
    56   19   53 1
    57   19   54 1
    58   20   55 1
    59   20   56 1
    60   20   57 1
    61   22   58 1
    62   24   59 1
    63   24   60 1
    64   25   61 1
    65   25   62 1
    66   25   63 1
    67   26   64 1
    68   26   65 1
    69   26   66 1
    70   28   67 1
    71   29   68 1
    72   30   69 1
@<TRIPOS>PROPERTY_DATA
  Total_Score	| 10.1260
  Crash		| -2.3541
  Polar		| 6.7199
  FragIndex	| 1
  FragRMSD	| 0.411

