@<TRIPOS>MOLECULE
BindingDB_27924
 68 70 0 0 0
SMALL
NO_CHARGES


@<TRIPOS>ATOM
1    C        76.7305   62.5035   18.2753  C     
2    C        75.8854   62.0159   17.2440  C     
3    C        74.5745   61.6021   17.5909  C     
4    C        74.1024   61.7329   18.9099  C     
5    C        74.9460   62.2512   19.9109  C     
6    C        76.2649   62.6218   19.5957  C     
7    C        76.3265   61.9947   15.9258  C     
8    N        76.9084   63.0760   15.4326  N     
9    O        76.0864   61.0198   15.2181  O     
10   C        77.3589   63.3172   14.0950  C     
11   C        77.3926   64.9994   12.3598  C     
12   C        78.7511   65.0995   13.0828  C     
13   C        78.7934   63.9255   14.0803  C     
14   C        76.4698   64.3774   13.4159  C     
15   C        79.9971   64.9260   12.2014  C     
16   C        80.4291   63.4646   12.4016  C     
17   N        79.8199   63.0188   13.6244  N     
18   C        80.1359   61.8939   14.2877  C     
19   C        81.0595   60.8318   13.8329  C     
20   O        79.6514   61.7252   15.4039  O     
21   N        82.0097   60.5711   14.8899  N     
22   C        80.3526   59.4995   13.3425  C     
23   C        81.4422   58.4127   13.0107  C     
24   C        79.3657   58.8997   14.4033  C     
25   C        79.5583   59.7779   12.0261  C     
26   C        83.2571   61.0039   14.9853  C     
27   C        84.1181   60.6097   16.1042  C     
28   O        83.7124   61.7609   14.1337  O     
29   N        85.1406   59.5474   15.8358  N     
30   C        84.7987   61.8381   16.7650  C     
31   C        85.7567   59.3890   14.4995  C     
32   H        77.6940   62.7751   18.0693  H     
33   H        73.9351   61.2424   16.8752  H     
34   H        73.1464   61.4590   19.1439  H     
35   H        74.6012   62.3589   20.8651  H     
36   H        76.8866   62.9836   20.3248  H     
37   H        76.9936   63.8295   16.0392  H     
38   H        77.3297   62.4056   13.4867  H     
39   H        77.0295   65.9800   12.0402  H     
40   H        77.4506   64.3392   11.4870  H     
41   H        78.7971   66.0532   13.6187  H     
42   H        79.0683   64.3121   15.0652  H     
43   H        75.5781   63.9337   12.9626  H     
44   H        76.1603   65.1477   14.1312  H     
45   H        79.8104   65.1548   11.1507  H     
46   H        80.7849   65.5880   12.5659  H     
47   H        80.0863   62.8447   11.5687  H     
48   H        81.5211   63.4302   12.4524  H     
49   H        81.6213   61.1830   12.9678  H     
50   H        81.6943   60.0149   15.6164  H     
51   H        82.1426   58.7880   12.2586  H     
52   H        80.9795   57.5024   12.6202  H     
53   H        82.0123   58.1449   13.9037  H     
54   H        79.8488   58.7998   15.3761  H     
55   H        79.0093   57.9130   14.0973  H     
56   H        78.4869   59.5400   14.5260  H     
57   H        78.7640   60.5085   12.2014  H     
58   H        79.0950   58.8657   11.6430  H     
59   H        80.2141   60.1781   11.2489  H     
60   H        83.4801   60.1816   16.8893  H     
61   H        85.9078   59.6669   16.5030  H     
62   H        84.7025   58.6441   16.0549  H     
63   H        85.4957   62.3227   16.0743  H     
64   H        85.3564   61.5306   17.6590  H     
65   H        84.0471   62.5645   17.0720  H     
66   H        84.9880   59.1355   13.7618  H     
67   H        86.4836   58.5812   14.5459  H     
68   H        86.2655   60.3086   14.2077  H     
@<TRIPOS>BOND
     1    1    2 1
     2    1    6 2
     3    2    3 2
     4    2    7 1
     5    3    4 1
     6    4    5 2
     7    5    6 1
     8    7    8 am
     9    7    9 2
    10   10    8 1
    11   10   13 1
    12   10   14 1
    13   11   12 1
    14   11   14 1
    15   12   13 1
    16   12   15 1
    17   13   17 1
    18   15   16 1
    19   16   17 1
    20   17   18 am
    21   18   19 1
    22   18   20 2
    23   19   21 1
    24   19   22 1
    25   21   26 am
    26   22   23 1
    27   22   24 1
    28   22   25 1
    29   26   27 1
    30   26   28 2
    31   27   29 1
    32   27   30 1
    33   29   31 1
    34    1   32 1
    35    3   33 1
    36    4   34 1
    37    5   35 1
    38    6   36 1
    39    8   37 1
    40   10   38 1
    41   11   39 1
    42   11   40 1
    43   12   41 1
    44   13   42 1
    45   14   43 1
    46   14   44 1
    47   15   45 1
    48   15   46 1
    49   16   47 1
    50   16   48 1
    51   19   49 1
    52   21   50 1
    53   23   51 1
    54   23   52 1
    55   23   53 1
    56   24   54 1
    57   24   55 1
    58   24   56 1
    59   25   57 1
    60   25   58 1
    61   25   59 1
    62   27   60 1
    63   29   61 1
    64   29   62 1
    65   30   63 1
    66   30   64 1
    67   30   65 1
    68   31   66 1
    69   31   67 1
    70   31   68 1
@<TRIPOS>PROPERTY_DATA
  Total_Score	| 10.4800
  Crash		| -1.9800
  Polar		| 6.7662
  FragIndex	| 1
  FragRMSD	| 0.665

