@<TRIPOS>MOLECULE
BindingDB_27935
 71 74 0 0 0
SMALL
NO_CHARGES


@<TRIPOS>ATOM
1    C        74.8180   62.4310   16.5627  C     
2    C        75.7989   62.2175   15.6074  C     
3    N        76.3440   63.2412   14.9632  N     
4    O        76.1113   61.0639   15.3415  O     
5    C        77.3178   63.1646   13.9003  C     
6    C        77.4319   65.4280   13.0432  C     
7    C        78.8426   65.1131   13.5911  C     
8    C        78.7289   63.7336   14.2780  C     
9    C        76.8474   64.0453   12.7201  C     
10   C        79.9372   64.9579   12.5109  C     
11   C        80.5325   63.5523   12.7089  C     
12   N        79.8242   62.9350   13.7848  N     
13   C        80.1645   61.7496   14.3215  C     
14   C        81.0904   60.7550   13.7456  C     
15   O        79.6996   61.4713   15.4233  O     
16   N        82.0727   60.4213   14.7487  N     
17   C        80.3869   59.4564   13.1609  C     
18   C        79.6002   59.8200   11.8573  C     
19   C        81.4774   58.3999   12.7725  C     
20   C        79.3933   58.7778   14.1670  C     
21   C        83.3205   60.8651   14.8465  C     
22   C        84.2166   60.3409   15.8805  C     
23   O        83.7394   61.7162   14.0758  O     
24   N        85.1976   59.3278   15.3897  N     
25   C        84.9054   61.4754   16.6891  C     
26   C        85.7117   59.3917   14.0057  C     
27   C        75.0648   62.7534   17.9219  C     
28   C        73.4488   62.3046   16.2646  C     
29   S        72.5306   62.5563   17.6975  S     
30   C        76.3685   63.3750   19.9006  C     
31   C        76.3163   63.0119   18.5387  C     
32   C        73.8953   62.8586   18.7033  C     
33   C        73.9317   63.1951   20.0654  C     
34   C        75.1817   63.4621   20.6624  C     
35   H        76.0433   64.1277   15.2152  H     
36   H        77.3759   62.1245   13.5662  H     
37   H        76.8320   65.9126   13.8204  H     
38   H        77.4533   66.0787   12.1643  H     
39   H        79.1447   65.8845   14.3060  H     
40   H        78.8195   63.8668   15.3638  H     
41   H        77.2718   63.6685   11.7826  H     
42   H        75.7605   64.0824   12.6204  H     
43   H        79.5317   65.0489   11.4951  H     
44   H        80.7175   65.7170   12.6326  H     
45   H        80.4236   62.9641   11.7888  H     
46   H        81.5995   63.6338   12.9552  H     
47   H        81.6024   61.2051   12.8960  H     
48   H        81.7990   59.7672   15.4046  H     
49   H        78.8130   60.5465   12.0629  H     
50   H        79.1303   58.9334   11.4232  H     
51   H        80.2690   60.2475   11.1086  H     
52   H        82.2261   58.8398   12.1085  H     
53   H        81.0338   57.5447   12.2588  H     
54   H        81.9889   58.0237   13.6616  H     
55   H        79.8652   58.6178   15.1363  H     
56   H        79.0614   57.8053   13.7910  H     
57   H        78.5019   59.3898   14.3174  H     
58   H        83.6202   59.7919   16.6160  H     
59   H        86.0173   59.3848   15.9960  H     
60   H        84.7879   58.3977   15.5210  H     
61   H        85.5333   62.0901   16.0472  H     
62   H        85.5293   61.0524   17.4798  H     
63   H        84.1569   62.1197   17.1542  H     
64   H        84.9191   59.1883   13.2856  H     
65   H        86.4873   58.6326   13.8917  H     
66   H        86.1564   60.3624   13.7994  H     
67   H        73.0432   62.0622   15.3600  H     
68   H        77.2724   63.5791   20.3387  H     
69   H        77.1881   62.9626   18.0008  H     
70   H        73.0688   63.2662   20.6085  H     
71   H        75.2220   63.7312   21.6485  H     
@<TRIPOS>BOND
     1    1    2 1
     2    1   27 1
     3    1   28 2
     4    2    3 am
     5    2    4 2
     6    5    3 1
     7    5    8 1
     8    5    9 1
     9    6    7 1
    10    6    9 1
    11    7    8 1
    12    7   10 1
    13    8   12 1
    14   10   11 1
    15   11   12 1
    16   12   13 am
    17   13   14 1
    18   13   15 2
    19   14   16 1
    20   14   17 1
    21   16   21 am
    22   17   18 1
    23   17   19 1
    24   17   20 1
    25   21   22 1
    26   21   23 2
    27   22   24 1
    28   22   25 1
    29   24   26 1
    30   27   31 1
    31   27   32 2
    32   28   29 1
    33   29   32 1
    34   30   31 2
    35   30   34 1
    36   32   33 1
    37   33   34 2
    38    3   35 1
    39    5   36 1
    40    6   37 1
    41    6   38 1
    42    7   39 1
    43    8   40 1
    44    9   41 1
    45    9   42 1
    46   10   43 1
    47   10   44 1
    48   11   45 1
    49   11   46 1
    50   14   47 1
    51   16   48 1
    52   18   49 1
    53   18   50 1
    54   18   51 1
    55   19   52 1
    56   19   53 1
    57   19   54 1
    58   20   55 1
    59   20   56 1
    60   20   57 1
    61   22   58 1
    62   24   59 1
    63   24   60 1
    64   25   61 1
    65   25   62 1
    66   25   63 1
    67   26   64 1
    68   26   65 1
    69   26   66 1
    70   28   67 1
    71   30   68 1
    72   31   69 1
    73   33   70 1
    74   34   71 1
@<TRIPOS>PROPERTY_DATA
  Total_Score	| 10.2835
  Crash		| -1.3480
  Polar		| 6.7930
  FragIndex	| 1
  FragRMSD	| 0.362

