@<TRIPOS>MOLECULE
BindingDB_27925
 74 76 0 0 0
SMALL
NO_CHARGES


@<TRIPOS>ATOM
1    C        75.9744   62.2036   16.3289  C     
2    C        76.3120   61.5604   15.1502  C     
3    N        76.8833   62.0356   14.0565  N     
4    O        75.9290   60.4060   15.0346  O     
5    C        77.4064   63.3148   13.6870  C     
6    C        77.5014   65.7430   13.6084  C     
7    C        78.9311   65.1913   13.8786  C     
8    C        78.7492   63.7331   14.3315  C     
9    C        76.5252   64.5664   13.8496  C     
10   C        79.8826   65.0690   12.6667  C     
11   C        80.6483   63.7498   12.8975  C     
12   N        79.8810   62.9915   13.8432  N     
13   C        80.1683   61.7489   14.2707  C     
14   C        81.1619   60.8334   13.6896  C     
15   O        79.5731   61.3296   15.2574  O     
16   N        82.1041   60.4975   14.7301  N     
17   C        80.5442   59.5380   13.0135  C     
18   C        81.6947   58.5255   12.6866  C     
19   C        79.4924   58.8041   13.9139  C     
20   C        79.8507   59.9182   11.6610  C     
21   C        83.3449   60.9438   14.8845  C     
22   C        84.1642   60.4958   16.0135  C     
23   O        83.8116   61.7598   14.0994  O     
24   N        85.1665   59.4401   15.6882  N     
25   C        84.8229   61.6839   16.7641  C     
26   C        85.7054   59.3246   14.3179  C     
27   C        74.2109   62.8582   17.9146  C     
28   C        74.6055   62.3630   16.6562  C     
29   C        76.9465   62.5237   17.3016  C     
30   C        76.5601   63.0237   18.5619  C     
31   C        75.1971   63.1866   18.8682  C     
32   S        72.5175   62.9967   18.3044  S     
33   C        72.0515   61.6780   19.4436  C     
34   O        72.2258   64.4077   18.9729  O     
35   O        71.6320   62.8763   16.9882  O     
36   H        76.9408   61.3766   13.3418  H     
37   H        77.5843   63.2094   12.6093  H     
38   H        77.2737   66.5772   14.2786  H     
39   H        77.4036   66.1020   12.5802  H     
40   H        79.4236   65.7707   14.6667  H     
41   H        78.6883   63.7107   15.4223  H     
42   H        75.7000   64.5726   13.1337  H     
43   H        76.1193   64.6215   14.8617  H     
44   H        79.3206   65.0043   11.7291  H     
45   H        80.5633   65.9223   12.6056  H     
46   H        80.7565   63.2255   11.9445  H     
47   H        81.6399   63.9544   13.3131  H     
48   H        81.6966   61.3520   12.8927  H     
49   H        81.7903   59.8703   15.3962  H     
50   H        82.4670   58.9982   12.0758  H     
51   H        81.3167   57.6600   12.1382  H     
52   H        82.1641   58.1583   13.6019  H     
53   H        79.8826   58.6481   14.9198  H     
54   H        79.2303   57.8288   13.4970  H     
55   H        78.5692   59.3787   13.9966  H     
56   H        79.0339   60.6228   11.8241  H     
57   H        79.4357   59.0334   11.1721  H     
58   H        80.5628   60.3808   10.9738  H     
59   H        83.5090   60.0248   16.7527  H     
60   H        85.9716   59.5945   16.2948  H     
61   H        84.7725   58.5323   15.9476  H     
62   H        85.5220   62.2137   16.1177  H     
63   H        85.3676   61.3222   17.6392  H     
64   H        84.0608   62.3890   17.1038  H     
65   H        84.9318   58.9894   13.6257  H     
66   H        86.5068   58.5847   14.3226  H     
67   H        86.1144   60.2773   13.9801  H     
68   H        73.8883   62.0959   15.9752  H     
69   H        77.9390   62.3560   17.1244  H     
70   H        77.2701   63.2414   19.2653  H     
71   H        74.9321   63.5300   19.7954  H     
72   H        72.2645   60.7103   18.9895  H     
73   H        70.9872   61.7460   19.6637  H     
74   H        72.6198   61.7745   20.3682  H     
@<TRIPOS>BOND
     1    1    2 1
     2    1   28 1
     3    1   29 2
     4    2    3 am
     5    2    4 2
     6    5    3 1
     7    5    8 1
     8    5    9 1
     9    6    7 1
    10    6    9 1
    11    7    8 1
    12    7   10 1
    13    8   12 1
    14   10   11 1
    15   11   12 1
    16   12   13 am
    17   13   14 1
    18   13   15 2
    19   14   16 1
    20   14   17 1
    21   16   21 am
    22   17   18 1
    23   17   19 1
    24   17   20 1
    25   21   22 1
    26   21   23 2
    27   22   24 1
    28   22   25 1
    29   24   26 1
    30   27   28 2
    31   27   31 1
    32   27   32 1
    33   29   30 1
    34   30   31 2
    35   32   33 1
    36   32   34 2
    37   32   35 2
    38    3   36 1
    39    5   37 1
    40    6   38 1
    41    6   39 1
    42    7   40 1
    43    8   41 1
    44    9   42 1
    45    9   43 1
    46   10   44 1
    47   10   45 1
    48   11   46 1
    49   11   47 1
    50   14   48 1
    51   16   49 1
    52   18   50 1
    53   18   51 1
    54   18   52 1
    55   19   53 1
    56   19   54 1
    57   19   55 1
    58   20   56 1
    59   20   57 1
    60   20   58 1
    61   22   59 1
    62   24   60 1
    63   24   61 1
    64   25   62 1
    65   25   63 1
    66   25   64 1
    67   26   65 1
    68   26   66 1
    69   26   67 1
    70   28   68 1
    71   29   69 1
    72   30   70 1
    73   31   71 1
    74   33   72 1
    75   33   73 1
    76   33   74 1
@<TRIPOS>PROPERTY_DATA
  Total_Score	| 11.0058
  Crash		| -1.7828
  Polar		| 7.7148
  FragIndex	| 1
  FragRMSD	| 0.788

