@<TRIPOS>MOLECULE
BindingDB_27930
 71 74 0 0 0
SMALL
NO_CHARGES


@<TRIPOS>ATOM
1    C        74.9293   62.0163   16.6728  C     
2    C        75.7571   62.0045   15.5458  C     
3    N        76.4303   63.0780   15.1502  N     
4    O        75.7871   60.9865   14.8451  O     
5    C        77.2576   63.2312   13.9749  C     
6    C        77.4433   65.6188   13.4726  C     
7    C        78.8693   65.1209   13.7896  C     
8    C        78.7021   63.6958   14.3539  C     
9    C        76.6780   64.3477   13.0720  C     
10   C        79.8082   64.9546   12.5749  C     
11   C        80.5420   63.6270   12.8226  C     
12   N        79.7777   62.9064   13.7973  N     
13   C        80.0836   61.6675   14.2389  C     
14   C        81.1460   60.7880   13.7158  C     
15   O        79.4651   61.2341   15.2062  O     
16   N        82.0777   60.5349   14.7920  N     
17   C        80.6226   59.4527   13.0291  C     
18   C        79.5299   58.6857   13.8494  C     
19   C        80.0097   59.7944   11.6289  C     
20   C        81.8174   58.4673   12.7959  C     
21   C        83.3260   60.9898   14.9346  C     
22   C        84.1316   60.5947   16.0942  C     
23   O        83.8106   61.7495   14.1015  O     
24   N        85.1386   59.5339   15.8187  N     
25   C        84.7956   61.7980   16.8172  C     
26   C        85.7374   59.4356   14.4712  C     
27   C        74.3452   62.8704   18.8911  C     
28   C        75.1553   62.9306   17.7449  C     
29   C        73.8454   61.0962   16.8027  C     
30   C        73.0364   61.0514   17.9490  C     
31   N        74.3990   63.5705   20.0366  N     
32   C        73.3136   61.9466   18.9954  C     
33   N        72.7591   62.0984   20.1999  N     
34   C        73.4220   63.0814   20.8274  C     
35   H        76.3362   63.8735   15.7014  H     
36   H        77.3018   62.3021   13.3937  H     
37   H        76.9914   66.0485   14.3726  H     
38   H        77.4309   66.3709   12.6806  H     
39   H        79.3423   65.7777   14.5266  H     
40   H        78.8152   63.7439   15.4412  H     
41   H        76.8738   64.1192   12.0197  H     
42   H        75.5981   64.4780   13.1954  H     
43   H        79.2443   64.8896   11.6402  H     
44   H        80.5104   65.7882   12.4976  H     
45   H        80.6180   63.0762   11.8819  H     
46   H        81.5451   63.8193   13.2145  H     
47   H        81.6934   61.3137   12.9294  H     
48   H        81.7619   59.9400   15.4892  H     
49   H        79.8651   58.5007   14.8716  H     
50   H        79.3009   57.7200   13.3892  H     
51   H        78.5962   59.2468   13.8926  H     
52   H        79.1852   60.5024   11.7289  H     
53   H        79.6245   58.8987   11.1358  H     
54   H        80.7604   60.2391   10.9732  H     
55   H        82.6363   58.9640   12.2710  H     
56   H        81.5079   57.6028   12.2006  H     
57   H        82.2026   58.0905   13.7454  H     
58   H        83.4608   60.1614   16.8391  H     
59   H        85.9123   59.6478   16.4761  H     
60   H        84.7105   58.6305   16.0186  H     
61   H        85.5239   62.2977   16.1746  H     
62   H        85.3165   61.4593   17.7193  H     
63   H        84.0434   62.5334   17.1207  H     
64   H        84.9958   59.0729   13.7578  H     
65   H        86.5638   58.7185   14.5016  H     
66   H        86.1241   60.4008   14.1418  H     
67   H        75.9232   63.6053   17.7176  H     
68   H        73.6341   60.4362   16.0507  H     
69   H        72.2763   60.3716   18.0367  H     
70   H        72.0287   61.5735   20.5639  H     
71   H        73.2237   63.4091   21.7762  H     
@<TRIPOS>BOND
     1    1    2 1
     2    1   28 1
     3    1   29 2
     4    2    3 am
     5    2    4 2
     6    5    3 1
     7    5    8 1
     8    5    9 1
     9    6    7 1
    10    6    9 1
    11    7    8 1
    12    7   10 1
    13    8   12 1
    14   10   11 1
    15   11   12 1
    16   12   13 am
    17   13   14 1
    18   13   15 2
    19   14   16 1
    20   14   17 1
    21   16   21 am
    22   17   18 1
    23   17   19 1
    24   17   20 1
    25   21   22 1
    26   21   23 2
    27   22   24 1
    28   22   25 1
    29   24   26 1
    30   27   28 2
    31   27   31 1
    32   27   32 1
    33   29   30 1
    34   30   32 2
    35   31   34 2
    36   32   33 1
    37   33   34 1
    38    3   35 1
    39    5   36 1
    40    6   37 1
    41    6   38 1
    42    7   39 1
    43    8   40 1
    44    9   41 1
    45    9   42 1
    46   10   43 1
    47   10   44 1
    48   11   45 1
    49   11   46 1
    50   14   47 1
    51   16   48 1
    52   18   49 1
    53   18   50 1
    54   18   51 1
    55   19   52 1
    56   19   53 1
    57   19   54 1
    58   20   55 1
    59   20   56 1
    60   20   57 1
    61   22   58 1
    62   24   59 1
    63   24   60 1
    64   25   61 1
    65   25   62 1
    66   25   63 1
    67   26   64 1
    68   26   65 1
    69   26   66 1
    70   28   67 1
    71   29   68 1
    72   30   69 1
    73   33   70 1
    74   34   71 1
@<TRIPOS>PROPERTY_DATA
  Total_Score	| 8.6876
  Crash		| -1.6314
  Polar		| 6.2847
  FragIndex	| 1
  FragRMSD	| 1.000

