@<TRIPOS>MOLECULE
BindingDB_27919
 74 77 0 0 0
SMALL
NO_CHARGES


@<TRIPOS>ATOM
1    C        75.7882   62.1342   17.3592  C     
2    C        76.2675   62.1165   16.0529  C     
3    N        76.8112   63.2213   15.5583  N     
4    O        76.1556   61.0956   15.3860  O     
5    C        77.3060   63.4478   14.2352  C     
6    C        77.4839   65.2272   12.5908  C     
7    C        78.8354   65.1867   13.3377  C     
8    C        78.7881   63.9278   14.2292  C     
9    C        76.4998   64.5907   13.5812  C     
10   C        80.0726   65.0017   12.4475  C     
11   C        80.3286   63.4877   12.4614  C     
12   N        79.7264   62.9919   13.6611  N     
13   C        80.0086   61.8055   14.2209  C     
14   C        80.8259   60.7355   13.6294  C     
15   O        79.5930   61.5951   15.3572  O     
16   N        82.0320   60.6027   14.4190  N     
17   C        80.0774   59.3499   13.4172  C     
18   C        81.1021   58.2635   12.9320  C     
19   C        79.3623   58.8114   14.6981  C     
20   C        79.0020   59.5137   12.2900  C     
21   C        83.2542   61.0315   14.1064  C     
22   C        84.3805   60.8176   15.0109  C     
23   O        83.4640   61.6435   13.0553  O     
24   N        84.4384   61.9693   15.9541  N     
25   C        84.3520   59.4074   15.6416  C     
26   C        84.7633   61.7065   17.3686  C     
27   C        74.4545   61.7547   17.7240  C     
28   C        76.6638   62.5937   18.3755  C     
29   C        76.2536   62.6883   19.7132  C     
30   C        74.9480   62.3290   20.0689  C     
31   C        74.0464   61.8600   19.0927  C     
32   C        72.7355   61.5102   19.4460  C     
33   C        71.8608   61.1047   18.5039  C     
34   C        72.2269   61.0238   17.1935  C     
35   C        73.4764   61.3340   16.7981  C     
36   H        76.8444   63.9835   16.1519  H     
37   H        77.2009   62.5610   13.6025  H     
38   H        77.1974   66.2527   12.3289  H     
39   H        77.5227   64.6262   11.6738  H     
40   H        78.9361   66.0933   13.9474  H     
41   H        79.1125   64.1997   15.2353  H     
42   H        75.6075   64.2259   13.0686  H     
43   H        76.2024   65.3450   14.3152  H     
44   H        79.9254   65.3873   11.4364  H     
45   H        80.9218   65.5198   12.8976  H     
46   H        79.8784   63.0113   11.5854  H     
47   H        81.4099   63.3236   12.4449  H     
48   H        81.1255   61.0293   12.6226  H     
49   H        81.9408   60.1390   15.2707  H     
50   H        81.6468   58.6095   12.0457  H     
51   H        80.5913   57.3258   12.6746  H     
52   H        81.8325   58.0395   13.7165  H     
53   H        80.0451   58.8015   15.5448  H     
54   H        78.9925   57.7920   14.5483  H     
55   H        78.5015   59.4213   14.9653  H     
56   H        78.2539   60.2586   12.5688  H     
57   H        78.4820   58.5719   12.0992  H     
58   H        79.4638   59.8359   11.3537  H     
59   H        85.3136   60.8677   14.4403  H     
60   H        85.1839   62.5893   15.6098  H     
61   H        83.5438   62.4774   15.9366  H     
62   H        83.5271   59.3032   16.3452  H     
63   H        85.2877   59.2189   16.1741  H     
64   H        84.2572   58.6276   14.8697  H     
65   H        83.9754   61.1275   17.8517  H     
66   H        84.8376   62.6675   17.8951  H     
67   H        85.7188   61.1860   17.4574  H     
68   H        77.6246   62.8606   18.1457  H     
69   H        76.9114   63.0217   20.4266  H     
70   H        74.6605   62.4158   21.0485  H     
71   H        72.4331   61.5678   20.3932  H     
72   H        70.9309   60.8708   18.7672  H     
73   H        71.5527   60.7452   16.5165  H     
74   H        73.6836   61.2821   15.8279  H     
@<TRIPOS>BOND
     1    1    2 1
     2    1   27 2
     3    1   28 1
     4    2    3 am
     5    2    4 2
     6    5    3 1
     7    5    8 1
     8    5    9 1
     9    6    7 1
    10    6    9 1
    11    7    8 1
    12    7   10 1
    13    8   12 1
    14   10   11 1
    15   11   12 1
    16   12   13 am
    17   13   14 1
    18   13   15 2
    19   14   16 1
    20   14   17 1
    21   16   21 am
    22   17   18 1
    23   17   19 1
    24   17   20 1
    25   21   22 1
    26   21   23 2
    27   22   24 1
    28   22   25 1
    29   24   26 1
    30   27   31 1
    31   27   35 1
    32   28   29 2
    33   29   30 1
    34   30   31 2
    35   31   32 1
    36   32   33 2
    37   33   34 1
    38   34   35 2
    39    3   36 1
    40    5   37 1
    41    6   38 1
    42    6   39 1
    43    7   40 1
    44    8   41 1
    45    9   42 1
    46    9   43 1
    47   10   44 1
    48   10   45 1
    49   11   46 1
    50   11   47 1
    51   14   48 1
    52   16   49 1
    53   18   50 1
    54   18   51 1
    55   18   52 1
    56   19   53 1
    57   19   54 1
    58   19   55 1
    59   20   56 1
    60   20   57 1
    61   20   58 1
    62   22   59 1
    63   24   60 1
    64   24   61 1
    65   25   62 1
    66   25   63 1
    67   25   64 1
    68   26   65 1
    69   26   66 1
    70   26   67 1
    71   28   68 1
    72   29   69 1
    73   30   70 1
    74   32   71 1
    75   33   72 1
    76   34   73 1
    77   35   74 1
@<TRIPOS>PROPERTY_DATA
  Total_Score	| 11.0899
  Crash		| -2.6951
  Polar		| 5.4346
  FragIndex	| 1
  FragRMSD	| 0.358

