@<TRIPOS>MOLECULE
BindingDB_27934
 71 74 0 0 0
SMALL
NO_CHARGES


@<TRIPOS>ATOM
1    C        75.0268   61.9302   16.3927  C     
2    C        75.6827   62.1654   15.1884  C     
3    N        76.6686   63.0521   15.1012  N     
4    O        75.2908   61.5807   14.1831  O     
5    C        77.3645   63.4191   13.8933  C     
6    C        77.7672   65.3033   12.3983  C     
7    C        78.9457   65.2654   13.3954  C     
8    C        78.7901   63.9624   14.2070  C     
9    C        76.6402   64.5510   13.1256  C     
10   C        80.3499   65.1711   12.7798  C     
11   C        80.6851   63.6716   12.7817  C     
12   N        79.8549   63.0765   13.7873  N     
13   C        80.0520   61.8548   14.3184  C     
14   C        81.0136   60.8412   13.8459  C     
15   O        79.4395   61.5721   15.3431  O     
16   N        81.9700   60.6432   14.9061  N     
17   C        80.3724   59.4627   13.3844  C     
18   C        79.5045   59.6869   12.1006  C     
19   C        81.5179   58.4489   13.0255  C     
20   C        79.4595   58.7884   14.4682  C     
21   C        83.2433   61.0363   14.9626  C     
22   C        84.0766   60.6742   16.1147  C     
23   O        83.7175   61.7079   14.0546  O     
24   N        85.0642   59.5891   15.8491  N     
25   C        84.7640   61.9012   16.7789  C     
26   C        85.6440   59.4681   14.4945  C     
27   C        75.3146   62.3394   17.6993  C     
28   C        73.8229   61.2136   16.4989  C     
29   O        73.3624   61.2102   17.7718  O     
30   C        76.3458   63.3627   19.6580  C     
31   C        76.3895   63.0497   18.2801  C     
32   C        74.2550   61.8982   18.5115  C     
33   C        74.1983   62.2014   19.8820  C     
34   C        75.2468   62.9462   20.4560  C     
35   H        76.9310   63.5111   15.9243  H     
36   H        77.4505   62.5594   13.2152  H     
37   H        77.4701   66.3306   12.1631  H     
38   H        78.0212   64.7863   11.4676  H     
39   H        78.8731   66.1351   14.0574  H     
40   H        78.9096   64.1906   15.2739  H     
41   H        75.9129   64.1497   12.4109  H     
42   H        76.1225   65.2288   13.8170  H     
43   H        80.4012   65.6107   11.7826  H     
44   H        81.0534   65.6916   13.4316  H     
45   H        80.4881   63.2298   11.7998  H     
46   H        81.7441   63.5552   13.0297  H     
47   H        81.5324   61.2240   12.9650  H     
48   H        81.6442   60.1377   15.6639  H     
49   H        78.6854   60.3822   12.3048  H     
50   H        79.0659   58.7476   11.7479  H     
51   H        80.1103   60.1036   11.2913  H     
52   H        82.2051   58.8809   12.2926  H     
53   H        81.1153   57.5209   12.6069  H     
54   H        82.0965   58.1832   13.9138  H     
55   H        79.9604   58.7467   15.4375  H     
56   H        79.1949   57.7665   14.1777  H     
57   H        78.5241   59.3386   14.5942  H     
58   H        83.4168   60.2729   16.8922  H     
59   H        85.8513   59.7105   16.4921  H     
60   H        84.6336   58.6896   16.0813  H     
61   H        85.4757   62.3790   16.1059  H     
62   H        85.3061   61.5844   17.6761  H     
63   H        84.0171   62.6402   17.0722  H     
64   H        84.8966   59.0982   13.7909  H     
65   H        86.4679   58.7530   14.5311  H     
66   H        86.0267   60.4292   14.1510  H     
67   H        73.3229   60.7673   15.7296  H     
68   H        77.1098   63.8884   20.0855  H     
69   H        77.2017   63.3379   17.7202  H     
70   H        73.3985   61.8892   20.4473  H     
71   H        75.2113   63.1910   21.4526  H     
@<TRIPOS>BOND
     1    1    2 1
     2    1   27 1
     3    1   28 2
     4    2    3 am
     5    2    4 2
     6    5    3 1
     7    5    8 1
     8    5    9 1
     9    6    7 1
    10    6    9 1
    11    7    8 1
    12    7   10 1
    13    8   12 1
    14   10   11 1
    15   11   12 1
    16   12   13 am
    17   13   14 1
    18   13   15 2
    19   14   16 1
    20   14   17 1
    21   16   21 am
    22   17   18 1
    23   17   19 1
    24   17   20 1
    25   21   22 1
    26   21   23 2
    27   22   24 1
    28   22   25 1
    29   24   26 1
    30   27   31 1
    31   27   32 2
    32   28   29 1
    33   29   32 1
    34   30   31 2
    35   30   34 1
    36   32   33 1
    37   33   34 2
    38    3   35 1
    39    5   36 1
    40    6   37 1
    41    6   38 1
    42    7   39 1
    43    8   40 1
    44    9   41 1
    45    9   42 1
    46   10   43 1
    47   10   44 1
    48   11   45 1
    49   11   46 1
    50   14   47 1
    51   16   48 1
    52   18   49 1
    53   18   50 1
    54   18   51 1
    55   19   52 1
    56   19   53 1
    57   19   54 1
    58   20   55 1
    59   20   56 1
    60   20   57 1
    61   22   58 1
    62   24   59 1
    63   24   60 1
    64   25   61 1
    65   25   62 1
    66   25   63 1
    67   26   64 1
    68   26   65 1
    69   26   66 1
    70   28   67 1
    71   30   68 1
    72   31   69 1
    73   33   70 1
    74   34   71 1
@<TRIPOS>PROPERTY_DATA
  Total_Score	| 9.1166
  Crash		| -2.7860
  Polar		| 5.2769
  FragIndex	| 1
  FragRMSD	| 0.728

