@<TRIPOS>MOLECULE
BindingDB_27920
 74 77 0 0 0
SMALL
NO_CHARGES


@<TRIPOS>ATOM
1    C        75.7460   62.1510   17.3408  C     
2    C        76.2403   62.0652   16.0419  C     
3    N        76.6794   63.1615   15.4351  N     
4    O        76.3009   60.9714   15.4931  O     
5    C        77.3154   63.2616   14.1520  C     
6    C        77.6076   64.9252   12.4006  C     
7    C        78.7549   65.1246   13.4120  C     
8    C        78.7470   63.8678   14.2996  C     
9    C        76.5287   64.2197   13.2296  C     
10   C        80.1599   65.1660   12.7993  C     
11   C        80.6297   63.7008   12.8292  C     
12   N        79.8347   63.0393   13.8236  N     
13   C        80.0990   61.8152   14.3190  C     
14   C        81.0754   60.8463   13.7844  C     
15   O        79.5091   61.4777   15.3396  O     
16   N        82.0255   60.5504   14.8302  N     
17   C        80.4563   59.5199   13.1734  C     
18   C        81.6034   58.5123   12.8174  C     
19   C        79.4651   58.7983   14.1512  C     
20   C        79.7028   59.8554   11.8388  C     
21   C        83.2857   60.9605   14.9302  C     
22   C        84.1274   60.5507   16.0583  C     
23   O        83.7527   61.7206   14.0907  O     
24   N        85.1333   59.4925   15.7558  N     
25   C        84.7892   61.7686   16.7523  C     
26   C        85.7123   59.3963   14.4012  C     
27   C        74.4365   61.7260   17.7301  C     
28   C        76.5975   62.7174   18.3207  C     
29   C        76.1717   62.8936   19.6462  C     
30   C        74.8808   62.5031   20.0316  C     
31   C        74.0097   61.9086   19.0879  C     
32   C        72.7094   61.5166   19.4473  C     
33   C        71.8805   60.9704   18.5412  C     
34   C        72.2639   60.8098   17.2449  C     
35   C        73.4936   61.1752   16.8339  C     
36   F        74.5128   62.7227   21.2686  F     
37   H        76.5799   63.9962   15.9223  H     
38   H        77.3764   62.2885   13.6525  H     
39   H        77.2510   65.8801   12.0040  H     
40   H        77.9164   64.2806   11.5722  H     
41   H        78.5668   66.0215   14.0139  H     
42   H        78.9551   64.1559   15.3365  H     
43   H        75.8255   63.6802   12.5897  H     
44   H        75.9808   64.9706   13.8075  H     
45   H        80.1569   65.5831   11.7885  H     
46   H        80.8145   65.7766   13.4282  H     
47   H        80.4853   63.2317   11.8508  H     
48   H        81.6889   63.6808   13.0908  H     
49   H        81.6115   61.3107   12.9558  H     
50   H        81.7048   59.9700   15.5329  H     
51   H        82.3564   58.9858   12.1858  H     
52   H        81.2171   57.6442   12.2785  H     
53   H        82.1005   58.1460   13.7207  H     
54   H        79.9159   58.6905   15.1392  H     
55   H        79.2055   57.7980   13.7943  H     
56   H        78.5367   59.3572   14.2568  H     
57   H        78.9216   60.6093   11.9939  H     
58   H        79.2264   58.9643   11.4231  H     
59   H        80.4040   60.2384   11.0874  H     
60   H        83.4855   60.1016   16.8210  H     
61   H        85.9201   59.6286   16.3888  H     
62   H        84.7316   58.5821   15.9838  H     
63   H        85.4804   62.2757   16.0781  H     
64   H        85.3427   61.4480   17.6345  H     
65   H        84.0225   62.4806   17.0683  H     
66   H        84.9532   59.0919   13.6772  H     
67   H        86.4988   58.6441   14.4164  H     
68   H        86.1520   60.3429   14.0956  H     
69   H        77.5488   63.0114   18.0773  H     
70   H        76.8038   63.3321   20.3234  H     
71   H        72.3856   61.6282   20.3808  H     
72   H        70.9686   60.6885   18.8172  H     
73   H        71.6180   60.4315   16.5896  H     
74   H        73.7043   61.0802   15.8693  H     
@<TRIPOS>BOND
     1    1    2 1
     2    1   27 2
     3    1   28 1
     4    2    3 am
     5    2    4 2
     6    5    3 1
     7    5    8 1
     8    5    9 1
     9    6    7 1
    10    6    9 1
    11    7    8 1
    12    7   10 1
    13    8   12 1
    14   10   11 1
    15   11   12 1
    16   12   13 am
    17   13   14 1
    18   13   15 2
    19   14   16 1
    20   14   17 1
    21   16   21 am
    22   17   18 1
    23   17   19 1
    24   17   20 1
    25   21   22 1
    26   21   23 2
    27   22   24 1
    28   22   25 1
    29   24   26 1
    30   27   31 1
    31   27   35 1
    32   28   29 2
    33   29   30 1
    34   30   31 2
    35   30   36 1
    36   31   32 1
    37   32   33 2
    38   33   34 1
    39   34   35 2
    40    3   37 1
    41    5   38 1
    42    6   39 1
    43    6   40 1
    44    7   41 1
    45    8   42 1
    46    9   43 1
    47    9   44 1
    48   10   45 1
    49   10   46 1
    50   11   47 1
    51   11   48 1
    52   14   49 1
    53   16   50 1
    54   18   51 1
    55   18   52 1
    56   18   53 1
    57   19   54 1
    58   19   55 1
    59   19   56 1
    60   20   57 1
    61   20   58 1
    62   20   59 1
    63   22   60 1
    64   24   61 1
    65   24   62 1
    66   25   63 1
    67   25   64 1
    68   25   65 1
    69   26   66 1
    70   26   67 1
    71   26   68 1
    72   28   69 1
    73   29   70 1
    74   32   71 1
    75   33   72 1
    76   34   73 1
    77   35   74 1
@<TRIPOS>PROPERTY_DATA
  Total_Score	| 11.4919
  Crash		| -1.9822
  Polar		| 6.7931
  FragIndex	| 1
  FragRMSD	| 0.382

