@<TRIPOS>MOLECULE
BindingDB_27923
 74 77 0 0 0
SMALL
NO_CHARGES


@<TRIPOS>ATOM
1    C        75.6123   62.2336   17.3403  C     
2    C        76.0968   62.1090   16.0383  C     
3    N        76.9170   63.0223   15.5278  N     
4    O        75.6353   61.2461   15.2898  O     
5    C        77.3202   63.1574   14.1589  C     
6    C        77.2003   64.6393   12.2475  C     
7    C        78.5452   64.9453   12.9494  C     
8    C        78.7077   63.8607   14.0357  C     
9    C        76.3356   64.0392   13.3637  C     
10   C        79.8027   64.8291   12.0677  C     
11   C        80.3752   63.4346   12.3748  C     
12   N        79.7785   62.9947   13.6007  N     
13   C        80.1525   61.9008   14.2860  C     
14   C        81.0909   60.8588   13.8228  C     
15   O        79.6720   61.7296   15.4028  O     
16   N        82.0320   60.5923   14.8840  N     
17   C        80.4104   59.5217   13.3011  C     
18   C        79.7297   59.7595   11.9120  C     
19   C        81.5010   58.4157   13.0873  C     
20   C        79.3385   58.9569   14.2869  C     
21   C        83.2936   60.9978   14.9762  C     
22   C        84.1648   60.4920   16.0444  C     
23   O        83.7602   61.7788   14.1551  O     
24   N        85.1379   59.4312   15.6463  N     
25   C        84.9060   61.6434   16.7787  C     
26   C        85.5875   59.2937   14.2380  C     
27   C        73.7875   61.9057   18.9769  C     
28   C        74.3660   61.6621   17.7128  C     
29   C        76.3060   62.9832   18.3270  C     
30   C        75.7536   63.2255   19.5966  C     
31   C        74.4764   62.7146   19.9225  C     
32   C        73.8492   63.0097   21.1398  C     
33   C        72.6180   62.5197   21.4061  C     
34   C        71.9640   61.7225   20.5089  C     
35   C        72.5214   61.4104   19.3195  C     
36   H        77.2205   63.7211   16.1301  H     
37   H        77.3662   62.1772   13.6682  H     
38   H        76.7499   65.5442   11.8251  H     
39   H        77.3265   63.9009   11.4489  H     
40   H        78.4909   65.9390   13.4088  H     
41   H        78.9937   64.3419   14.9750  H     
42   H        75.5048   63.4552   12.9570  H     
43   H        75.9353   64.8402   13.9925  H     
44   H        79.5770   64.9439   11.0027  H     
45   H        80.5286   65.6021   12.3522  H     
46   H        80.1251   62.7420   11.5681  H     
47   H        81.4614   63.5071   12.4682  H     
48   H        81.6531   61.2363   12.9699  H     
49   H        81.7029   60.0282   15.5935  H     
50   H        78.9477   60.5143   11.9876  H     
51   H        79.2752   58.8391   11.5336  H     
52   H        80.4636   60.0985   11.1750  H     
53   H        82.2664   58.7698   12.3943  H     
54   H        81.0679   57.5057   12.6610  H     
55   H        81.9918   58.1462   14.0244  H     
56   H        79.7601   58.8364   15.2846  H     
57   H        78.9701   57.9851   13.9534  H     
58   H        78.4792   59.6243   14.3584  H     
59   H        83.5372   60.0220   16.8131  H     
60   H        85.9733   59.5569   16.2173  H     
61   H        84.7382   58.5201   15.9116  H     
62   H        85.6554   62.0912   16.1203  H     
63   H        85.4096   61.2572   17.6680  H     
64   H        84.2017   62.4190   17.0968  H     
65   H        84.7361   59.0059   13.6135  H     
66   H        86.3479   58.5142   14.1869  H     
67   H        86.0254   60.2344   13.8739  H     
68   H        73.8371   61.1070   17.0345  H     
69   H        77.2302   63.3720   18.1297  H     
70   H        76.2756   63.7988   20.2693  H     
71   H        74.2927   63.5937   21.8081  H     
72   H        72.1743   62.7545   22.2599  H     
73   H        71.0578   61.3751   20.7277  H     
74   H        72.0087   60.8497   18.6760  H     
@<TRIPOS>BOND
     1    1    2 1
     2    1   28 1
     3    1   29 2
     4    2    3 am
     5    2    4 2
     6    5    3 1
     7    5    8 1
     8    5    9 1
     9    6    7 1
    10    6    9 1
    11    7    8 1
    12    7   10 1
    13    8   12 1
    14   10   11 1
    15   11   12 1
    16   12   13 am
    17   13   14 1
    18   13   15 2
    19   14   16 1
    20   14   17 1
    21   16   21 am
    22   17   18 1
    23   17   19 1
    24   17   20 1
    25   21   22 1
    26   21   23 2
    27   22   24 1
    28   22   25 1
    29   24   26 1
    30   27   28 2
    31   27   31 1
    32   27   35 1
    33   29   30 1
    34   30   31 2
    35   31   32 1
    36   32   33 2
    37   33   34 1
    38   34   35 2
    39    3   36 1
    40    5   37 1
    41    6   38 1
    42    6   39 1
    43    7   40 1
    44    8   41 1
    45    9   42 1
    46    9   43 1
    47   10   44 1
    48   10   45 1
    49   11   46 1
    50   11   47 1
    51   14   48 1
    52   16   49 1
    53   18   50 1
    54   18   51 1
    55   18   52 1
    56   19   53 1
    57   19   54 1
    58   19   55 1
    59   20   56 1
    60   20   57 1
    61   20   58 1
    62   22   59 1
    63   24   60 1
    64   24   61 1
    65   25   62 1
    66   25   63 1
    67   25   64 1
    68   26   65 1
    69   26   66 1
    70   26   67 1
    71   28   68 1
    72   29   69 1
    73   30   70 1
    74   32   71 1
    75   33   72 1
    76   34   73 1
    77   35   74 1
@<TRIPOS>PROPERTY_DATA
  Total_Score	| 10.3572
  Crash		| -1.8055
  Polar		| 6.8231
  FragIndex	| 1
  FragRMSD	| 0.579

