@<TRIPOS>MOLECULE
BindingDB_50174767
 28 29 0 0 0
SMALL
NO_CHARGES


@<TRIPOS>ATOM
1    C        49.3710   96.4496   34.1523  C     
2    C        50.1512   97.2395   35.0165  C     
3    C        51.0111   96.6144   35.9441  C     
4    C        51.1008   95.2132   35.9928  C     
5    C        50.3401   94.4194   35.1123  C     
6    C        49.4600   95.0402   34.1974  C     
7    O        50.4447   93.0475   35.1396  O     
8    C        51.4809   92.4573   34.4345  C     
9    C        52.0817   93.0470   33.2958  C     
10   C        53.0936   92.3820   32.5779  C     
11   C        53.5246   91.0902   32.9528  C     
12   C        52.8924   90.4771   34.0643  C     
13   C        51.8961   91.1543   34.8025  C     
14   O        48.7099   94.2759   33.3631  O     
15   Cl       50.0594   98.9279   34.9449  Cl    
16   Cl       51.2050   90.3722   36.1419  Cl    
17   C        54.5410   90.4042   32.0984  C     
18   C        55.3770   89.5395   32.7474  C     
19   N        56.0851   88.7959   33.2712  N     
20   H        48.7292   96.8963   33.4885  H     
21   H        51.5709   97.1792   36.5900  H     
22   H        51.7209   94.7678   36.6792  H     
23   H        51.7944   93.9690   32.9784  H     
24   H        53.5031   92.8449   31.7653  H     
25   H        53.1582   89.5261   34.3431  H     
26   H        48.5703   94.8117   32.5546  H     
27   H        54.0095   89.8323   31.3289  H     
28   H        55.1798   91.1366   31.5977  H     
@<TRIPOS>BOND
     1    1    2 2
     2    1    6 1
     3    2    3 1
     4    2   15 1
     5    3    4 2
     6    4    5 1
     7    5    6 2
     8    5    7 1
     9    6   14 1
    10    7    8 1
    11    8    9 2
    12    8   13 1
    13    9   10 1
    14   10   11 2
    15   11   12 1
    16   11   17 1
    17   12   13 2
    18   13   16 1
    19   17   18 1
    20   18   19 3
    21    1   20 1
    22    3   21 1
    23    4   22 1
    24    9   23 1
    25   10   24 1
    26   12   25 1
    27   14   26 1
    28   17   27 1
    29   17   28 1
@<TRIPOS>PROPERTY_DATA
  Total_Score	| 3.5560
  Crash		| -1.1107
  Polar		| 0.7879
  FragIndex	| 1
  FragRMSD	| 0.164

