@<TRIPOS>MOLECULE
BindingDB_50246286
 57 59 0 0 0
SMALL
NO_CHARGES


@<TRIPOS>ATOM
1    C        23.1459   65.1028   16.5430  C     
2    C        22.8874   66.2885   15.8240  C     
3    C        21.5803   66.5431   15.3702  C     
4    C        20.5389   65.6397   15.6467  C     
5    N        23.8714   67.1578   15.4702  N     
6    C        24.6743   67.8390   16.3141  C     
7    N        24.6004   67.7416   17.6663  N     
8    C        25.4249   68.4345   18.5034  C     
9    C        26.4186   69.2898   17.9502  C     
10   C        26.4536   69.3865   16.5365  C     
11   N        25.5936   68.6772   15.7730  N     
12   N        25.2973   68.2845   19.8498  N     
13   C        27.3792   70.0480   18.8072  C     
14   F        28.2738   70.8319   18.1195  F     
15   F        26.6772   70.8781   19.6436  F     
16   F        28.1316   69.1796   19.5628  F     
17   C        22.1099   64.1755   16.7854  C     
18   C        20.8000   64.4376   16.3354  C     
19   S        19.5106   63.3007   16.6390  S     
20   C        19.9514   61.5822   16.3048  C     
21   O        19.0536   63.4121   18.1549  O     
22   O        18.2434   63.6580   15.7422  O     
23   C        24.3233   67.5011   20.5442  C     
24   C        24.4910   66.0200   20.4349  C     
25   C        25.7736   65.4583   20.2189  C     
26   C        25.9478   64.0707   20.0795  C     
27   C        24.8400   63.2186   20.1802  C     
28   C        23.5681   63.7446   20.4395  C     
29   C        23.3806   65.1396   20.5843  C     
30   N        22.1271   65.6019   20.8920  N     
31   S        21.7391   65.7694   22.5317  S     
32   C        21.0873   65.5499   19.9030  C     
33   C        20.1226   66.5218   22.8265  C     
34   O        21.7907   64.3666   23.2776  O     
35   O        22.7819   66.7362   23.2379  O     
36   H        24.0930   64.8873   16.8647  H     
37   H        21.3725   67.3976   14.8473  H     
38   H        19.5913   65.8690   15.3351  H     
39   H        23.9628   67.3514   14.5232  H     
40   H        27.1271   69.9878   16.0626  H     
41   H        25.9417   68.7446   20.4080  H     
42   H        22.3159   63.3261   17.3123  H     
43   H        20.2562   61.4767   15.2647  H     
44   H        19.0803   60.9523   16.4906  H     
45   H        20.7667   61.2663   16.9570  H     
46   H        24.3920   67.7611   21.5996  H     
47   H        23.3365   67.8110   20.1960  H     
48   H        26.5989   66.0583   20.1455  H     
49   H        26.8754   63.6799   19.8993  H     
50   H        24.9641   62.2116   20.0792  H     
51   H        22.7782   63.1034   20.5325  H     
52   H        21.4264   66.0151   18.9784  H     
53   H        20.1817   66.0749   20.2094  H     
54   H        20.8245   64.5122   19.7095  H     
55   H        20.0265   67.4253   22.2276  H     
56   H        20.0200   66.7723   23.8803  H     
57   H        19.3433   65.8149   22.5512  H     
@<TRIPOS>BOND
     1    1    2 2
     2    1   17 1
     3    2    3 1
     4    2    5 1
     5    3    4 2
     6    4   18 1
     7    5    6 1
     8    6    7 2
     9    6   11 1
    10    7    8 1
    11    8    9 2
    12    8   12 1
    13    9   10 1
    14    9   13 1
    15   10   11 2
    16   12   23 1
    17   13   14 1
    18   13   15 1
    19   13   16 1
    20   17   18 2
    21   18   19 1
    22   19   20 1
    23   19   21 2
    24   19   22 2
    25   23   24 1
    26   24   25 2
    27   24   29 1
    28   25   26 1
    29   26   27 2
    30   27   28 1
    31   28   29 2
    32   29   30 1
    33   30   31 1
    34   30   32 1
    35   31   33 1
    36   31   34 2
    37   31   35 2
    38    1   36 1
    39    3   37 1
    40    4   38 1
    41    5   39 1
    42   10   40 1
    43   12   41 1
    44   17   42 1
    45   20   43 1
    46   20   44 1
    47   20   45 1
    48   23   46 1
    49   23   47 1
    50   25   48 1
    51   26   49 1
    52   27   50 1
    53   28   51 1
    54   32   52 1
    55   32   53 1
    56   32   54 1
    57   33   55 1
    58   33   56 1
    59   33   57 1
@<TRIPOS>PROPERTY_DATA
  Total_Score	| 6.4186
  Crash		| -1.6761
  Polar		| 1.7907
  FragIndex	| 1
  FragRMSD	| 0.213

