@<TRIPOS>MOLECULE
BindingDB_50246139
 44 47 0 0 0
SMALL
NO_CHARGES


@<TRIPOS>ATOM
1    C        21.4521   66.3914   15.1715  C     
2    C        22.7569   66.2975   15.7333  C     
3    C        23.0165   65.2609   16.6450  C     
4    C        22.0515   64.3029   16.9835  C     
5    C        20.4693   65.4385   15.5265  C     
6    C        20.7848   64.4112   16.4121  C     
7    N        19.7011   63.6579   16.5895  N     
8    C        18.7074   64.1279   15.8733  C     
9    C        19.0649   65.3160   15.1337  C     
10   O        17.6159   63.5915   15.8346  O     
11   N        23.8039   67.0939   15.3503  N     
12   C        24.5824   67.8029   16.1979  C     
13   N        24.5658   67.6000   17.5392  N     
14   C        25.3490   68.2757   18.4160  C     
15   C        26.2488   69.2550   17.9068  C     
16   C        26.2980   69.4020   16.5001  C     
17   N        25.4697   68.6868   15.6951  N     
18   N        25.1767   68.0405   19.7410  N     
19   C        25.8126   66.9404   20.4093  C     
20   C        25.2555   65.5824   20.2621  C     
21   C        23.8984   65.2952   20.5215  C     
22   C        23.4591   63.9603   20.4530  C     
23   C        24.3701   62.9425   20.0962  C     
24   C        25.7022   63.2775   19.8104  C     
25   N        26.0970   64.5655   19.9183  N     
26   C        27.2338   69.9444   18.7963  C     
27   F        28.1507   70.7287   18.1335  F     
28   F        26.5857   70.7454   19.7054  F     
29   F        27.9731   69.0151   19.4877  F     
30   H        21.2344   67.1045   14.4763  H     
31   H        23.9265   65.2245   17.0825  H     
32   H        22.2471   63.5540   17.6468  H     
33   H        19.6497   62.8768   17.1657  H     
34   H        18.4945   66.1926   15.4457  H     
35   H        18.9529   65.1408   14.0688  H     
36   H        24.0386   67.1012   14.3920  H     
37   H        27.0041   69.9885   16.0457  H     
38   H        25.1041   68.8504   20.2890  H     
39   H        26.8335   66.9563   20.0308  H     
40   H        25.8876   67.1395   21.4739  H     
41   H        23.2527   66.0356   20.8142  H     
42   H        22.4989   63.7218   20.6988  H     
43   H        24.0674   61.9730   20.0688  H     
44   H        26.3878   62.5607   19.5497  H     
@<TRIPOS>BOND
     1    1    2 2
     2    1    5 1
     3    2    3 1
     4    2   11 1
     5    3    4 2
     6    4    6 1
     7    5    6 2
     8    5    9 1
     9    6    7 1
    10    7    8 1
    11    8    9 1
    12    8   10 2
    13   11   12 1
    14   12   13 2
    15   12   17 1
    16   13   14 1
    17   14   15 2
    18   14   18 1
    19   15   16 1
    20   15   26 1
    21   16   17 2
    22   18   19 1
    23   19   20 1
    24   20   21 2
    25   20   25 1
    26   21   22 1
    27   22   23 2
    28   23   24 1
    29   24   25 2
    30   26   27 1
    31   26   28 1
    32   26   29 1
    33    1   30 1
    34    3   31 1
    35    4   32 1
    36    7   33 1
    37    9   34 1
    38    9   35 1
    39   11   36 1
    40   16   37 1
    41   18   38 1
    42   19   39 1
    43   19   40 1
    44   21   41 1
    45   22   42 1
    46   23   43 1
    47   24   44 1
@<TRIPOS>PROPERTY_DATA
  Total_Score	| 5.3484
  Crash		| -0.5137
  Polar		| 2.1301
  FragIndex	| 1
  FragRMSD	| 0.434

