@<TRIPOS>MOLECULE
BindingDB_50246187
 51 54 0 0 0
SMALL
NO_CHARGES


@<TRIPOS>ATOM
1    C        21.4705   66.3859   15.0842  C     
2    C        22.7243   66.1857   15.7112  C     
3    C        22.8931   65.0844   16.5933  C     
4    C        21.8220   64.2104   16.8712  C     
5    C        20.4048   65.5219   15.3808  C     
6    C        20.5811   64.4587   16.2602  C     
7    N        19.4220   63.8036   16.3497  N     
8    C        18.5147   64.3901   15.6011  C     
9    C        19.0254   65.5401   14.8934  C     
10   O        17.3607   64.0006   15.5202  O     
11   N        23.7223   67.0440   15.3715  N     
12   C        24.5916   67.6879   16.1780  C     
13   N        24.6437   67.5987   17.5317  N     
14   C        25.4968   68.2927   18.3367  C     
15   C        26.4088   69.2014   17.6979  C     
16   C        26.3407   69.2548   16.2821  C     
17   N        25.4492   68.5343   15.5760  N     
18   N        25.2177   67.9417   19.6233  N     
19   C        25.4051   68.4996   20.9234  C     
20   C        26.2445   67.5924   21.7478  C     
21   C        25.6877   66.8688   22.8296  C     
22   C        26.4996   66.0635   23.6561  C     
23   C        27.8815   65.9905   23.4017  C     
24   C        28.4467   66.6950   22.3236  C     
25   C        27.6300   67.4838   21.4917  C     
26   S        25.8164   65.2102   25.0181  S     
27   C        26.2623   63.4606   25.0643  C     
28   O        26.3418   65.8965   26.3539  O     
29   O        24.2296   65.3074   25.0280  O     
30   C        27.3921   70.1587   18.2802  C     
31   F        28.6557   69.9654   17.7569  F     
32   F        26.9873   71.4286   17.9658  F     
33   F        27.5876   70.2050   19.6213  F     
34   H        21.3280   67.1704   14.4424  H     
35   H        23.8088   64.8906   17.0136  H     
36   H        21.9481   63.4061   17.4905  H     
37   H        19.2712   63.0194   16.8998  H     
38   H        18.5107   66.4550   15.1915  H     
39   H        18.9732   65.3987   13.8106  H     
40   H        23.7647   67.2851   14.4336  H     
41   H        26.9584   69.8633   15.7443  H     
42   H        24.7209   67.1043   19.6756  H     
43   H        25.8459   69.4780   20.9957  H     
44   H        24.4028   68.6048   21.3495  H     
45   H        24.6874   66.9499   23.0259  H     
46   H        28.4888   65.4404   24.0129  H     
47   H        29.4531   66.6328   22.1460  H     
48   H        28.0621   67.9942   20.7159  H     
49   H        25.9443   62.9771   24.1343  H     
50   H        25.7584   62.9843   25.9098  H     
51   H        27.3429   63.3607   25.1796  H     
@<TRIPOS>BOND
     1    1    2 2
     2    1    5 1
     3    2    3 1
     4    2   11 1
     5    3    4 2
     6    4    6 1
     7    5    6 2
     8    5    9 1
     9    6    7 1
    10    7    8 1
    11    8    9 1
    12    8   10 2
    13   11   12 1
    14   12   13 2
    15   12   17 1
    16   13   14 1
    17   14   15 2
    18   14   18 1
    19   15   16 1
    20   15   30 1
    21   16   17 2
    22   18   19 1
    23   19   20 1
    24   20   21 2
    25   20   25 1
    26   21   22 1
    27   22   23 2
    28   22   26 1
    29   23   24 1
    30   24   25 2
    31   26   27 1
    32   26   28 2
    33   26   29 2
    34   30   31 1
    35   30   32 1
    36   30   33 1
    37    1   34 1
    38    3   35 1
    39    4   36 1
    40    7   37 1
    41    9   38 1
    42    9   39 1
    43   11   40 1
    44   16   41 1
    45   18   42 1
    46   19   43 1
    47   19   44 1
    48   21   45 1
    49   23   46 1
    50   24   47 1
    51   25   48 1
    52   27   49 1
    53   27   50 1
    54   27   51 1
@<TRIPOS>PROPERTY_DATA
  Total_Score	| 6.5613
  Crash		| -1.9064
  Polar		| 2.6954
  FragIndex	| 1
  FragRMSD	| 0.563

