@<TRIPOS>MOLECULE
BindingDB_50246239
 56 59 0 0 0
SMALL
NO_CHARGES


@<TRIPOS>ATOM
1    C        21.4564   66.4138   15.1064  C     
2    C        22.7186   66.2691   15.7170  C     
3    C        22.9567   65.1569   16.5824  C     
4    C        21.9237   64.2346   16.8687  C     
5    C        20.4379   65.5027   15.4130  C     
6    C        20.6638   64.4297   16.2706  C     
7    C        19.5264   63.6947   16.3207  C     
8    N        18.6083   64.2654   15.5691  N     
9    C        19.0500   65.4632   14.9375  C     
10   N        23.7031   67.1406   15.3855  N     
11   C        24.4344   67.8476   16.2619  C     
12   N        24.1589   67.8621   17.5880  N     
13   C        24.9596   68.4636   18.5027  C     
14   C        26.1329   69.1554   18.0588  C     
15   C        26.3405   69.1985   16.6543  C     
16   N        25.4984   68.5491   15.8043  N     
17   N        24.4645   68.4099   19.7612  N     
18   C        25.0347   67.7365   20.8776  C     
19   C        24.9227   66.2387   20.7215  C     
20   C        25.8326   65.5880   19.8395  C     
21   C        25.7565   64.2018   19.6091  C     
22   C        24.7939   63.4311   20.2789  C     
23   C        23.9159   64.0350   21.1897  C     
24   C        23.9609   65.4320   21.4176  C     
25   C        27.0354   69.8944   18.9896  C     
26   F        27.9028   70.7696   18.3474  F     
27   F        26.3126   70.6740   19.8801  F     
28   F        27.8136   68.9725   19.6837  F     
29   N        23.0755   65.9771   22.3070  N     
30   S        21.4427   66.0341   21.8691  S     
31   C        23.5121   66.2977   23.6318  C     
32   C        20.2911   65.8746   23.2389  C     
33   O        21.1236   67.3331   21.0014  O     
34   O        21.0975   64.7546   20.9842  O     
35   O        19.3670   62.6447   16.9224  O     
36   H        21.2841   67.1904   14.4596  H     
37   H        23.8846   64.9966   16.9789  H     
38   H        22.0939   63.4405   17.4873  H     
39   H        17.7193   63.8958   15.4445  H     
40   H        18.4822   66.3261   15.2879  H     
41   H        18.9991   65.3726   13.8536  H     
42   H        23.9136   67.2305   14.4400  H     
43   H        27.1235   69.7063   16.2476  H     
44   H        23.4739   68.4949   19.8043  H     
45   H        26.0865   68.0550   21.0305  H     
46   H        24.4704   68.0612   21.7604  H     
47   H        26.5358   66.1388   19.3460  H     
48   H        26.4076   63.7597   18.9710  H     
49   H        24.7451   62.4242   20.1221  H     
50   H        23.2455   63.4700   21.6901  H     
51   H        23.8220   65.3832   24.1531  H     
52   H        22.7305   66.7829   24.2210  H     
53   H        24.3637   66.9886   23.5780  H     
54   H        20.6205   65.0755   23.9106  H     
55   H        19.3027   65.6303   22.8472  H     
56   H        20.2325   66.8143   23.7929  H     
@<TRIPOS>BOND
     1    1    2 2
     2    1    5 1
     3    2    3 1
     4    2   10 1
     5    3    4 2
     6    4    6 1
     7    5    6 2
     8    5    9 1
     9    6    7 1
    10    7    8 1
    11    7   35 2
    12    8    9 1
    13   10   11 1
    14   11   12 2
    15   11   16 1
    16   12   13 1
    17   13   14 2
    18   13   17 1
    19   14   15 1
    20   14   25 1
    21   15   16 2
    22   17   18 1
    23   18   19 1
    24   19   20 2
    25   19   24 1
    26   20   21 1
    27   21   22 2
    28   22   23 1
    29   23   24 2
    30   24   29 1
    31   25   26 1
    32   25   27 1
    33   25   28 1
    34   29   30 1
    35   29   31 1
    36   30   32 1
    37   30   33 2
    38   30   34 2
    39    1   36 1
    40    3   37 1
    41    4   38 1
    42    8   39 1
    43    9   40 1
    44    9   41 1
    45   10   42 1
    46   15   43 1
    47   17   44 1
    48   18   45 1
    49   18   46 1
    50   20   47 1
    51   21   48 1
    52   22   49 1
    53   23   50 1
    54   31   51 1
    55   31   52 1
    56   31   53 1
    57   32   54 1
    58   32   55 1
    59   32   56 1
@<TRIPOS>PROPERTY_DATA
  Total_Score	| 6.7303
  Crash		| -1.1398
  Polar		| 1.9187
  FragIndex	| 1
  FragRMSD	| 1.209

