@<TRIPOS>MOLECULE
BindingDB_50246236
 54 57 0 0 0
SMALL
NO_CHARGES


@<TRIPOS>ATOM
1    C        21.4871   66.3601   15.0976  C     
2    C        22.7248   66.1408   15.7415  C     
3    C        22.8488   65.0745   16.6742  C     
4    C        21.7451   64.2522   16.9772  C     
5    C        20.3875   65.5363   15.4073  C     
6    C        20.5206   64.4990   16.3249  C     
7    N        19.3467   63.8677   16.4135  N     
8    C        18.4691   64.4471   15.6192  C     
9    C        19.0140   65.5678   14.8964  C     
10   O        17.3154   64.0524   15.5008  O     
11   N        23.7517   66.9589   15.3851  N     
12   C        24.5849   67.6351   16.2085  C     
13   N        24.6549   67.4623   17.5525  N     
14   C        25.4564   68.2210   18.3393  C     
15   C        26.2687   69.2393   17.7622  C     
16   C        26.2052   69.3602   16.3617  C     
17   N        25.3749   68.5756   15.6434  N     
18   N        25.3891   68.0815   19.6769  N     
19   C        25.8939   66.9441   20.4130  C     
20   C        26.2952   67.4945   21.8357  C     
21   C        24.8917   67.4316   22.5257  C     
22   C        24.2861   66.0757   22.0788  C     
23   C        24.8173   65.8417   20.6467  C     
24   C        27.2036   70.0578   18.5840  C     
25   F        27.9888   70.9262   17.8679  F     
26   F        26.5074   70.8099   19.4975  F     
27   F        28.0719   69.2296   19.2558  F     
28   N        27.5356   66.9796   22.5645  N     
29   C        27.3781   66.0809   23.7549  C     
30   C        28.6626   66.4943   21.6931  C     
31   H        21.3743   67.1133   14.4089  H     
32   H        23.7494   64.8695   17.1071  H     
33   H        21.8319   63.4788   17.6396  H     
34   H        19.1697   63.0948   16.9704  H     
35   H        18.5180   66.5015   15.1697  H     
36   H        18.9800   65.4099   13.8146  H     
37   H        23.8199   67.1734   14.4400  H     
38   H        26.7764   70.0365   15.8621  H     
39   H        25.4085   68.9061   20.1933  H     
40   H        26.7442   66.5078   19.8803  H     
41   H        26.5383   68.5643   21.7616  H     
42   H        24.9246   67.5480   23.6095  H     
43   H        24.2543   68.2549   22.1328  H     
44   H        24.6105   65.2703   22.7514  H     
45   H        23.2012   66.0994   22.1099  H     
46   H        24.0078   65.9092   19.9211  H     
47   H        25.2422   64.8350   20.5775  H     
48   H        27.9550   67.8293   22.9803  H     
49   H        26.7659   66.5455   24.5331  H     
50   H        28.3633   65.8574   24.2078  H     
51   H        26.9247   65.1308   23.4546  H     
52   H        28.4840   65.4680   21.3681  H     
53   H        29.6043   66.5029   22.2569  H     
54   H        28.7966   67.1438   20.8303  H     
@<TRIPOS>BOND
     1    1    2 2
     2    1    5 1
     3    2    3 1
     4    2   11 1
     5    3    4 2
     6    4    6 1
     7    5    6 2
     8    5    9 1
     9    6    7 1
    10    7    8 1
    11    8    9 1
    12    8   10 2
    13   11   12 1
    14   12   13 2
    15   12   17 1
    16   13   14 1
    17   14   15 2
    18   14   18 1
    19   15   16 1
    20   15   24 1
    21   16   17 2
    22   19   18 1
    23   19   20 1
    24   19   23 1
    25   20   21 1
    26   20   28 1
    27   21   22 1
    28   22   23 1
    29   24   25 1
    30   24   26 1
    31   24   27 1
    32   28   29 1
    33   28   30 1
    34    1   31 1
    35    3   32 1
    36    4   33 1
    37    7   34 1
    38    9   35 1
    39    9   36 1
    40   11   37 1
    41   16   38 1
    42   18   39 1
    43   19   40 1
    44   20   41 1
    45   21   42 1
    46   21   43 1
    47   22   44 1
    48   22   45 1
    49   23   46 1
    50   23   47 1
    51   28   48 1
    52   29   49 1
    53   29   50 1
    54   29   51 1
    55   30   52 1
    56   30   53 1
    57   30   54 1
@<TRIPOS>PROPERTY_DATA
  Total_Score	| 6.7002
  Crash		| -2.0066
  Polar		| 3.2705
  FragIndex	| 1
  FragRMSD	| 0.671

