@<TRIPOS>MOLECULE
BindingDB_50246098
 44 47 0 0 0
SMALL
NO_CHARGES


@<TRIPOS>ATOM
1    C        21.6294   66.2988   15.1794  C     
2    C        22.8903   66.1260   15.8053  C     
3    C        23.0421   65.0463   16.7200  C     
4    C        21.9577   64.2215   17.0779  C     
5    C        20.5524   65.4573   15.5221  C     
6    C        20.7152   64.4545   16.4743  C     
7    N        19.5492   63.8268   16.6341  N     
8    C        18.6465   64.3542   15.8368  C     
9    C        19.1698   65.4359   15.0323  C     
10   O        17.4914   63.9597   15.7908  O     
11   N        23.8806   67.0212   15.4662  N     
12   C        24.6679   67.7785   16.2733  C     
13   N        24.6417   67.6890   17.6256  N     
14   C        25.4366   68.4200   18.4575  C     
15   C        26.3384   69.3527   17.8875  C     
16   C        26.3575   69.4404   16.4745  C     
17   N        25.5330   68.6668   15.7197  N     
18   N        25.3484   68.2212   19.7954  N     
19   C        24.3568   67.4253   20.4609  C     
20   C        24.4728   65.9452   20.3454  C     
21   C        25.6961   65.2353   20.3081  C     
22   C        25.6824   63.8309   20.1768  C     
23   C        24.4589   63.1443   20.0925  C     
24   C        23.2645   63.8806   20.1552  C     
25   N        23.3137   65.2309   20.2775  N     
26   C        27.2299   70.1954   18.7266  C     
27   H        21.4895   67.0393   14.4854  H     
28   H        23.9463   64.8265   17.1313  H     
29   H        22.0792   63.4690   17.7584  H     
30   H        19.3863   63.0974   17.2532  H     
31   H        18.6548   66.3752   15.2443  H     
32   H        19.1270   65.1948   13.9674  H     
33   H        23.9913   67.1790   14.5124  H     
34   H        26.9983   70.0789   15.9971  H     
35   H        25.9907   68.6857   20.3630  H     
36   H        24.3815   67.6721   21.5225  H     
37   H        23.3724   67.7280   20.0840  H     
38   H        26.5888   65.7217   20.3750  H     
39   H        26.5628   63.3114   20.1431  H     
40   H        24.4380   62.1260   19.9992  H     
41   H        22.3602   63.4059   20.1082  H     
42   H        26.6312   70.8003   19.4103  H     
43   H        27.8439   70.8722   18.1285  H     
44   H        27.8971   69.5626   19.3145  H     
@<TRIPOS>BOND
     1    1    2 2
     2    1    5 1
     3    2    3 1
     4    2   11 1
     5    3    4 2
     6    4    6 1
     7    5    6 2
     8    5    9 1
     9    6    7 1
    10    7    8 1
    11    8    9 1
    12    8   10 2
    13   11   12 1
    14   12   13 2
    15   12   17 1
    16   13   14 1
    17   14   15 2
    18   14   18 1
    19   15   16 1
    20   15   26 1
    21   16   17 2
    22   18   19 1
    23   19   20 1
    24   20   21 2
    25   20   25 1
    26   21   22 1
    27   22   23 2
    28   23   24 1
    29   24   25 2
    30    1   27 1
    31    3   28 1
    32    4   29 1
    33    7   30 1
    34    9   31 1
    35    9   32 1
    36   11   33 1
    37   16   34 1
    38   18   35 1
    39   19   36 1
    40   19   37 1
    41   21   38 1
    42   22   39 1
    43   23   40 1
    44   24   41 1
    45   26   42 1
    46   26   43 1
    47   26   44 1
@<TRIPOS>PROPERTY_DATA
  Total_Score	| 4.7959
  Crash		| -0.6394
  Polar		| 1.9893
  FragIndex	| 1
  FragRMSD	| 0.218

