@<TRIPOS>MOLECULE
BindingDB_50318884
 55 58 0 0 0
SMALL
NO_CHARGES


@<TRIPOS>ATOM
1    O        22.7512   66.5649   23.5410  O     
2    S        21.7182   65.5518   22.8902  S     
3    O        21.4635   64.3175   23.8643  O     
4    C        20.1917   66.5053   22.7198  C     
5    N        22.2928   65.0632   21.3793  N     
6    C        23.6047   64.8477   21.1836  C     
7    C        24.4779   65.8108   20.6097  C     
8    C        25.8120   65.4138   20.3753  C     
9    C        26.2554   64.1097   20.6845  C     
10   C        25.3404   63.2088   21.2492  C     
11   N        24.0652   63.5978   21.4755  N     
12   C        24.0300   67.2237   20.3912  C     
13   N        24.9684   68.1123   19.7770  N     
14   C        24.4180   67.8133   16.2199  C     
15   N        24.3326   67.6616   17.5667  N     
16   C        25.1266   68.3284   18.4481  C     
17   C        26.1169   69.2186   17.9543  C     
18   C        26.1636   69.3880   16.5507  C     
19   N        25.3295   68.6942   15.7318  N     
20   C        27.0803   69.9169   18.8550  C     
21   N        23.6671   67.1022   15.3367  N     
22   N        19.1946   64.1539   16.5346  N     
23   C        18.3135   64.6869   15.7203  C     
24   C        18.8927   65.7003   14.8573  C     
25   C        20.2767   65.6688   15.3449  C     
26   C        21.3897   66.4478   14.9875  C     
27   C        22.6387   66.2464   15.6102  C     
28   C        22.7374   65.2307   16.5957  C     
29   C        21.6145   64.4685   16.9689  C     
30   C        20.3802   64.7170   16.3381  C     
31   O        17.1264   64.3707   15.7023  O     
32   C        21.3493   64.6122   20.3909  C     
33   F        28.0165   70.6969   18.2138  F     
34   F        26.4172   70.7388   19.7350  F     
35   F        27.8014   68.9950   19.5734  F     
36   H        19.9506   66.9847   23.6680  H     
37   H        19.3692   65.8408   22.4364  H     
38   H        20.3286   67.2671   21.9490  H     
39   H        26.4996   66.0616   19.9972  H     
40   H        27.2185   63.8355   20.5182  H     
41   H        25.6415   62.2582   21.5016  H     
42   H        23.1028   67.2613   19.8198  H     
43   H        23.8075   67.6371   21.3846  H     
44   H        25.5335   68.6350   20.3710  H     
45   H        26.8312   70.0256   16.1104  H     
46   H        23.9374   67.1829   14.4015  H     
47   H        18.9877   63.4812   17.2017  H     
48   H        18.8306   65.4038   13.8026  H     
49   H        18.4290   66.6818   15.0174  H     
50   H        21.2855   67.1522   14.2664  H     
51   H        23.6316   65.0738   17.0671  H     
52   H        21.6669   63.7449   17.6867  H     
53   H        21.7511   63.8033   19.7528  H     
54   H        21.1019   65.4759   19.7573  H     
55   H        20.4082   64.2337   20.8292  H     
@<TRIPOS>BOND
     1    1    2 2
     2    2    3 2
     3    2    4 1
     4    2    5 1
     5    5    6 1
     6    5   32 1
     7    6    7 1
     8    6   11 2
     9    7    8 2
    10    7   12 1
    11    8    9 1
    12    9   10 2
    13   10   11 1
    14   12   13 1
    15   13   16 1
    16   14   15 1
    17   14   19 2
    18   14   21 1
    19   15   16 2
    20   16   17 1
    21   17   18 2
    22   17   20 1
    23   18   19 1
    24   20   33 1
    25   20   34 1
    26   20   35 1
    27   21   27 1
    28   22   23 1
    29   22   30 1
    30   23   24 1
    31   23   31 2
    32   24   25 1
    33   25   26 1
    34   25   30 2
    35   26   27 2
    36   27   28 1
    37   28   29 2
    38   29   30 1
    39    4   36 1
    40    4   37 1
    41    4   38 1
    42    8   39 1
    43    9   40 1
    44   10   41 1
    45   12   42 1
    46   12   43 1
    47   13   44 1
    48   18   45 1
    49   21   46 1
    50   22   47 1
    51   24   48 1
    52   24   49 1
    53   26   50 1
    54   28   51 1
    55   29   52 1
    56   32   53 1
    57   32   54 1
    58   32   55 1
@<TRIPOS>PROPERTY_DATA
  Total_Score	| 6.5720
  Crash		| -0.8817
  Polar		| 2.1204
  FragIndex	| 1
  FragRMSD	| 0.624

