@<TRIPOS>MOLECULE
BindingDB_50246378
 57 60 0 0 0
SMALL
NO_CHARGES


@<TRIPOS>ATOM
1    C        22.5807   65.4234   16.4608  C     
2    C        22.6341   66.3178   15.3581  C     
3    C        21.6976   66.1659   14.3090  C     
4    C        20.7015   65.1751   14.3676  C     
5    N        23.6140   67.2487   15.1904  N     
6    C        24.3259   67.9058   16.1327  C     
7    N        24.0064   67.9032   17.4506  N     
8    C        24.7671   68.4704   18.4202  C     
9    C        25.9638   69.1458   18.0442  C     
10   C        26.2416   69.1831   16.6499  C     
11   N        25.4317   68.5777   15.7519  N     
12   N        24.2212   68.2725   19.6483  N     
13   C        26.8550   69.8788   18.9872  C     
14   F        27.6206   70.8612   18.4049  F     
15   F        26.1344   70.5186   19.9615  F     
16   F        27.7410   69.0010   19.5604  F     
17   C        21.5925   64.4218   16.5118  C     
18   C        20.6525   64.3079   15.4712  C     
19   N        19.7813   63.3042   15.6287  N     
20   S        20.0646   62.4250   17.0283  S     
21   C        21.4507   63.4288   17.5840  C     
22   O        18.8898   62.5958   18.0867  O     
23   O        20.5937   60.9493   16.7464  O     
24   C        24.8488   67.6167   20.7545  C     
25   C        24.7981   66.1333   20.5491  C     
26   C        25.9905   65.4277   20.2316  C     
27   C        25.9713   64.0457   19.9684  C     
28   C        24.7631   63.3408   20.0222  C     
29   C        23.5710   64.0194   20.3325  C     
30   C        23.5753   65.4085   20.6103  C     
31   N        22.3890   66.0083   20.9434  N     
32   S        21.8542   65.8453   22.5427  S     
33   C        21.4400   66.3108   19.9153  C     
34   C        20.1675   66.4128   22.8386  C     
35   O        21.8643   64.3181   22.9863  O     
36   O        22.7896   66.6482   23.5478  O     
37   H        23.2905   65.4615   17.1975  H     
38   H        21.7411   66.7824   13.4939  H     
39   H        20.0222   65.0856   13.6094  H     
40   H        23.8845   67.4090   14.2720  H     
41   H        27.0680   69.6520   16.2807  H     
42   H        23.2609   68.1349   19.6355  H     
43   H        19.0359   63.1432   15.0333  H     
44   H        22.3473   62.8240   17.6768  H     
45   H        21.2283   63.9140   18.5381  H     
46   H        25.8695   67.9567   20.8973  H     
47   H        24.3072   67.8822   21.6637  H     
48   H        26.8882   65.9199   20.1836  H     
49   H        26.8378   63.5590   19.7309  H     
50   H        24.7391   62.3366   19.8301  H     
51   H        22.6989   63.4888   20.3809  H     
52   H        21.9259   66.5144   18.9510  H     
53   H        20.8751   67.2079   20.1767  H     
54   H        20.7414   65.4684   19.7667  H     
55   H        20.0779   67.4692   22.5997  H     
56   H        19.9239   66.2714   23.8827  H     
57   H        19.4767   65.8376   22.2226  H     
@<TRIPOS>BOND
     1    1    2 2
     2    1   17 1
     3    2    3 1
     4    2    5 1
     5    3    4 2
     6    4   18 1
     7    5    6 1
     8    6    7 2
     9    6   11 1
    10    7    8 1
    11    8    9 2
    12    8   12 1
    13    9   10 1
    14    9   13 1
    15   10   11 2
    16   12   24 1
    17   13   14 1
    18   13   15 1
    19   13   16 1
    20   17   18 2
    21   17   21 1
    22   18   19 1
    23   19   20 1
    24   20   21 1
    25   20   22 2
    26   20   23 2
    27   24   25 1
    28   25   26 2
    29   25   30 1
    30   26   27 1
    31   27   28 2
    32   28   29 1
    33   29   30 2
    34   30   31 1
    35   31   32 1
    36   31   33 1
    37   32   34 1
    38   32   35 2
    39   32   36 2
    40    1   37 1
    41    3   38 1
    42    4   39 1
    43    5   40 1
    44   10   41 1
    45   12   42 1
    46   19   43 1
    47   21   44 1
    48   21   45 1
    49   24   46 1
    50   24   47 1
    51   26   48 1
    52   27   49 1
    53   28   50 1
    54   29   51 1
    55   33   52 1
    56   33   53 1
    57   33   54 1
    58   34   55 1
    59   34   56 1
    60   34   57 1
@<TRIPOS>PROPERTY_DATA
  Total_Score	| 6.3681
  Crash		| -2.0212
  Polar		| 2.5339
  FragIndex	| 1
  FragRMSD	| 0.627

