@<TRIPOS>MOLECULE
BindingDB_50246058
 45 48 0 0 0
SMALL
NO_CHARGES


@<TRIPOS>ATOM
1    C        21.4800   66.4280   15.0577  C     
2    C        22.7260   66.1218   15.6523  C     
3    C        22.8520   64.9554   16.4500  C     
4    C        21.7418   64.1096   16.6611  C     
5    C        20.3805   65.5826   15.2851  C     
6    C        20.5135   64.4408   16.0701  C     
7    N        19.3318   63.8229   16.1093  N     
8    C        18.4481   64.4988   15.4096  C     
9    C        19.0046   65.6811   14.7983  C     
10   O        17.2887   64.1397   15.2751  O     
11   N        23.7553   66.9682   15.3796  N     
12   C        24.5677   67.5941   16.2524  C     
13   N        24.5821   67.4034   17.5992  N     
14   C        25.3530   68.1347   18.4510  C     
15   C        26.1829   69.1567   17.9255  C     
16   C        26.1898   69.2988   16.5186  C     
17   N        25.3927   68.5367   15.7410  N     
18   N        25.3169   67.8861   19.7882  N     
19   C        25.9444   66.7794   20.4476  C     
20   C        25.3745   65.4073   20.3837  C     
21   C        24.3242   65.0363   19.5031  C     
22   C        23.8081   63.7264   19.5233  C     
23   C        24.3363   62.7620   20.4069  C     
24   C        25.3774   63.1179   21.2901  C     
25   C        25.8760   64.4369   21.2947  C     
26   C        27.0878   69.9745   18.7887  C     
27   F        27.9131   70.8330   18.0990  F     
28   F        26.3427   70.7374   19.6583  F     
29   F        27.9210   69.1520   19.5131  F     
30   H        21.3690   67.2496   14.4615  H     
31   H        23.7528   64.7053   16.8630  H     
32   H        21.8324   63.2664   17.2297  H     
33   H        19.1590   62.9875   16.5692  H     
34   H        18.5163   66.5863   15.1606  H     
35   H        18.9659   65.6267   13.7088  H     
36   H        23.8301   67.2613   14.4547  H     
37   H        26.8093   69.9623   16.0512  H     
38   H        25.1245   68.6370   20.3659  H     
39   H        26.9628   66.7303   20.0597  H     
40   H        26.0077   67.0428   21.5070  H     
41   H        23.9177   65.7187   18.8526  H     
42   H        23.0524   63.4685   18.8797  H     
43   H        23.9861   61.7955   20.4000  H     
44   H        25.7745   62.4142   21.9255  H     
45   H        26.6198   64.6853   21.9647  H     
@<TRIPOS>BOND
     1    1    2 2
     2    1    5 1
     3    2    3 1
     4    2   11 1
     5    3    4 2
     6    4    6 1
     7    5    6 2
     8    5    9 1
     9    6    7 1
    10    7    8 1
    11    8    9 1
    12    8   10 2
    13   11   12 1
    14   12   13 2
    15   12   17 1
    16   13   14 1
    17   14   15 2
    18   14   18 1
    19   15   16 1
    20   15   26 1
    21   16   17 2
    22   18   19 1
    23   19   20 1
    24   20   21 2
    25   20   25 1
    26   21   22 1
    27   22   23 2
    28   23   24 1
    29   24   25 2
    30   26   27 1
    31   26   28 1
    32   26   29 1
    33    1   30 1
    34    3   31 1
    35    4   32 1
    36    7   33 1
    37    9   34 1
    38    9   35 1
    39   11   36 1
    40   16   37 1
    41   18   38 1
    42   19   39 1
    43   19   40 1
    44   21   41 1
    45   22   42 1
    46   23   43 1
    47   24   44 1
    48   25   45 1
@<TRIPOS>PROPERTY_DATA
  Total_Score	| 4.8937
  Crash		| -0.9926
  Polar		| 1.7936
  FragIndex	| 1
  FragRMSD	| 0.745

