@<TRIPOS>MOLECULE
BindingDB_50246188
 51 54 0 0 0
SMALL
NO_CHARGES


@<TRIPOS>ATOM
1    C        21.3968   66.4990   15.0903  C     
2    C        22.6816   66.2738   15.6377  C     
3    C        22.9033   65.1210   16.4297  C     
4    C        21.8773   64.1910   16.6650  C     
5    C        20.3675   65.5764   15.3487  C     
6    C        20.6099   64.4491   16.1248  C     
7    N        19.4776   63.7376   16.2069  N     
8    C        18.5247   64.3360   15.5307  C     
9    C        18.9690   65.5604   14.8852  C     
10   O        17.3873   63.9047   15.4559  O     
11   N        23.6904   67.1257   15.3075  N     
12   C        24.4916   67.7781   16.1752  C     
13   N        24.3385   67.6894   17.5300  N     
14   C        25.1468   68.3567   18.3859  C     
15   C        26.2019   69.1796   17.8702  C     
16   C        26.3158   69.2430   16.4513  C     
17   N        25.4612   68.5566   15.6580  N     
18   N        24.7699   68.2954   19.6792  N     
19   C        25.3494   67.4778   20.6767  C     
20   C        25.0210   66.0031   20.6344  C     
21   C        23.9729   65.5023   19.8128  C     
22   C        23.6964   64.1274   19.7285  C     
23   C        24.4928   63.2133   20.4357  C     
24   C        25.4961   63.6766   21.2904  C     
25   C        25.7573   65.0580   21.4279  C     
26   C        27.0765   70.0524   18.7348  C     
27   F        27.8533   70.9529   18.0272  F     
28   F        26.3167   70.8267   19.5914  F     
29   F        27.9356   69.2503   19.4611  F     
30   S        26.9496   65.5142   22.6358  S     
31   C        28.5828   65.6778   21.9232  C     
32   O        26.5553   66.8471   23.4233  O     
33   O        27.0592   64.4046   23.7673  O     
34   H        21.1983   67.3208   14.5080  H     
35   H        23.8374   64.9205   16.8029  H     
36   H        22.0621   63.3359   17.2000  H     
37   H        19.3810   62.9101   16.7036  H     
38   H        18.4135   66.4285   15.2436  H     
39   H        18.9138   65.4797   13.7986  H     
40   H        23.8352   67.2736   14.3592  H     
41   H        27.0342   69.8288   16.0058  H     
42   H        23.8026   68.5143   19.8346  H     
43   H        26.4498   67.6078   20.6098  H     
44   H        25.0308   67.8683   21.6356  H     
45   H        23.4062   66.1654   19.2441  H     
46   H        22.9594   63.7826   19.1097  H     
47   H        24.3491   62.1933   20.3253  H     
48   H        26.0471   62.9981   21.7897  H     
49   H        28.8117   64.7688   21.3674  H     
50   H        29.3229   65.8135   22.7140  H     
51   H        28.6106   66.5336   21.2508  H     
@<TRIPOS>BOND
     1    1    2 2
     2    1    5 1
     3    2    3 1
     4    2   11 1
     5    3    4 2
     6    4    6 1
     7    5    6 2
     8    5    9 1
     9    6    7 1
    10    7    8 1
    11    8    9 1
    12    8   10 2
    13   11   12 1
    14   12   13 2
    15   12   17 1
    16   13   14 1
    17   14   15 2
    18   14   18 1
    19   15   16 1
    20   15   26 1
    21   16   17 2
    22   18   19 1
    23   19   20 1
    24   20   21 2
    25   20   25 1
    26   21   22 1
    27   22   23 2
    28   23   24 1
    29   24   25 2
    30   25   30 1
    31   26   27 1
    32   26   28 1
    33   26   29 1
    34   30   31 1
    35   30   32 2
    36   30   33 2
    37    1   34 1
    38    3   35 1
    39    4   36 1
    40    7   37 1
    41    9   38 1
    42    9   39 1
    43   11   40 1
    44   16   41 1
    45   18   42 1
    46   19   43 1
    47   19   44 1
    48   21   45 1
    49   22   46 1
    50   23   47 1
    51   24   48 1
    52   31   49 1
    53   31   50 1
    54   31   51 1
@<TRIPOS>PROPERTY_DATA
  Total_Score	| 6.1883
  Crash		| -1.1735
  Polar		| 1.8782
  FragIndex	| 1
  FragRMSD	| 0.580

