@<TRIPOS>MOLECULE
BindingDB_50246140
 56 59 0 0 0
SMALL
NO_CHARGES


@<TRIPOS>ATOM
1    C        21.4074   66.4733   15.2079  C     
2    C        22.6957   66.3588   15.7761  C     
3    C        23.0176   65.2045   16.5422  C     
4    C        22.0446   64.2116   16.7872  C     
5    C        20.4364   65.4829   15.4731  C     
6    C        20.7613   64.3804   16.2575  C     
7    N        19.6722   63.6152   16.3774  N     
8    C        18.6707   64.1508   15.7191  C     
9    C        19.0357   65.3818   15.0504  C     
10   O        17.5511   63.6635   15.6965  O     
11   N        23.6218   67.3251   15.4856  N     
12   C        24.5193   67.9035   16.3171  C     
13   N        24.5864   67.7182   17.6543  N     
14   C        25.5949   68.2225   18.4251  C     
15   C        26.6015   69.0463   17.8233  C     
16   C        26.4622   69.2700   16.4259  C     
17   N        25.4546   68.6986   15.7349  N     
18   N        25.6207   67.8251   19.7094  N     
19   C        24.4955   68.0854   20.6028  C     
20   C        24.1100   66.9543   21.4889  C     
21   C        25.0384   65.9889   21.9858  C     
22   C        24.6739   65.0564   22.9904  C     
23   C        23.3702   65.1262   23.5314  C     
24   C        22.4411   66.0650   23.0682  C     
25   C        22.8183   66.9738   22.0583  C     
26   N        25.5624   64.1027   23.4882  N     
27   C        26.6459   64.5132   24.3447  C     
28   S        25.1499   62.4632   23.3703  S     
29   C        24.4104   62.1237   21.7669  C     
30   O        26.4323   61.5050   23.4088  O     
31   O        24.1794   61.9699   24.5474  O     
32   C        27.6384   69.7614   18.6237  C     
33   F        28.4661   70.5920   17.8975  F     
34   F        27.0462   70.5668   19.5699  F     
35   F        28.4441   68.8597   19.2724  F     
36   H        21.1579   67.2764   14.6247  H     
37   H        23.9677   65.0634   16.8973  H     
38   H        22.2699   63.3796   17.3409  H     
39   H        19.6244   62.7977   16.8969  H     
40   H        18.4404   66.2215   15.4127  H     
41   H        18.9471   65.2839   13.9668  H     
42   H        23.6592   67.6123   14.5550  H     
43   H        27.0972   69.8858   15.9188  H     
44   H        26.5104   67.6118   20.1043  H     
45   H        24.7690   68.8897   21.2961  H     
46   H        23.6279   68.4787   20.0326  H     
47   H        25.9885   65.9782   21.6083  H     
48   H        23.0705   64.5096   24.2951  H     
49   H        21.4946   66.0985   23.4577  H     
50   H        22.1358   67.6740   21.7770  H     
51   H        27.4513   64.9531   23.7588  H     
52   H        27.0719   63.6769   24.9076  H     
53   H        26.3164   65.2541   25.0767  H     
54   H        23.4726   62.6712   21.6654  H     
55   H        24.2006   61.0592   21.6683  H     
56   H        25.0882   62.4383   20.9694  H     
@<TRIPOS>BOND
     1    1    2 2
     2    1    5 1
     3    2    3 1
     4    2   11 1
     5    3    4 2
     6    4    6 1
     7    5    6 2
     8    5    9 1
     9    6    7 1
    10    7    8 1
    11    8    9 1
    12    8   10 2
    13   11   12 1
    14   12   13 2
    15   12   17 1
    16   13   14 1
    17   14   15 2
    18   14   18 1
    19   15   16 1
    20   15   32 1
    21   16   17 2
    22   18   19 1
    23   19   20 1
    24   20   21 2
    25   20   25 1
    26   21   22 1
    27   22   23 2
    28   22   26 1
    29   23   24 1
    30   24   25 2
    31   26   27 1
    32   26   28 1
    33   28   29 1
    34   28   30 2
    35   28   31 2
    36   32   33 1
    37   32   34 1
    38   32   35 1
    39    1   36 1
    40    3   37 1
    41    4   38 1
    42    7   39 1
    43    9   40 1
    44    9   41 1
    45   11   42 1
    46   16   43 1
    47   18   44 1
    48   19   45 1
    49   19   46 1
    50   21   47 1
    51   23   48 1
    52   24   49 1
    53   25   50 1
    54   27   51 1
    55   27   52 1
    56   27   53 1
    57   29   54 1
    58   29   55 1
    59   29   56 1
@<TRIPOS>PROPERTY_DATA
  Total_Score	| 6.3622
  Crash		| -1.0687
  Polar		| 1.3682
  FragIndex	| 1
  FragRMSD	| 0.149

