@<TRIPOS>MOLECULE
BindingDB_50246189
 60 64 0 0 0
SMALL
NO_CHARGES


@<TRIPOS>ATOM
1    C        21.4406   66.4828   15.1263  C     
2    C        22.7307   66.3249   15.6860  C     
3    C        23.0282   65.1684   16.4487  C     
4    C        22.0448   64.1761   16.6567  C     
5    C        20.4581   65.5048   15.3756  C     
6    C        20.7608   64.3742   16.1287  C     
7    N        19.6615   63.6228   16.2240  N     
8    C        18.6678   64.2072   15.5923  C     
9    C        19.0534   65.4532   14.9686  C     
10   O        17.5385   63.7421   15.5576  O     
11   N        23.6904   67.2330   15.3633  N     
12   C        24.5617   67.8360   16.2060  C     
13   N        24.5608   67.6997   17.5552  N     
14   C        25.4359   68.3524   18.3683  C     
15   C        26.4272   69.1960   17.7893  C     
16   C        26.3992   69.3187   16.3817  C     
17   N        25.4779   68.6599   15.6421  N     
18   N        25.3409   68.2227   19.7156  N     
19   C        24.4339   67.3637   20.4232  C     
20   C        24.6816   65.9055   20.2165  C     
21   C        26.0149   65.4583   20.4280  C     
22   C        26.3771   64.1175   20.2297  C     
23   C        25.4076   63.1904   19.8354  C     
24   C        24.0722   63.5999   19.6716  C     
25   C        23.6882   64.9429   19.8668  C     
26   C        27.4576   69.9094   18.6112  C     
27   F        28.3863   70.6147   17.8833  F     
28   F        26.8494   70.8047   19.4592  F     
29   F        28.1678   69.0011   19.3614  F     
30   S        21.9721   65.2805   19.8152  S     
31   O        21.6128   66.5356   18.8977  O     
32   N        21.3502   65.4862   21.3685  N     
33   O        21.0833   64.1128   19.2003  O     
34   C        21.3049   64.3930   22.2795  C     
35   C        20.4518   64.9199   23.4404  C     
36   C        20.7047   66.4348   23.3948  C     
37   C        20.9049   66.7281   21.8973  C     
38   H        21.2106   67.3008   14.5543  H     
39   H        23.9699   65.0172   16.8151  H     
40   H        22.2549   63.3328   17.1913  H     
41   H        19.6016   62.7813   16.7021  H     
42   H        18.4901   66.2935   15.3756  H     
43   H        18.9484   65.4041   13.8838  H     
44   H        23.7392   67.4912   14.4264  H     
45   H        27.0685   69.9079   15.8831  H     
46   H        25.9242   68.7719   20.2591  H     
47   H        24.5490   67.5760   21.4940  H     
48   H        23.4286   67.6750   20.1539  H     
49   H        26.7484   66.1094   20.7176  H     
50   H        27.3399   63.8164   20.3717  H     
51   H        25.6669   62.2135   19.6924  H     
52   H        23.3831   62.8875   19.4220  H     
53   H        20.8544   63.4986   21.8432  H     
54   H        22.3174   64.1632   22.6252  H     
55   H        19.3922   64.7076   23.2653  H     
56   H        20.7568   64.4736   24.3872  H     
57   H        19.8775   67.0094   23.8165  H     
58   H        21.6230   66.6668   23.9449  H     
59   H        21.6397   67.5231   21.7575  H     
60   H        19.9599   67.0161   21.4254  H     
@<TRIPOS>BOND
     1    1    2 2
     2    1    5 1
     3    2    3 1
     4    2   11 1
     5    3    4 2
     6    4    6 1
     7    5    6 2
     8    5    9 1
     9    6    7 1
    10    7    8 1
    11    8    9 1
    12    8   10 2
    13   11   12 1
    14   12   13 2
    15   12   17 1
    16   13   14 1
    17   14   15 2
    18   14   18 1
    19   15   16 1
    20   15   26 1
    21   16   17 2
    22   18   19 1
    23   19   20 1
    24   20   21 2
    25   20   25 1
    26   21   22 1
    27   22   23 2
    28   23   24 1
    29   24   25 2
    30   25   30 1
    31   26   27 1
    32   26   28 1
    33   26   29 1
    34   30   31 2
    35   30   32 1
    36   30   33 2
    37   32   34 1
    38   32   37 1
    39   34   35 1
    40   35   36 1
    41   36   37 1
    42    1   38 1
    43    3   39 1
    44    4   40 1
    45    7   41 1
    46    9   42 1
    47    9   43 1
    48   11   44 1
    49   16   45 1
    50   18   46 1
    51   19   47 1
    52   19   48 1
    53   21   49 1
    54   22   50 1
    55   23   51 1
    56   24   52 1
    57   34   53 1
    58   34   54 1
    59   35   55 1
    60   35   56 1
    61   36   57 1
    62   36   58 1
    63   37   59 1
    64   37   60 1
@<TRIPOS>PROPERTY_DATA
  Total_Score	| 7.3114
  Crash		| -1.8509
  Polar		| 1.4858
  FragIndex	| 1
  FragRMSD	| 0.289

