@<TRIPOS>MOLECULE
BindingDB_50246060
 56 59 0 0 0
SMALL
NO_CHARGES


@<TRIPOS>ATOM
1    C        21.5583   66.3396   15.2354  C     
2    C        22.8191   66.2640   15.8729  C     
3    C        23.0415   65.2664   16.8600  C     
4    C        22.0136   64.3815   17.2412  C     
5    C        20.5354   65.4583   15.6301  C     
6    C        20.7630   64.5002   16.6150  C     
7    N        19.6433   63.7970   16.7835  N     
8    C        18.7082   64.2407   15.9708  C     
9    C        19.1569   65.3413   15.1468  C     
10   O        17.5876   63.7588   15.9183  O     
11   N        23.7916   67.1269   15.4648  N     
12   C        24.6418   67.8103   16.2656  C     
13   N        24.6282   67.7283   17.6224  N     
14   C        25.4965   68.4055   18.4222  C     
15   C        26.4831   69.2393   17.8207  C     
16   C        26.4478   69.3340   16.4073  C     
17   N        25.5441   68.6316   15.6821  N     
18   C        27.5021   69.9741   18.6301  C     
19   F        28.3881   70.7290   17.8946  F     
20   F        26.8783   70.8347   19.5032  F     
21   F        28.2604   69.0808   19.3527  F     
22   N        25.4081   68.2559   19.7712  N     
23   C        24.4303   67.4877   20.4943  C     
24   C        24.7362   66.0404   20.7283  C     
25   C        24.0071   65.2875   21.6935  C     
26   C        24.3084   63.9218   21.9122  C     
27   C        25.3214   63.2911   21.1765  C     
28   C        26.0477   64.0169   20.2202  C     
29   C        25.7620   65.3766   20.0060  C     
30   N        23.0574   65.8618   22.4876  N     
31   C        23.4370   66.3880   23.7708  C     
32   S        21.4561   65.8672   21.9351  S     
33   C        20.2146   65.8035   23.2414  C     
34   O        21.1556   67.1184   20.9960  O     
35   O        21.1998   64.5355   21.1018  O     
36   H        21.3769   67.0396   14.5120  H     
37   H        23.9600   65.1617   17.2928  H     
38   H        22.1756   63.6618   17.9502  H     
39   H        19.5377   63.0623   17.4089  H     
40   H        18.5840   66.2497   15.3462  H     
41   H        19.1272   65.0854   14.0861  H     
42   H        23.8433   67.3097   14.5119  H     
43   H        27.1074   69.9221   15.8996  H     
44   H        26.0458   68.7481   20.3197  H     
45   H        24.3200   67.9798   21.4753  H     
46   H        23.4588   67.5566   19.9818  H     
47   H        23.8010   63.3873   22.6228  H     
48   H        25.5294   62.3033   21.3396  H     
49   H        26.7884   63.5570   19.6857  H     
50   H        26.3149   65.8784   19.3116  H     
51   H        23.8478   65.5853   24.4008  H     
52   H        22.5953   66.8414   24.3032  H     
53   H        24.2067   67.1605   23.6251  H     
54   H        20.4681   65.0140   23.9541  H     
55   H        19.2412   65.5908   22.7955  H     
56   H        20.1728   66.7671   23.7556  H     
@<TRIPOS>BOND
     1    1    2 2
     2    1    5 1
     3    2    3 1
     4    2   11 1
     5    3    4 2
     6    4    6 1
     7    5    6 2
     8    5    9 1
     9    6    7 1
    10    7    8 1
    11    8    9 1
    12    8   10 2
    13   11   12 1
    14   12   13 2
    15   12   17 1
    16   13   14 1
    17   14   15 2
    18   14   22 1
    19   15   16 1
    20   15   18 1
    21   16   17 2
    22   18   19 1
    23   18   20 1
    24   18   21 1
    25   22   23 1
    26   23   24 1
    27   24   25 2
    28   24   29 1
    29   25   26 1
    30   25   30 1
    31   26   27 2
    32   27   28 1
    33   28   29 2
    34   30   31 1
    35   30   32 1
    36   32   33 1
    37   32   34 2
    38   32   35 2
    39    1   36 1
    40    3   37 1
    41    4   38 1
    42    7   39 1
    43    9   40 1
    44    9   41 1
    45   11   42 1
    46   16   43 1
    47   22   44 1
    48   23   45 1
    49   23   46 1
    50   26   47 1
    51   27   48 1
    52   28   49 1
    53   29   50 1
    54   31   51 1
    55   31   52 1
    56   31   53 1
    57   33   54 1
    58   33   55 1
    59   33   56 1
@<TRIPOS>PROPERTY_DATA
  Total_Score	| 6.3352
  Crash		| -1.3286
  Polar		| 1.7437
  FragIndex	| 1
  FragRMSD	| 1.151

