@<TRIPOS>MOLECULE
BindingDB_50246138
 42 45 0 0 0
SMALL
NO_CHARGES


@<TRIPOS>ATOM
1    C        21.4098   66.3988   15.1736  C     
2    C        22.6916   66.1294   15.7306  C     
3    C        22.8522   64.9063   16.4484  C     
4    C        21.7728   64.0005   16.6134  C     
5    C        20.3430   65.4954   15.3412  C     
6    C        20.5226   64.3188   16.0572  C     
7    N        19.3756   63.6429   16.0792  N     
8    C        18.4556   64.2941   15.4020  C     
9    C        18.9542   65.5359   14.8511  C     
10   O        17.3194   63.8821   15.2473  O     
11   N        23.6841   67.0563   15.4740  N     
12   C        24.4624   67.8197   16.2853  C     
13   N        24.3929   67.7806   17.6342  N     
14   C        25.3170   68.4023   18.4269  C     
15   C        26.3606   69.1660   17.8527  C     
16   C        26.3377   69.2927   16.4430  C     
17   N        25.4262   68.5942   15.7126  N     
18   N        25.1327   68.2011   19.7421  N     
19   C        25.7837   67.2474   20.5628  C     
20   C        25.2524   65.8749   20.3624  C     
21   C        23.8787   65.5908   20.5200  C     
22   C        23.4044   64.2830   20.3169  C     
23   C        24.2983   63.2588   19.9692  C     
24   C        25.6598   63.5687   19.8341  C     
25   N        26.0836   64.8481   20.0297  N     
26   C        27.1762   69.8649   18.5878  C     
27   N        27.8980   70.5019   19.2201  N     
28   H        21.2648   67.2543   14.6370  H     
29   H        23.7771   64.6479   16.8238  H     
30   H        21.8801   63.1175   17.1219  H     
31   H        19.2351   62.7947   16.5121  H     
32   H        18.4042   66.3959   15.2450  H     
33   H        18.9185   65.5288   13.7609  H     
34   H        23.8905   67.1530   14.5316  H     
35   H        27.0219   69.8604   15.9682  H     
36   H        24.2122   68.4649   20.0704  H     
37   H        26.8658   67.2699   20.3447  H     
38   H        25.6425   67.5891   21.5700  H     
39   H        23.2212   66.3257   20.7741  H     
40   H        22.4080   64.0758   20.4182  H     
41   H        23.9589   62.3004   19.8139  H     
42   H        26.3304   62.8364   19.5733  H     
@<TRIPOS>BOND
     1    1    2 2
     2    1    5 1
     3    2    3 1
     4    2   11 1
     5    3    4 2
     6    4    6 1
     7    5    6 2
     8    5    9 1
     9    6    7 1
    10    7    8 1
    11    8    9 1
    12    8   10 2
    13   11   12 1
    14   12   13 2
    15   12   17 1
    16   13   14 1
    17   14   15 2
    18   14   18 1
    19   15   16 1
    20   15   26 1
    21   16   17 2
    22   18   19 1
    23   19   20 1
    24   20   21 2
    25   20   25 1
    26   21   22 1
    27   22   23 2
    28   23   24 1
    29   24   25 2
    30   26   27 3
    31    1   28 1
    32    3   29 1
    33    4   30 1
    34    7   31 1
    35    9   32 1
    36    9   33 1
    37   11   34 1
    38   16   35 1
    39   18   36 1
    40   19   37 1
    41   19   38 1
    42   21   39 1
    43   22   40 1
    44   23   41 1
    45   24   42 1
@<TRIPOS>PROPERTY_DATA
  Total_Score	| 4.6224
  Crash		| -0.4932
  Polar		| 1.9781
  FragIndex	| 1
  FragRMSD	| 0.504

