@<TRIPOS>MOLECULE
BindingDB_50204710
 61 65 0 0 0
SMALL
NO_CHARGES


@<TRIPOS>ATOM
1    C         1.1123    9.0839  -20.2252  C     
2    C         1.0571    8.0263  -19.2800  C     
3    C        -0.1224    7.8233  -18.5239  C     
4    C        -0.0121    9.9032  -20.4514  C     
5    C        -1.1880    9.6441  -19.7265  C     
6    C        -1.2408    8.6322  -18.7617  C     
7    C        -2.5680    8.5167  -18.1365  C     
8    C        -2.4466   10.2121  -19.7699  C     
9    C        -3.2665    9.5775  -18.8748  C     
10   C        -4.5134   10.1935  -18.9712  C     
11   N        -4.3720   11.1503  -19.9209  N     
12   N        -3.1593   11.1546  -20.3921  N     
13   C        -5.6958    9.9444  -18.2231  C     
14   C        -5.8530    8.7828  -17.4304  C     
15   C        -6.9875    8.5957  -16.6245  C     
16   C        -8.0091    9.5669  -16.5913  C     
17   C        -7.8927   10.7012  -17.4242  C     
18   C        -6.7526   10.8879  -18.2267  C     
19   C         2.2029    7.0873  -19.1024  C     
20   N         1.7622    5.7075  -19.4598  N     
21   C         2.5045    4.9939  -20.5340  C     
22   C         2.7763    5.8541  -21.8081  C     
23   C         3.4915    5.0099  -22.9036  C     
24   C         2.6306    3.7731  -23.3079  C     
25   C         2.3382    2.8957  -22.0548  C     
26   C         1.6927    3.7154  -20.9053  C     
27   C         3.2940    2.9552  -24.4447  C     
28   C        -9.1693    9.3927  -15.6873  C     
29   N        -9.9913    8.2530  -16.0995  N     
30   H         1.9655    9.2517  -20.7691  H     
31   H        -0.1731    7.0684  -17.8341  H     
32   H         0.0186   10.6474  -21.1499  H     
33   H        -2.9995    7.5358  -18.3365  H     
34   H        -2.5317    8.7265  -17.0663  H     
35   H        -2.8226   11.7316  -21.0928  H     
36   H        -5.1401    8.0546  -17.4169  H     
37   H        -7.0544    7.7517  -16.0495  H     
38   H        -8.6344   11.4005  -17.4505  H     
39   H        -6.6939   11.7385  -18.7929  H     
40   H         3.0829    7.3847  -19.6978  H     
41   H         2.5037    7.0922  -18.0451  H     
42   H         1.8514    5.1378  -18.6114  H     
43   H         0.7682    5.7077  -19.7065  H     
44   H         3.4656    4.6709  -20.1200  H     
45   H         1.8297    6.2410  -22.2021  H     
46   H         3.3976    6.7196  -21.5513  H     
47   H         3.6739    5.6481  -23.7700  H     
48   H         4.4649    4.6811  -22.5242  H     
49   H         1.6784    4.1461  -23.6961  H     
50   H         1.6576    2.0860  -22.3306  H     
51   H         3.2664    2.4461  -21.6933  H     
52   H         1.6101    3.0761  -20.0217  H     
53   H         0.6812    4.0079  -21.2010  H     
54   H         3.4971    3.5969  -25.3049  H     
55   H         2.6249    2.1526  -24.7663  H     
56   H         4.2359    2.5121  -24.1056  H     
57   H        -8.8122    9.2137  -14.6708  H     
58   H        -9.8031   10.2827  -15.6680  H     
59   H        -9.5194    7.3825  -15.8411  H     
60   H       -10.1256    8.2744  -17.1125  H     
61   H       -10.9029    8.3025  -15.6354  H     
@<TRIPOS>BOND
     1    1    2 2
     2    1    4 1
     3    2    3 1
     4    2   19 1
     5    3    6 2
     6    4    5 2
     7    5    6 1
     8    5    8 1
     9    6    7 1
    10    7    9 1
    11    8    9 2
    12    8   12 1
    13    9   10 1
    14   10   11 2
    15   10   13 1
    16   11   12 1
    17   13   14 2
    18   13   18 1
    19   14   15 1
    20   15   16 2
    21   16   17 1
    22   16   28 1
    23   17   18 2
    24   19   20 1
    25   21   20 1
    26   21   22 1
    27   21   26 1
    28   22   23 1
    29   23   24 1
    30   24   25 1
    31   24   27 1
    32   25   26 1
    33   28   29 1
    34    1   30 1
    35    3   31 1
    36    4   32 1
    37    7   33 1
    38    7   34 1
    39   12   35 1
    40   14   36 1
    41   15   37 1
    42   17   38 1
    43   18   39 1
    44   19   40 1
    45   19   41 1
    46   20   42 1
    47   20   43 1
    48   21   44 1
    49   22   45 1
    50   22   46 1
    51   23   47 1
    52   23   48 1
    53   24   49 1
    54   25   50 1
    55   25   51 1
    56   26   52 1
    57   26   53 1
    58   27   54 1
    59   27   55 1
    60   27   56 1
    61   28   57 1
    62   28   58 1
    63   29   59 1
    64   29   60 1
    65   29   61 1
@<TRIPOS>PROPERTY_DATA
  Total_Score	| 3.2096
  Crash		| -2.1650
  Polar		| 1.1098
  FragIndex	| 1
  FragRMSD	| 0.758

