@<TRIPOS>MOLECULE
BindingDB_50204706
 57 61 0 0 0
SMALL
NO_CHARGES


@<TRIPOS>ATOM
1    C         0.7678    9.1730  -20.2472  C     
2    C         0.7383    8.0003  -19.4448  C     
3    C        -0.4582    7.6799  -18.7529  C     
4    C        -0.3855    9.9680  -20.4234  C     
5    C        -1.5605    9.5943  -19.7547  C     
6    C        -1.5992    8.4867  -18.9050  C     
7    C        -2.9236    8.3224  -18.2700  C     
8    C        -2.8156   10.1596  -19.7302  C     
9    C        -3.6315    9.4610  -18.8765  C     
10   C        -4.8671   10.1112  -18.8956  C     
11   N        -4.7245   11.1304  -19.7805  N     
12   N        -3.5202   11.1509  -20.2734  N     
13   C        -6.0555    9.8207  -18.1595  C     
14   C        -6.2263    8.6074  -17.4481  C     
15   C        -7.3970    8.3521  -16.7087  C     
16   C        -8.4433    9.3012  -16.6487  C     
17   C        -8.2838   10.5055  -17.3741  C     
18   C        -7.1152   10.7599  -18.1168  C     
19   C         1.9302    7.1188  -19.2807  C     
20   N         1.6374    5.7128  -19.6642  N     
21   C         1.9286    5.1651  -21.0237  C     
22   C         3.3273    4.4706  -21.1193  C     
23   C         4.4817    5.4253  -21.5157  C     
24   C         4.1712    6.1650  -22.8470  C     
25   C         2.8508    6.9745  -22.6918  C     
26   C         1.6485    6.1025  -22.2354  C     
27   C         5.3479    7.0849  -23.2748  C     
28   C        -9.6150    9.0565  -15.8830  C     
29   O       -10.5928    9.9836  -15.7756  O     
30   O        -9.8056    7.9036  -15.1983  O     
31   H         1.6294    9.4651  -20.7114  H     
32   H        -0.5018    6.8711  -18.1299  H     
33   H        -0.3640   10.8018  -21.0135  H     
34   H        -3.3812    7.3750  -18.5551  H     
35   H        -2.8652    8.4243  -17.1864  H     
36   H        -3.1706   11.7458  -20.9586  H     
37   H        -5.5075    7.8843  -17.4626  H     
38   H        -7.4718    7.4627  -16.2089  H     
39   H        -9.0178   11.2174  -17.3663  H     
40   H        -7.0381   11.6535  -18.6123  H     
41   H         2.8105    7.4962  -19.7975  H     
42   H         2.1847    7.1137  -18.2211  H     
43   H         2.1400    5.1210  -19.0012  H     
44   H         0.6389    5.5464  -19.4911  H     
45   H         1.1962    4.3536  -21.1062  H     
46   H         3.5707    3.9908  -20.1704  H     
47   H         3.2771    3.6754  -21.8737  H     
48   H         4.6388    6.1547  -20.7205  H     
49   H         5.4078    4.8382  -21.6233  H     
50   H         4.0375    5.4219  -23.6385  H     
51   H         3.0212    7.7671  -21.9664  H     
52   H         2.5978    7.4472  -23.6430  H     
53   H         1.3481    5.4872  -23.0853  H     
54   H         0.8032    6.7503  -21.9985  H     
55   H         5.5273    7.8606  -22.5306  H     
56   H         5.1241    7.5612  -24.2298  H     
57   H         6.2659    6.5036  -23.3892  H     
@<TRIPOS>BOND
     1    1    2 2
     2    1    4 1
     3    2    3 1
     4    2   19 1
     5    3    6 2
     6    4    5 2
     7    5    6 1
     8    5    8 1
     9    6    7 1
    10    7    9 1
    11    8    9 2
    12    8   12 1
    13    9   10 1
    14   10   11 2
    15   10   13 1
    16   11   12 1
    17   13   14 2
    18   13   18 1
    19   14   15 1
    20   15   16 2
    21   16   17 1
    22   16   28 1
    23   17   18 2
    24   19   20 1
    25   21   20 1
    26   21   22 1
    27   21   26 1
    28   22   23 1
    29   23   24 1
    30   24   25 1
    31   24   27 1
    32   25   26 1
    33   28   29 2
    34   28   30 1
    35    1   31 1
    36    3   32 1
    37    4   33 1
    38    7   34 1
    39    7   35 1
    40   12   36 1
    41   14   37 1
    42   15   38 1
    43   17   39 1
    44   18   40 1
    45   19   41 1
    46   19   42 1
    47   20   43 1
    48   20   44 1
    49   21   45 1
    50   22   46 1
    51   22   47 1
    52   23   48 1
    53   23   49 1
    54   24   50 1
    55   25   51 1
    56   25   52 1
    57   26   53 1
    58   26   54 1
    59   27   55 1
    60   27   56 1
    61   27   57 1
@<TRIPOS>PROPERTY_DATA
  Total_Score	| 5.1515
  Crash		| -1.0527
  Polar		| 3.0377
  FragIndex	| 1
  FragRMSD	| 0.488

