@<TRIPOS>MOLECULE
BindingDB_50204727
 59 63 0 0 0
SMALL
NO_CHARGES


@<TRIPOS>ATOM
1    C         0.7914    8.5863  -19.6771  C     
2    C         0.7276    7.6252  -18.6352  C     
3    C        -0.4916    7.4570  -17.9282  C     
4    C        -0.3346    9.3604  -20.0246  C     
5    C        -1.5249    9.1691  -19.3086  C     
6    C        -1.6106    8.2406  -18.2645  C     
7    C        -2.9523    8.2285  -17.6512  C     
8    C        -2.7544    9.7821  -19.4159  C     
9    C        -3.6037    9.2537  -18.4790  C     
10   C        -4.8101    9.9225  -18.6364  C     
11   N        -4.6314   10.8111  -19.6418  N     
12   N        -3.4199   10.7147  -20.1060  N     
13   C        -6.0219    9.7070  -17.9380  C     
14   C        -6.4322    8.3997  -17.5865  C     
15   C        -7.6491    8.1812  -16.9156  C     
16   C        -8.4806    9.2635  -16.5575  C     
17   C        -8.0769   10.5699  -16.9285  C     
18   C        -6.8660   10.7894  -17.6136  C     
19   C         1.9021    6.7875  -18.2930  C     
20   N         1.8386    5.4587  -18.9458  N     
21   C         2.4828    5.2789  -20.2796  C     
22   C         1.4416    5.3905  -21.4291  C     
23   C         2.0729    5.1098  -22.8183  C     
24   C         2.7798    3.7215  -22.8581  C     
25   C         3.8282    3.6075  -21.7105  C     
26   C         3.1918    3.8921  -20.3241  C     
27   C         3.4222    3.4520  -24.2427  C     
28   C        -9.7617    9.0526  -15.8368  C     
29   O        -9.8337    7.8219  -15.1236  O     
30   H         1.6594    8.7195  -20.2040  H     
31   H        -0.5701    6.7658  -17.1781  H     
32   H        -0.2884   10.0451  -20.7830  H     
33   H        -3.4198    7.2470  -17.7535  H     
34   H        -2.9219    8.5437  -16.6082  H     
35   H        -3.0608   11.2073  -20.8607  H     
36   H        -5.8635    7.5872  -17.8381  H     
37   H        -7.9339    7.2202  -16.7045  H     
38   H        -8.6548   11.3772  -16.6888  H     
39   H        -6.5983   11.7475  -17.8575  H     
40   H         2.8375    7.3051  -18.5237  H     
41   H         1.9026    6.6093  -17.2128  H     
42   H         2.2879    4.8062  -18.3040  H     
43   H         0.8533    5.1834  -19.0179  H     
44   H         3.2499    6.0442  -20.4355  H     
45   H         0.6297    4.6767  -21.2565  H     
46   H         1.0118    6.3936  -21.4379  H     
47   H         1.2832    5.1451  -23.5741  H     
48   H         2.7933    5.9002  -23.0521  H     
49   H         2.0181    2.9504  -22.6986  H     
50   H         4.2625    2.6024  -21.7036  H     
51   H         4.6420    4.3193  -21.8813  H     
52   H         3.9794    3.8687  -19.5662  H     
53   H         2.4792    3.0947  -20.0865  H     
54   H         2.6626    3.5011  -25.0254  H     
55   H         3.8704    2.4564  -24.2624  H     
56   H         4.1978    4.1899  -24.4590  H     
57   H        -9.9256    9.8619  -15.1240  H     
58   H       -10.5829    9.0561  -16.5531  H     
59   H        -9.0229    7.7727  -14.5780  H     
@<TRIPOS>BOND
     1    1    2 2
     2    1    4 1
     3    2    3 1
     4    2   19 1
     5    3    6 2
     6    4    5 2
     7    5    6 1
     8    5    8 1
     9    6    7 1
    10    7    9 1
    11    8    9 2
    12    8   12 1
    13    9   10 1
    14   10   11 2
    15   10   13 1
    16   11   12 1
    17   13   14 2
    18   13   18 1
    19   14   15 1
    20   15   16 2
    21   16   17 1
    22   16   28 1
    23   17   18 2
    24   19   20 1
    25   21   20 1
    26   21   22 1
    27   21   26 1
    28   22   23 1
    29   23   24 1
    30   24   25 1
    31   24   27 1
    32   25   26 1
    33   28   29 1
    34    1   30 1
    35    3   31 1
    36    4   32 1
    37    7   33 1
    38    7   34 1
    39   12   35 1
    40   14   36 1
    41   15   37 1
    42   17   38 1
    43   18   39 1
    44   19   40 1
    45   19   41 1
    46   20   42 1
    47   20   43 1
    48   21   44 1
    49   22   45 1
    50   22   46 1
    51   23   47 1
    52   23   48 1
    53   24   49 1
    54   25   50 1
    55   25   51 1
    56   26   52 1
    57   26   53 1
    58   27   54 1
    59   27   55 1
    60   27   56 1
    61   28   57 1
    62   28   58 1
    63   29   59 1
@<TRIPOS>PROPERTY_DATA
  Total_Score	| 5.1367
  Crash		| -1.4561
  Polar		| 2.6484
  FragIndex	| 1
  FragRMSD	| 1.047

