@<TRIPOS>MOLECULE
BindingDB_50204709
 57 61 0 0 0
SMALL
NO_CHARGES


@<TRIPOS>ATOM
1    C         0.8628    9.1066  -20.1848  C     
2    C         0.8593    8.0938  -19.1910  C     
3    C        -0.2990    7.9026  -18.3962  C     
4    C        -0.2830    9.8934  -20.4148  C     
5    C        -1.4297    9.6594  -19.6352  C     
6    C        -1.4377    8.6950  -18.6197  C     
7    C        -2.7421    8.6295  -17.9325  C     
8    C        -2.6941   10.2026  -19.6789  C     
9    C        -3.4794    9.6330  -18.7096  C     
10   C        -4.7454   10.2043  -18.8300  C     
11   N        -4.6473   11.0576  -19.8771  N     
12   N        -3.4463   11.0612  -20.3652  N     
13   C        -5.9313    9.9931  -18.0706  C     
14   C        -7.1410   10.6107  -18.4676  C     
15   C        -8.3166   10.4885  -17.7024  C     
16   C        -8.3112    9.7383  -16.5157  C     
17   C        -7.1264    9.0990  -16.1079  C     
18   C        -5.9558    9.2224  -16.8821  C     
19   C         2.0268    7.1877  -19.0128  C     
20   N         1.6375    5.7977  -19.3851  N     
21   C         2.4225    5.0531  -20.4052  C     
22   C         2.7773    5.8878  -21.6789  C     
23   C         3.4770    5.0281  -22.7572  C     
24   C         2.5907    3.8147  -23.1720  C     
25   C         2.2573    2.9522  -21.9170  C     
26   C         1.5955    3.7917  -20.7947  C     
27   C         3.2577    2.9700  -24.2882  C     
28   N        -9.4304    9.6427  -15.7735  N     
29   H         1.6930    9.2615  -20.7692  H     
30   H        -0.3130    7.1807  -17.6682  H     
31   H        -0.2910   10.6067  -21.1460  H     
32   H        -3.1953    7.6405  -18.0296  H     
33   H        -2.6502    8.9170  -16.8829  H     
34   H        -3.1434   11.5631  -21.1348  H     
35   H        -7.1878   11.1756  -19.3183  H     
36   H        -9.1680   10.9632  -18.0070  H     
37   H        -7.1069    8.5492  -15.2419  H     
38   H        -5.1126    8.7560  -16.5420  H     
39   H         2.8990    7.5414  -19.5646  H     
40   H         2.3210    7.1916  -17.9599  H     
41   H         1.6842    5.2414  -18.5270  H     
42   H         0.6546    5.7843  -19.6768  H     
43   H         3.3566    4.7185  -19.9397  H     
44   H         1.8625    6.3270  -22.0908  H     
45   H         3.4575    6.7012  -21.4202  H     
46   H         3.6764    5.6589  -23.6291  H     
47   H         4.4420    4.6762  -22.3766  H     
48   H         1.6554    4.2101  -23.5845  H     
49   H         1.5767    2.1432  -22.2053  H     
50   H         3.1741    2.4986  -21.5263  H     
51   H         1.4694    3.1508  -19.9143  H     
52   H         0.5955    4.0969  -21.1262  H     
53   H         3.4629    3.5945  -25.1631  H     
54   H         2.5846    2.1614  -24.5916  H     
55   H         4.1970    2.5335  -23.9373  H     
56   H        -9.4238    9.1353  -14.9457  H     
57   H       -10.2386   10.1008  -16.0548  H     
@<TRIPOS>BOND
     1    1    2 2
     2    1    4 1
     3    2    3 1
     4    2   19 1
     5    3    6 2
     6    4    5 2
     7    5    6 1
     8    5    8 1
     9    6    7 1
    10    7    9 1
    11    8    9 2
    12    8   12 1
    13    9   10 1
    14   10   11 2
    15   10   13 1
    16   11   12 1
    17   13   14 2
    18   13   18 1
    19   14   15 1
    20   15   16 2
    21   16   17 1
    22   16   28 1
    23   17   18 2
    24   19   20 1
    25   21   20 1
    26   21   22 1
    27   21   26 1
    28   22   23 1
    29   23   24 1
    30   24   25 1
    31   24   27 1
    32   25   26 1
    33    1   29 1
    34    3   30 1
    35    4   31 1
    36    7   32 1
    37    7   33 1
    38   12   34 1
    39   14   35 1
    40   15   36 1
    41   17   37 1
    42   18   38 1
    43   19   39 1
    44   19   40 1
    45   20   41 1
    46   20   42 1
    47   21   43 1
    48   22   44 1
    49   22   45 1
    50   23   46 1
    51   23   47 1
    52   24   48 1
    53   25   49 1
    54   25   50 1
    55   26   51 1
    56   26   52 1
    57   27   53 1
    58   27   54 1
    59   27   55 1
    60   28   56 1
    61   28   57 1
@<TRIPOS>PROPERTY_DATA
  Total_Score	| 3.1758
  Crash		| -1.3008
  Polar		| 1.1490
  FragIndex	| 1
  FragRMSD	| 0.795

