@<TRIPOS>MOLECULE
BindingDB_16116
 42 44 0 0 0
SMALL
NO_CHARGES


@<TRIPOS>ATOM
1    C        48.0496   39.8968   -1.8142  C     
2    C        47.4922   39.7515   -3.1067  C     
3    C        46.2533   38.4129   -1.3008  C     
4    C        47.3537   39.1360   -0.8406  C     
5    C        47.9162   40.2439   -4.3558  C     
6    O        47.0107   40.6186   -5.2834  O     
7    O        49.1852   40.0610   -4.7809  O     
8    C        49.1060   40.7353   -1.4500  C     
9    O        49.8325   40.3871   -0.5218  O     
10   N        49.3126   41.9125   -2.0496  N     
11   C        50.2840   42.8440   -1.7523  C     
12   C        52.4038   44.7078   -1.1604  C     
13   C        52.2300   44.1594   -2.4602  C     
14   C        51.2007   43.2341   -2.7515  C     
15   C        50.3669   43.4741   -0.4862  C     
16   C        51.4198   44.3620   -0.1955  C     
17   C        53.5210   45.5712   -0.8437  C     
18   C        55.6525   47.3475   -0.1252  C     
19   C        55.7921   46.4791   -1.2157  C     
20   C        54.7684   45.5546   -1.5541  C     
21   C        53.3986   46.5026    0.2296  C     
22   C        54.4540   47.3477    0.6049  C     
23   S        46.1283   38.7032   -2.9832  S     
24   F        51.1347   42.7202   -3.9505  F     
25   F        49.4673   43.2663    0.4378  F     
26   O        54.9686   44.6630   -2.5996  O     
27   C        56.2543   44.0269   -2.8008  C     
28   C        57.0757   44.7304   -3.9092  C     
29   H        45.6282   37.8346   -0.7369  H     
30   H        47.6191   39.1207    0.1464  H     
31   H        48.7636   42.1050   -2.8242  H     
32   H        52.8622   44.4286   -3.2240  H     
33   H        51.4867   44.7280    0.7603  H     
34   H        56.4139   47.9808    0.1322  H     
35   H        56.6671   46.5099   -1.7397  H     
36   H        52.5295   46.6061    0.7570  H     
37   H        54.3583   47.9681    1.4086  H     
38   H        56.8496   43.9741   -1.8891  H     
39   H        56.0620   42.9938   -3.1184  H     
40   H        56.5612   44.6409   -4.8678  H     
41   H        58.0645   44.2554   -3.9951  H     
42   H        57.2247   45.7958   -3.6763  H     
@<TRIPOS>BOND
     1    1    2 2
     2    1    4 1
     3    1    8 1
     4    2    5 1
     5    2   23 1
     6    3    4 2
     7    3   23 1
     8    5    6 2
     9    5    7 1
    10    8    9 2
    11    8   10 am
    12   10   11 1
    13   11   14 1
    14   11   15 2
    15   12   13 1
    16   12   16 2
    17   12   17 1
    18   13   14 2
    19   14   24 1
    20   15   16 1
    21   15   25 1
    22   17   20 1
    23   17   21 2
    24   18   19 1
    25   18   22 2
    26   19   20 2
    27   20   26 1
    28   21   22 1
    29   26   27 1
    30   27   28 1
    31    3   29 1
    32    4   30 1
    33   10   31 1
    34   13   32 1
    35   16   33 1
    36   18   34 1
    37   19   35 1
    38   21   36 1
    39   22   37 1
    40   27   38 1
    41   27   39 1
    42   28   40 1
    43   28   41 1
    44   28   42 1
@<TRIPOS>PROPERTY_DATA
  Total_Score	| 12.0271
  Crash		| -1.5051
  Polar		| 4.8728
  FragIndex	| 1
  FragRMSD	| 0.921

