@<TRIPOS>MOLECULE
BindingDB_16117
 39 41 0 0 0
SMALL
NO_CHARGES


@<TRIPOS>ATOM
1    C        48.0720   39.7988   -1.8388  C     
2    C        47.4658   39.6635   -3.1077  C     
3    C        46.2914   38.3181   -1.2673  C     
4    C        47.4160   39.0237   -0.8465  C     
5    C        47.8234   40.1871   -4.3509  C     
6    O        46.8822   40.3607   -5.2998  O     
7    O        49.1171   40.2482   -4.7463  O     
8    C        49.1058   40.6685   -1.4908  C     
9    O        49.8340   40.3532   -0.5470  O     
10   N        49.2693   41.8357   -2.1057  N     
11   C        50.1523   42.8357   -1.7781  C     
12   C        52.1601   44.7444   -1.1069  C     
13   C        51.9588   44.3419   -2.4582  C     
14   C        50.9816   43.3794   -2.7766  C     
15   C        50.2117   43.3833   -0.4714  C     
16   C        51.2334   44.2950   -0.1323  C     
17   C        53.3496   45.4670   -0.7376  C     
18   C        55.6882   46.9217    0.0024  C     
19   C        55.7746   45.8901   -0.9571  C     
20   C        54.6150   45.1390   -1.3353  C     
21   C        53.2802   46.5484    0.1729  C     
22   C        54.4415   47.2440    0.5724  C     
23   S        46.0993   38.6278   -2.9384  S     
24   F        50.8843   42.9409   -4.0109  F     
25   F        49.3360   43.0537    0.4524  F     
26   O        54.5960   44.0797   -2.2678  O     
27   C        55.8238   43.7581   -2.9833  C     
28   F        52.7920   44.7951   -3.3799  F     
29   F        51.3387   44.6384    1.1332  F     
30   H        45.6831   37.7386   -0.6922  H     
31   H        47.6999   39.0218    0.1360  H     
32   H        48.7697   41.9852   -2.9196  H     
33   H        56.5228   47.4261    0.2933  H     
34   H        56.6858   45.6820   -1.3876  H     
35   H        52.3755   46.8380    0.5667  H     
36   H        54.3856   47.9819    1.2732  H     
37   H        56.1377   44.6280   -3.5541  H     
38   H        55.6358   42.9110   -3.6737  H     
39   H        56.6315   43.4587   -2.3171  H     
@<TRIPOS>BOND
     1    1    2 2
     2    1    4 1
     3    1    8 1
     4    2    5 1
     5    2   23 1
     6    3    4 2
     7    3   23 1
     8    5    6 2
     9    5    7 1
    10    8    9 2
    11    8   10 am
    12   10   11 1
    13   11   14 1
    14   11   15 2
    15   12   13 1
    16   12   16 2
    17   12   17 1
    18   13   14 2
    19   13   28 1
    20   14   24 1
    21   15   16 1
    22   15   25 1
    23   16   29 1
    24   17   20 1
    25   17   21 2
    26   18   19 1
    27   18   22 2
    28   19   20 2
    29   20   26 1
    30   21   22 1
    31   26   27 1
    32    3   30 1
    33    4   31 1
    34   10   32 1
    35   18   33 1
    36   19   34 1
    37   21   35 1
    38   22   36 1
    39   27   37 1
    40   27   38 1
    41   27   39 1
@<TRIPOS>PROPERTY_DATA
  Total_Score	| 10.7127
  Crash		| -1.7115
  Polar		| 4.5407
  FragIndex	| 1
  FragRMSD	| 0.980

