@<TRIPOS>MOLECULE
BindingDB_16126
 39 41 0 0 0
SMALL
NO_CHARGES


@<TRIPOS>ATOM
1    C        50.1485   42.7939   -1.6356  C     
2    C        52.0721   44.8004   -0.9719  C     
3    C        51.0960   44.3828   -0.0377  C     
4    C        50.1451   43.4020   -0.3624  C     
5    C        51.0675   43.2464   -2.6031  C     
6    C        52.0288   44.2258   -2.2695  C     
7    C        53.0643   45.7672   -0.6219  C     
8    C        55.0032   47.7266    0.0857  C     
9    C        54.6624   46.7146    0.9970  C     
10   C        53.7136   45.7381    0.6424  C     
11   C        53.4299   46.8005   -1.5253  C     
12   C        54.4018   47.7617   -1.1881  C     
13   F        49.2330   43.1081    0.5356  F     
14   N        49.2716   41.8224   -2.0146  N     
15   C        49.0904   40.6316   -1.4532  C     
16   O        49.7808   40.2899   -0.4974  O     
17   C        55.5269   48.3425   -3.1614  C     
18   O        54.7026   48.7685   -2.0653  O     
19   C        48.0596   39.7972   -1.8511  C     
20   C        46.4034   38.7433   -2.9325  C     
21   C        47.4805   39.6060   -3.1162  C     
22   C        47.3047   39.0130   -0.9749  C     
23   O        46.3096   38.3810   -1.6331  O     
24   C        47.8817   40.0896   -4.3729  C     
25   O        46.9489   40.5099   -5.2661  O     
26   O        49.1665   40.0869   -4.7730  O     
27   H        51.0674   44.8064    0.8964  H     
28   H        51.0654   42.8547   -3.5461  H     
29   H        52.7043   44.4912   -2.9824  H     
30   H        55.6861   48.4370    0.3485  H     
31   H        55.1010   46.6926    1.9189  H     
32   H        53.5016   45.0016    1.3209  H     
33   H        52.9695   46.8741   -2.4376  H     
34   H        48.7434   42.0216   -2.8115  H     
35   H        56.4965   47.9747   -2.8111  H     
36   H        55.7066   49.2049   -3.8070  H     
37   H        55.0368   47.5683   -3.7543  H     
38   H        45.7859   38.3965   -3.6697  H     
39   H        47.4547   38.9375    0.0368  H     
@<TRIPOS>BOND
     1    1    4 1
     2    1    5 2
     3    1   14 1
     4    2    3 1
     5    2    6 2
     6    2    7 1
     7    3    4 2
     8    4   13 1
     9    5    6 1
    10    7   10 1
    11    7   11 2
    12    8    9 1
    13    8   12 2
    14    9   10 2
    15   11   12 1
    16   12   18 1
    17   14   15 am
    18   15   16 2
    19   15   19 1
    20   17   18 1
    21   19   21 1
    22   19   22 2
    23   20   21 2
    24   20   23 1
    25   21   24 1
    26   22   23 1
    27   24   25 2
    28   24   26 1
    29    3   27 1
    30    5   28 1
    31    6   29 1
    32    8   30 1
    33    9   31 1
    34   10   32 1
    35   11   33 1
    36   14   34 1
    37   17   35 1
    38   17   36 1
    39   17   37 1
    40   20   38 1
    41   22   39 1
@<TRIPOS>PROPERTY_DATA
  Total_Score	| 10.4273
  Crash		| -0.7116
  Polar		| 4.8690
  FragIndex	| 1
  FragRMSD	| 0.676

