@<TRIPOS>MOLECULE
BindingDB_16124
 41 43 0 0 0
SMALL
NO_CHARGES


@<TRIPOS>ATOM
1    C        50.1899   42.9584   -1.4450  C     
2    C        52.1709   44.9242   -0.8110  C     
3    C        52.1216   44.3269   -2.0920  C     
4    C        51.1414   43.3666   -2.4048  C     
5    C        50.1994   43.5981   -0.1846  C     
6    C        51.1790   44.5569    0.1333  C     
7    C        53.1764   45.8811   -0.4951  C     
8    C        55.2217   47.7596    0.1071  C     
9    C        54.5594   47.8125   -1.1347  C     
10   C        53.5231   46.9008   -1.4161  C     
11   C        53.8656   45.8374    0.7443  C     
12   C        54.8697   46.7757    1.0485  C     
13   F        51.1577   42.8491   -3.6023  F     
14   O        54.8609   48.8044   -2.0276  O     
15   C        55.5515   48.3440   -3.2006  C     
16   N        49.2850   41.9941   -1.7977  N     
17   C        49.0878   40.8091   -1.2065  C     
18   O        49.7730   40.4799   -0.2423  O     
19   C        48.1180   39.9190   -1.6758  C     
20   C        46.6145   38.8647   -3.2092  C     
21   C        47.2797   39.2568   -0.7614  C     
22   S        46.0644   38.4366   -1.6362  S     
23   C        47.7860   39.6472   -3.0415  C     
24   C        45.9437   38.3791   -4.3544  C     
25   O        46.4508   38.5024   -5.6017  O     
26   O        44.7620   37.7306   -4.2357  O     
27   C        48.6038   40.0477   -4.1314  C     
28   O        49.9215   40.3323   -3.9240  O     
29   O        48.0743   40.3997   -5.3380  O     
30   H        52.8266   44.5644   -2.7952  H     
31   H        49.4878   43.3738    0.5114  H     
32   H        51.1543   44.9847    1.0634  H     
33   H        55.9692   48.4264    0.3153  H     
34   H        53.0353   46.9886   -2.3119  H     
35   H        53.6476   45.1243    1.4436  H     
36   H        55.3532   46.7320    1.9459  H     
37   H        56.4708   47.8214   -2.9282  H     
38   H        55.8044   49.2149   -3.8035  H     
39   H        54.9214   47.6818   -3.7935  H     
40   H        48.8475   42.1270   -2.6560  H     
41   H        47.3126   39.2939    0.2596  H     
@<TRIPOS>BOND
     1    1    4 1
     2    1    5 2
     3    1   16 1
     4    2    3 1
     5    2    6 2
     6    2    7 1
     7    3    4 2
     8    4   13 1
     9    5    6 1
    10    7   10 1
    11    7   11 2
    12    8    9 1
    13    8   12 2
    14    9   10 2
    15    9   14 1
    16   11   12 1
    17   14   15 1
    18   16   17 am
    19   17   18 2
    20   17   19 1
    21   19   21 2
    22   19   23 1
    23   20   22 1
    24   20   23 2
    25   20   24 1
    26   21   22 1
    27   23   27 1
    28   24   25 2
    29   24   26 1
    30   27   28 2
    31   27   29 1
    32    3   30 1
    33    5   31 1
    34    6   32 1
    35    8   33 1
    36   10   34 1
    37   11   35 1
    38   12   36 1
    39   15   37 1
    40   15   38 1
    41   15   39 1
    42   16   40 1
    43   21   41 1
@<TRIPOS>PROPERTY_DATA
  Total_Score	| 10.6146
  Crash		| -1.6707
  Polar		| 4.8003
  FragIndex	| 1
  FragRMSD	| 0.436

