@<TRIPOS>MOLECULE
BindingDB_16125
 42 44 0 0 0
SMALL
NO_CHARGES


@<TRIPOS>ATOM
1    C        50.1746   42.7716   -1.6860  C     
2    C        52.0660   44.7936   -0.9695  C     
3    C        52.0317   44.2515   -2.2796  C     
4    C        51.0855   43.2711   -2.6421  C     
5    C        50.1724   43.3357   -0.3874  C     
6    C        51.1060   44.3282   -0.0388  C     
7    C        53.0350   45.7751   -0.6019  C     
8    C        54.9908   47.7115    0.1013  C     
9    C        54.4190   47.7350   -1.1832  C     
10   C        53.4169   46.7957   -1.5095  C     
11   C        53.6560   45.7560    0.6746  C     
12   C        54.6053   46.7329    1.0330  C     
13   F        51.0981   42.8102   -3.8640  F     
14   O        54.8603   48.7002   -2.0511  O     
15   N        49.2911   41.8020   -2.0727  N     
16   C        49.0556   40.6492   -1.4590  C     
17   O        49.7378   40.3163   -0.4949  O     
18   F        49.2820   42.9850    0.5040  F     
19   C        55.2786   48.2590   -3.3597  C     
20   C        56.5222   49.0623   -3.7799  C     
21   C        48.0107   39.8208   -1.8497  C     
22   C        47.3976   39.6409   -3.0988  C     
23   C        46.3141   38.7858   -2.8922  C     
24   C        47.2776   39.0306   -0.9564  C     
25   O        46.2596   38.4186   -1.5937  O     
26   C        47.7793   40.1317   -4.3635  C     
27   O        49.0549   40.0038   -4.8055  O     
28   O        46.8477   40.5012   -5.2663  O     
29   H        52.7132   44.5545   -2.9799  H     
30   H        51.0658   44.7295    0.9017  H     
31   H        55.6906   48.4098    0.3630  H     
32   H        52.9653   46.8617   -2.4241  H     
33   H        53.4260   45.0318    1.3571  H     
34   H        55.0221   46.7247    1.9649  H     
35   H        48.8108   41.9634   -2.9034  H     
36   H        55.5271   47.1930   -3.3973  H     
37   H        54.4652   48.4503   -4.0677  H     
38   H        56.3001   50.1322   -3.7634  H     
39   H        56.8321   48.7806   -4.7867  H     
40   H        57.3466   48.8612   -3.0889  H     
41   H        45.6670   38.4490   -3.6061  H     
42   H        47.4537   38.9513    0.0473  H     
@<TRIPOS>BOND
     1    1    4 1
     2    1    5 2
     3    1   15 1
     4    2    3 1
     5    2    6 2
     6    2    7 1
     7    3    4 2
     8    4   13 1
     9    5    6 1
    10    5   18 1
    11    7   10 1
    12    7   11 2
    13    8    9 1
    14    8   12 2
    15    9   10 2
    16    9   14 1
    17   11   12 1
    18   14   19 1
    19   15   16 am
    20   16   17 2
    21   16   21 1
    22   19   20 1
    23   21   22 1
    24   21   24 2
    25   22   23 2
    26   22   26 1
    27   23   25 1
    28   24   25 1
    29   26   27 2
    30   26   28 1
    31    3   29 1
    32    6   30 1
    33    8   31 1
    34   10   32 1
    35   11   33 1
    36   12   34 1
    37   15   35 1
    38   19   36 1
    39   19   37 1
    40   20   38 1
    41   20   39 1
    42   20   40 1
    43   23   41 1
    44   24   42 1
@<TRIPOS>PROPERTY_DATA
  Total_Score	| 10.9409
  Crash		| -0.7581
  Polar		| 4.7994
  FragIndex	| 1
  FragRMSD	| 0.171

