@<TRIPOS>MOLECULE
BindingDB_16113
 35 37 0 0 0
SMALL
NO_CHARGES


@<TRIPOS>ATOM
1    C        47.9494   39.8209   -1.8166  C     
2    C        47.4152   39.7373   -3.1275  C     
3    C        46.1293   38.3308   -1.4007  C     
4    C        47.2255   39.0240   -0.8910  C     
5    C        47.8475   40.2793   -4.3544  C     
6    O        46.9375   40.5747   -5.3064  O     
7    O        49.0957   40.0383   -4.8066  O     
8    C        48.9992   40.6380   -1.3802  C     
9    O        49.6203   40.3211   -0.3704  O     
10   N        49.2969   41.7792   -1.9960  N     
11   C        50.1781   42.7482   -1.6028  C     
12   C        52.0295   44.8116   -0.9007  C     
13   C        52.0260   44.2390   -2.1974  C     
14   C        51.1018   43.2374   -2.5481  C     
15   C        50.1519   43.3345   -0.3172  C     
16   C        51.0600   44.3530    0.0262  C     
17   C        52.9834   45.8143   -0.5391  C     
18   C        54.9161   47.7863    0.1532  C     
19   C        54.2823   47.8280   -1.0987  C     
20   C        53.3269   46.8528   -1.4409  C     
21   C        53.6289   45.7967    0.7236  C     
22   C        54.5839   46.7731    1.0666  C     
23   S        46.0413   38.6974   -3.0695  S     
24   H        45.4907   37.7260   -0.8824  H     
25   H        47.4524   38.9715    0.1050  H     
26   H        48.8600   41.9369   -2.8405  H     
27   H        52.7119   44.5339   -2.8983  H     
28   H        51.1289   42.8434   -3.4926  H     
29   H        49.4535   43.0419    0.3700  H     
30   H        51.0048   44.7570    0.9653  H     
31   H        55.6130   48.4932    0.3989  H     
32   H        54.5169   48.5695   -1.7641  H     
33   H        52.8719   46.9194   -2.3558  H     
34   H        53.4288   45.0568    1.4023  H     
35   H        55.0479   46.7388    1.9776  H     
@<TRIPOS>BOND
     1    1    2 2
     2    1    4 1
     3    1    8 1
     4    2    5 1
     5    2   23 1
     6    3    4 2
     7    3   23 1
     8    5    6 2
     9    5    7 1
    10    8    9 2
    11    8   10 am
    12   10   11 1
    13   11   14 1
    14   11   15 2
    15   12   13 1
    16   12   16 2
    17   12   17 1
    18   13   14 2
    19   15   16 1
    20   17   20 1
    21   17   21 2
    22   18   19 1
    23   18   22 2
    24   19   20 2
    25   21   22 1
    26    3   24 1
    27    4   25 1
    28   10   26 1
    29   13   27 1
    30   14   28 1
    31   15   29 1
    32   16   30 1
    33   18   31 1
    34   19   32 1
    35   20   33 1
    36   21   34 1
    37   22   35 1
@<TRIPOS>PROPERTY_DATA
  Total_Score	| 10.2414
  Crash		| -0.7160
  Polar		| 4.8339
  FragIndex	| 1
  FragRMSD	| 0.681

