@<TRIPOS>MOLECULE
BindingDB_16118
 39 41 0 0 0
SMALL
NO_CHARGES


@<TRIPOS>ATOM
1    C        48.0940   39.8823   -1.7946  C     
2    C        47.5241   39.7546   -3.0842  C     
3    C        46.3299   38.3565   -1.2891  C     
4    C        47.4287   39.0802   -0.8288  C     
5    C        47.9291   40.2754   -4.3266  C     
6    O        49.2381   40.3918   -4.6404  O     
7    O        47.0425   40.3888   -5.3381  O     
8    C        49.1362   40.7396   -1.4212  C     
9    O        49.8623   40.4006   -0.4927  O     
10   N        49.3297   41.9127   -2.0236  N     
11   C        50.2622   42.8724   -1.7334  C     
12   C        52.3420   44.7794   -1.2026  C     
13   C        52.1202   44.2602   -2.5039  C     
14   C        51.1014   43.3279   -2.7673  C     
15   C        50.3923   43.4686   -0.4614  C     
16   C        51.4071   44.4111   -0.1905  C     
17   C        53.5157   45.5790   -0.9475  C     
18   C        55.8384   47.0814   -0.2742  C     
19   C        55.8980   46.0984   -1.2729  C     
20   C        54.7585   45.3221   -1.6062  C     
21   C        53.4734   46.6219    0.0137  C     
22   C        54.6284   47.3342    0.3779  C     
23   S        46.1763   38.6885   -2.9633  S     
24   O        54.7977   44.2991   -2.5370  O     
25   C        56.0199   43.7370   -3.0406  C     
26   Cl       51.4760   44.9817    1.4074  Cl    
27   H        45.7243   37.7471   -0.7372  H     
28   H        47.6967   39.0495    0.1594  H     
29   H        48.7825   42.0930   -2.8015  H     
30   H        52.7236   44.5423   -3.2810  H     
31   H        51.0008   42.9553   -3.7147  H     
32   H        49.7353   43.2079    0.2773  H     
33   H        56.6761   47.6117   -0.0241  H     
34   H        56.7967   45.9380   -1.7301  H     
35   H        52.5970   46.8632    0.4791  H     
36   H        54.5947   48.0362    1.1186  H     
37   H        56.5429   44.4509   -3.6813  H     
38   H        55.7703   42.8599   -3.6363  H     
39   H        56.6758   43.4256   -2.2257  H     
@<TRIPOS>BOND
     1    1    2 2
     2    1    4 1
     3    1    8 1
     4    2    5 1
     5    2   23 1
     6    3    4 2
     7    3   23 1
     8    5    6 2
     9    5    7 1
    10    8    9 2
    11    8   10 am
    12   10   11 1
    13   11   14 1
    14   11   15 2
    15   12   13 1
    16   12   16 2
    17   12   17 1
    18   13   14 2
    19   15   16 1
    20   16   26 1
    21   17   20 1
    22   17   21 2
    23   18   19 1
    24   18   22 2
    25   19   20 2
    26   20   24 1
    27   21   22 1
    28   24   25 1
    29    3   27 1
    30    4   28 1
    31   10   29 1
    32   13   30 1
    33   14   31 1
    34   15   32 1
    35   18   33 1
    36   19   34 1
    37   21   35 1
    38   22   36 1
    39   25   37 1
    40   25   38 1
    41   25   39 1
@<TRIPOS>PROPERTY_DATA
  Total_Score	| 9.7152
  Crash		| -2.4336
  Polar		| 4.3763
  FragIndex	| 1
  FragRMSD	| 0.777

