@<TRIPOS>MOLECULE
BindingDB_16115
 42 44 0 0 0
SMALL
NO_CHARGES


@<TRIPOS>ATOM
1    C        48.0705   39.8267   -1.7840  C     
2    C        47.5296   39.6983   -3.0853  C     
3    C        46.2799   38.3219   -1.3121  C     
4    C        47.3675   39.0475   -0.8317  C     
5    C        47.9339   40.2275   -4.3212  C     
6    O        49.2371   40.3489   -4.6395  O     
7    O        47.0448   40.3904   -5.3190  O     
8    C        49.1103   40.6731   -1.3971  C     
9    O        49.8367   40.3302   -0.4746  O     
10   N        49.2894   41.8626   -1.9680  N     
11   C        50.1963   42.8197   -1.6084  C     
12   C        52.1002   44.8587   -0.9358  C     
13   C        51.0825   44.4664   -0.0313  C     
14   C        50.1412   43.4703   -0.3570  C     
15   C        51.1772   43.2270   -2.5357  C     
16   C        52.1174   44.2209   -2.2007  C     
17   C        53.0854   45.8428   -0.5860  C     
18   C        55.0758   47.7517    0.1079  C     
19   C        54.5457   47.7555   -1.1923  C     
20   C        53.5437   46.8050   -1.5237  C     
21   C        53.6495   45.8832    0.7134  C     
22   C        54.6258   46.8288    1.0625  C     
23   S        46.1756   38.6408   -2.9908  S     
24   F        49.2016   43.1947    0.5063  F     
25   F        51.2419   42.6619   -3.7083  F     
26   O        55.0838   48.6966   -2.0395  O     
27   C        55.2958   48.4198   -3.4410  C     
28   C        56.1143   47.1273   -3.7060  C     
29   H        45.6532   37.7231   -0.7692  H     
30   H        47.6043   39.0370    0.1606  H     
31   H        48.7628   42.0527   -2.7558  H     
32   H        51.0093   44.9247    0.8797  H     
33   H        52.8460   44.4468   -2.8827  H     
34   H        55.8028   48.4212    0.3638  H     
35   H        53.1671   46.7998   -2.4723  H     
36   H        53.3718   45.2046    1.4220  H     
37   H        55.0172   46.8326    2.0078  H     
38   H        54.3291   48.3692   -3.9642  H     
39   H        55.8409   49.2605   -3.8634  H     
40   H        57.1498   47.2494   -3.3529  H     
41   H        56.1314   46.9475   -4.7885  H     
42   H        55.6592   46.2730   -3.2039  H     
@<TRIPOS>BOND
     1    1    2 2
     2    1    4 1
     3    1    8 1
     4    2    5 1
     5    2   23 1
     6    3    4 2
     7    3   23 1
     8    5    6 2
     9    5    7 1
    10    8    9 2
    11    8   10 am
    12   10   11 1
    13   11   14 1
    14   11   15 2
    15   12   13 1
    16   12   16 2
    17   12   17 1
    18   13   14 2
    19   14   24 1
    20   15   16 1
    21   15   25 1
    22   17   20 1
    23   17   21 2
    24   18   19 1
    25   18   22 2
    26   19   20 2
    27   19   26 1
    28   21   22 1
    29   26   27 1
    30   27   28 1
    31    3   29 1
    32    4   30 1
    33   10   31 1
    34   13   32 1
    35   16   33 1
    36   18   34 1
    37   20   35 1
    38   21   36 1
    39   22   37 1
    40   27   38 1
    41   27   39 1
    42   28   40 1
    43   28   41 1
    44   28   42 1
@<TRIPOS>PROPERTY_DATA
  Total_Score	| 10.8786
  Crash		| -0.6734
  Polar		| 4.4416
  FragIndex	| 1
  FragRMSD	| 0.203

