@<TRIPOS>MOLECULE
BindingDB_16120
 42 44 0 0 0
SMALL
NO_CHARGES


@<TRIPOS>ATOM
1    C        50.2809   42.8061   -1.8417  C     
2    C        52.3737   44.6853   -1.2645  C     
3    C        52.2040   44.1432   -2.5615  C     
4    C        51.1743   43.2248   -2.8527  C     
5    C        50.3648   43.4255   -0.5716  C     
6    C        51.4030   44.3322   -0.2900  C     
7    C        53.4929   45.5326   -0.9200  C     
8    C        55.7113   47.0978   -0.0055  C     
9    C        55.8800   46.1707   -1.0380  C     
10   C        54.7836   45.4177   -1.5353  C     
11   C        53.3574   46.4742    0.1357  C     
12   C        54.4478   47.2387    0.5906  C     
13   N        49.3212   41.8673   -2.1271  N     
14   C        49.1226   40.7136   -1.4919  C     
15   O        49.8774   40.3909   -0.5783  O     
16   C        48.0424   39.8816   -1.7846  C     
17   C        47.3999   39.7237   -3.0460  C     
18   C        46.2533   38.9163   -2.9907  C     
19   C        47.4095   39.1672   -0.7509  C     
20   S        46.0485   38.3445   -1.3904  S     
21   C        47.8341   40.2202   -4.2944  C     
22   O        49.1282   40.1052   -4.6785  O     
23   O        46.9439   40.5595   -5.2512  O     
24   O        54.9988   44.5408   -2.5794  O     
25   C        56.3365   44.0117   -2.7831  C     
26   C        57.1957   44.7722   -3.8260  C     
27   F        51.0961   42.7303   -4.0579  F     
28   F        49.4714   43.1944    0.3620  F     
29   H        52.8291   44.4201   -3.3176  H     
30   H        51.4640   44.7026    0.6636  H     
31   H        56.5058   47.6568    0.3245  H     
32   H        56.8146   46.0679   -1.4416  H     
33   H        52.4520   46.6178    0.5936  H     
34   H        54.3262   47.9080    1.3533  H     
35   H        48.7644   42.0466   -2.8996  H     
36   H        45.6522   38.6531   -3.7739  H     
37   H        47.6898   39.1399    0.2308  H     
38   H        56.8845   43.9731   -1.8366  H     
39   H        56.2152   42.9795   -3.1178  H     
40   H        56.6720   44.8300   -4.7783  H     
41   H        58.1448   44.2521   -3.9750  H     
42   H        57.4125   45.7915   -3.5000  H     
@<TRIPOS>BOND
     1    1    4 1
     2    1    5 2
     3    1   13 1
     4    2    3 1
     5    2    6 2
     6    2    7 1
     7    3    4 2
     8    4   27 1
     9    5    6 1
    10    5   28 1
    11    7   10 1
    12    7   11 2
    13    8    9 1
    14    8   12 2
    15    9   10 2
    16   10   24 1
    17   11   12 1
    18   13   14 am
    19   14   15 2
    20   14   16 1
    21   16   17 1
    22   16   19 2
    23   17   18 2
    24   17   21 1
    25   18   20 1
    26   19   20 1
    27   21   22 2
    28   21   23 1
    29   24   25 1
    30   25   26 1
    31    3   29 1
    32    6   30 1
    33    8   31 1
    34    9   32 1
    35   11   33 1
    36   12   34 1
    37   13   35 1
    38   18   36 1
    39   19   37 1
    40   25   38 1
    41   25   39 1
    42   26   40 1
    43   26   41 1
    44   26   42 1
@<TRIPOS>PROPERTY_DATA
  Total_Score	| 11.4475
  Crash		| -1.7002
  Polar		| 4.5968
  FragIndex	| 1
  FragRMSD	| 0.746

