@<TRIPOS>MOLECULE
BindingDB_16114
 39 41 0 0 0
SMALL
NO_CHARGES


@<TRIPOS>ATOM
1    C        48.0525   39.7343   -1.8336  C     
2    C        47.4733   39.6388   -3.1207  C     
3    C        46.2017   38.3040   -1.3319  C     
4    C        47.3445   38.9660   -0.8708  C     
5    C        47.8818   40.1788   -4.3517  C     
6    O        46.9597   40.5631   -5.2596  O     
7    O        49.1553   40.0460   -4.8048  O     
8    C        49.1096   40.5541   -1.4479  C     
9    O        49.7863   40.2337   -0.4780  O     
10   N        49.3250   41.7284   -2.0326  N     
11   C        50.1741   42.7341   -1.6539  C     
12   C        52.0621   44.7773   -0.9462  C     
13   C        51.0635   44.3581   -0.0300  C     
14   C        50.1261   43.3509   -0.3748  C     
15   C        51.1063   43.2138   -2.5957  C     
16   C        52.0387   44.2088   -2.2441  C     
17   C        53.0542   45.7506   -0.5849  C     
18   C        55.0369   47.6839    0.0802  C     
19   C        54.3792   47.7531   -1.1598  C     
20   C        53.3869   46.8044   -1.4736  C     
21   C        53.7555   45.6878    0.6519  C     
22   C        54.7321   46.6512    0.9832  C     
23   S        46.0692   38.6458   -3.0031  S     
24   F        49.1924   43.0564    0.4895  F     
25   O        54.6768   48.7689   -2.0270  O     
26   C        55.5708   48.3683   -3.0809  C     
27   H        45.5632   37.7316   -0.7778  H     
28   H        47.6008   38.9286    0.1135  H     
29   H        48.8268   41.9082   -2.8569  H     
30   H        51.0153   44.7833    0.9026  H     
31   H        51.1210   42.8220   -3.5329  H     
32   H        52.7223   44.4808   -2.9440  H     
33   H        55.7453   48.3818    0.3267  H     
34   H        52.8980   46.8984   -2.3663  H     
35   H        53.5789   44.9363    1.3167  H     
36   H        55.2281   46.5988    1.8747  H     
37   H        56.5055   47.9613   -2.6857  H     
38   H        55.8122   49.2491   -3.6780  H     
39   H        55.1004   47.6329   -3.7362  H     
@<TRIPOS>BOND
     1    1    2 2
     2    1    4 1
     3    1    8 1
     4    2    5 1
     5    2   23 1
     6    3    4 2
     7    3   23 1
     8    5    6 2
     9    5    7 1
    10    8    9 2
    11    8   10 am
    12   10   11 1
    13   11   14 1
    14   11   15 2
    15   12   13 1
    16   12   16 2
    17   12   17 1
    18   13   14 2
    19   14   24 1
    20   15   16 1
    21   17   20 1
    22   17   21 2
    23   18   19 1
    24   18   22 2
    25   19   20 2
    26   19   25 1
    27   21   22 1
    28   25   26 1
    29    3   27 1
    30    4   28 1
    31   10   29 1
    32   13   30 1
    33   15   31 1
    34   16   32 1
    35   18   33 1
    36   20   34 1
    37   21   35 1
    38   22   36 1
    39   26   37 1
    40   26   38 1
    41   26   39 1
@<TRIPOS>PROPERTY_DATA
  Total_Score	| 10.6170
  Crash		| -0.8491
  Polar		| 4.9088
  FragIndex	| 1
  FragRMSD	| 0.646

