@<TRIPOS>MOLECULE
BindingDB_16121
 39 41 0 0 0
SMALL
NO_CHARGES


@<TRIPOS>ATOM
1    C        50.1896   42.9072   -1.6432  C     
2    C        52.1231   44.8984   -0.9307  C     
3    C        51.1339   44.4760   -0.0067  C     
4    C        50.1835   43.4959   -0.3524  C     
5    C        51.1454   43.3502   -2.5857  C     
6    C        52.0973   44.3198   -2.2328  C     
7    C        53.1270   45.8477   -0.5556  C     
8    C        55.1315   47.7082    0.1894  C     
9    C        54.6621   47.7061   -1.1379  C     
10   C        53.6516   46.7801   -1.4895  C     
11   C        53.6412   45.8771    0.7629  C     
12   C        54.6292   46.7991    1.1378  C     
13   N        49.2916   41.9384   -1.9959  N     
14   C        49.1631   40.7476   -1.4193  C     
15   O        49.9346   40.4214   -0.5163  O     
16   C        48.1154   39.8867   -1.7551  C     
17   C        47.5041   39.7203   -3.0336  C     
18   C        46.3654   38.8899   -3.0101  C     
19   C        47.4812   39.1293   -0.7456  C     
20   S        46.1306   38.3049   -1.4141  S     
21   C        47.9570   40.2357   -4.2704  C     
22   O        49.2537   40.1180   -4.6328  O     
23   O        47.0782   40.5450   -5.2521  O     
24   F        49.2816   43.1653    0.5307  F     
25   F        51.1646   42.8484   -3.7978  F     
26   O        55.2574   48.6285   -1.9641  O     
27   C        55.3769   48.4380   -3.3816  C     
28   F        56.0599   49.5223   -3.8749  F     
29   F        56.0931   47.3074   -3.7180  F     
30   F        54.1406   48.4126   -3.9952  F     
31   H        51.0931   44.8830    0.9319  H     
32   H        52.8056   44.5827   -2.9247  H     
33   H        55.8656   48.3630    0.4644  H     
34   H        53.2764   46.7743   -2.4366  H     
35   H        53.3177   45.2068    1.4570  H     
36   H        54.9944   46.8135    2.0949  H     
37   H        48.6941   42.1603   -2.7225  H     
38   H        45.7755   38.6346   -3.8055  H     
39   H        47.7341   39.0963    0.2452  H     
@<TRIPOS>BOND
     1    1    4 1
     2    1    5 2
     3    1   13 1
     4    2    3 1
     5    2    6 2
     6    2    7 1
     7    3    4 2
     8    4   24 1
     9    5    6 1
    10    5   25 1
    11    7   10 1
    12    7   11 2
    13    8    9 1
    14    8   12 2
    15    9   10 2
    16    9   26 1
    17   11   12 1
    18   13   14 am
    19   14   15 2
    20   14   16 1
    21   16   17 1
    22   16   19 2
    23   17   18 2
    24   17   21 1
    25   18   20 1
    26   19   20 1
    27   21   22 2
    28   21   23 1
    29   26   27 1
    30   27   28 1
    31   27   29 1
    32   27   30 1
    33    3   31 1
    34    6   32 1
    35    8   33 1
    36   10   34 1
    37   11   35 1
    38   12   36 1
    39   13   37 1
    40   18   38 1
    41   19   39 1
@<TRIPOS>PROPERTY_DATA
  Total_Score	| 10.5260
  Crash		| -0.9552
  Polar		| 4.6446
  FragIndex	| 1
  FragRMSD	| 0.523

