@<TRIPOS>MOLECULE
BindingDB_16123
 41 43 0 0 0
SMALL
NO_CHARGES


@<TRIPOS>ATOM
1    C        50.2565   42.8300   -1.6200  C     
2    C        52.1821   44.8305   -0.9602  C     
3    C        51.1793   44.4354   -0.0270  C     
4    C        50.2290   43.4416   -0.3459  C     
5    C        51.2158   43.2260   -2.5717  C     
6    C        52.1588   44.2076   -2.2413  C     
7    C        53.1863   45.7928   -0.6209  C     
8    C        55.0645   47.8006    0.0900  C     
9    C        54.5113   47.7912   -1.2078  C     
10   C        53.5736   46.7932   -1.5471  C     
11   C        53.7886   45.8112    0.6592  C     
12   C        54.6898   46.8234    1.0269  C     
13   F        49.3088   43.1301    0.5328  F     
14   O        54.7691   48.7343   -2.1859  O     
15   C        56.0986   49.2672   -2.3214  C     
16   N        49.3789   41.8515   -1.9563  N     
17   C        49.2158   40.6664   -1.3688  C     
18   O        50.0007   40.3279   -0.4869  O     
19   C        48.1572   39.8168   -1.7110  C     
20   C        46.4357   38.2470   -1.1371  C     
21   C        47.5557   39.6827   -2.9813  C     
22   S        46.2383   38.5760   -2.8122  S     
23   C        47.9198   40.2098   -4.2326  C     
24   O        49.2234   40.4714   -4.5337  O     
25   O        47.0249   40.2917   -5.2441  O     
26   C        47.5243   39.0237   -0.7185  C     
27   C        45.6576   37.3838   -0.3446  C     
28   O        45.9254   37.2293    0.9747  O     
29   O        44.5708   36.7516   -0.8401  O     
30   H        51.1305   44.8727    0.8960  H     
31   H        51.2331   42.8022   -3.5074  H     
32   H        52.8572   44.4430   -2.9487  H     
33   H        55.7209   48.5280    0.3753  H     
34   H        53.1538   46.8275   -2.4791  H     
35   H        53.5568   45.1117    1.3720  H     
36   H        55.0933   46.8548    1.9638  H     
37   H        56.2881   50.0222   -1.5557  H     
38   H        56.1822   49.7278   -3.2989  H     
39   H        56.8492   48.4717   -2.2561  H     
40   H        48.7356   42.0787   -2.6609  H     
41   H        47.8388   39.0287    0.2595  H     
@<TRIPOS>BOND
     1    1    4 1
     2    1    5 2
     3    1   16 1
     4    2    3 1
     5    2    6 2
     6    2    7 1
     7    3    4 2
     8    4   13 1
     9    5    6 1
    10    7   10 1
    11    7   11 2
    12    8    9 1
    13    8   12 2
    14    9   10 2
    15    9   14 1
    16   11   12 1
    17   14   15 1
    18   16   17 am
    19   17   18 2
    20   17   19 1
    21   19   21 2
    22   19   26 1
    23   20   22 1
    24   20   26 2
    25   20   27 1
    26   21   22 1
    27   21   23 1
    28   23   24 2
    29   23   25 1
    30   27   28 2
    31   27   29 1
    32    3   30 1
    33    5   31 1
    34    6   32 1
    35    8   33 1
    36   10   34 1
    37   11   35 1
    38   12   36 1
    39   15   37 1
    40   15   38 1
    41   15   39 1
    42   16   40 1
    43   26   41 1
@<TRIPOS>PROPERTY_DATA
  Total_Score	| 10.1096
  Crash		| -1.1698
  Polar		| 4.0715
  FragIndex	| 1
  FragRMSD	| 0.328

