@<TRIPOS>MOLECULE
BindingDB_26471
 48 51 0 0 0
SMALL
NO_CHARGES


@<TRIPOS>ATOM
1    C        16.2977   19.6690   18.8966  C     
2    C        15.8169   20.9267   19.3334  C     
3    C        16.5900   21.7560   20.1639  C     
4    C        17.8761   21.3527   20.5549  C     
5    C        18.3917   20.1173   20.1182  C     
6    C        17.5969   19.2765   19.3053  C     
7    N        21.2112   20.8097   20.3826  N     
8    S        20.0055   19.6565   20.5795  S     
9    O        20.0880   18.9472   21.9995  O     
10   O        20.4544   18.5431   19.5414  O     
11   N        15.4451   18.9562   18.0947  N     
12   C        15.6177   17.8681   17.3080  C     
13   C        14.5665   16.4337   15.7398  C     
14   C        16.8899   16.0480   16.3563  C     
15   C        15.7477   15.6912   15.5945  C     
16   N        16.7564   17.1357   17.1774  N     
17   N        14.5356   17.4893   16.5844  N     
18   N        18.0802   15.3589   16.3000  N     
19   C        18.2981   14.2591   15.3806  C     
20   C        19.0920   15.6529   17.1445  C     
21   C        21.0787   16.9155   17.5683  C     
22   C        19.9295   16.7294   16.8824  C     
23   C        19.3732   14.8030   18.1641  C     
24   C        21.3709   16.0634   18.6253  C     
25   C        20.5110   15.0136   18.9312  C     
26   C        22.3787   15.9992   19.5729  C     
27   N        20.9983   14.3651   20.0008  N     
28   N        22.1007   14.9513   20.3777  N     
29   C        22.8617   14.5183   21.5052  C     
30   H        14.8904   21.2565   19.0505  H     
31   H        16.2185   22.6569   20.4763  H     
32   H        18.4310   21.9709   21.1519  H     
33   H        17.9812   18.3831   19.0057  H     
34   H        21.1780   21.6467   20.8684  H     
35   H        21.9811   20.5868   19.8358  H     
36   H        14.5385   19.3002   18.0835  H     
37   H        13.7296   16.1832   15.2138  H     
38   H        15.7467   14.8967   14.9528  H     
39   H        17.6163   13.4383   15.6127  H     
40   H        19.3156   13.8573   15.4146  H     
41   H        18.1193   14.5901   14.3556  H     
42   H        21.6776   17.6789   17.3593  H     
43   H        19.6855   17.3826   16.1776  H     
44   H        18.7903   14.0220   18.3593  H     
45   H        23.1736   16.6360   19.6485  H     
46   H        23.2006   13.4933   21.3445  H     
47   H        22.2392   14.5510   22.4006  H     
48   H        23.7355   15.1509   21.6708  H     
@<TRIPOS>BOND
     1    1    2 2
     2    1    6 1
     3    1   11 1
     4    2    3 1
     5    3    4 2
     6    4    5 1
     7    5    6 2
     8    5    8 1
     9    7    8 am
    10    8    9 2
    11    8   10 2
    12   11   12 1
    13   12   16 1
    14   12   17 2
    15   13   15 2
    16   13   17 1
    17   14   15 1
    18   14   16 2
    19   14   18 1
    20   18   19 1
    21   18   20 1
    22   20   22 1
    23   20   23 2
    24   21   22 2
    25   21   24 1
    26   23   25 1
    27   24   25 1
    28   24   26 2
    29   25   27 2
    30   26   28 1
    31   27   28 1
    32   28   29 1
    33    2   30 1
    34    3   31 1
    35    4   32 1
    36    6   33 1
    37    7   34 1
    38    7   35 1
    39   11   36 1
    40   13   37 1
    41   15   38 1
    42   19   39 1
    43   19   40 1
    44   19   41 1
    45   21   42 1
    46   22   43 1
    47   23   44 1
    48   26   45 1
    49   29   46 1
    50   29   47 1
    51   29   48 1
@<TRIPOS>PROPERTY_DATA
  Total_Score	| 6.1439
  Crash		| -1.1609
  Polar		| 3.2162
  FragIndex	| 1
  FragRMSD	| 0.422

