@<TRIPOS>MOLECULE
BindingDB_26468
 51 54 0 0 0
SMALL
NO_CHARGES


@<TRIPOS>ATOM
1    C        16.2936   19.2456   19.0572  C     
2    C        16.3004   20.6409   19.2645  C     
3    C        17.1674   21.2233   20.2060  C     
4    C        18.0220   20.4141   20.9742  C     
5    C        18.0094   19.0156   20.8076  C     
6    C        17.1454   18.4380   19.8503  C     
7    N        18.7844   16.3786   21.5948  N     
8    S        19.0737   18.0236   21.7647  S     
9    O        20.6152   18.3444   21.4842  O     
10   O        18.7706   18.3041   23.2988  O     
11   N        15.4092   18.7512   18.1427  N     
12   C        15.5935   17.7601   17.2443  C     
13   C        14.6657   16.5448   15.4406  C     
14   C        16.9236   16.0360   16.2001  C     
15   C        15.8477   15.7933   15.3104  C     
16   N        16.7348   17.0270   17.1220  N     
17   N        14.5709   17.4977   16.3961  N     
18   N        18.1012   15.3244   16.1834  N     
19   C        18.3486   14.2468   15.2479  C     
20   C        19.0792   15.5812   17.1164  C     
21   C        20.9987   16.9067   17.8843  C     
22   C        19.9448   16.6928   16.9746  C     
23   C        19.2393   14.7087   18.2186  C     
24   C        21.1531   16.0128   18.9606  C     
25   C        20.2811   14.9432   19.1330  C     
26   C        22.0506   15.9041   19.9784  C     
27   N        21.7412   14.8791   20.6873  N     
28   N        20.6992   14.2964   20.2363  N     
29   C        23.2646   16.6749   20.1530  C     
30   C        20.1195   13.1286   20.8152  C     
31   H        15.6884   21.2452   18.7155  H     
32   H        17.1808   22.2387   20.3346  H     
33   H        18.6425   20.8519   21.6568  H     
34   H        17.1203   17.4217   19.7483  H     
35   H        18.8526   15.7962   22.3676  H     
36   H        18.5620   16.0004   20.7280  H     
37   H        14.5621   19.2251   18.0842  H     
38   H        13.8824   16.3781   14.8152  H     
39   H        15.8965   15.0856   14.5766  H     
40   H        17.5988   13.4630   15.3832  H     
41   H        19.3335   13.7815   15.3627  H     
42   H        18.2864   14.6269   14.2250  H     
43   H        21.6334   17.6996   17.7707  H     
44   H        19.8299   17.3359   16.1881  H     
45   H        18.6157   13.9079   18.3472  H     
46   H        23.9374   16.4751   19.3181  H     
47   H        23.7683   16.4040   21.0831  H     
48   H        23.0486   17.7427   20.1803  H     
49   H        19.0886   13.3332   21.1159  H     
50   H        20.6791   12.8004   21.6924  H     
51   H        20.1192   12.3176   20.0841  H     
@<TRIPOS>BOND
     1    1    2 2
     2    1    6 1
     3    1   11 1
     4    2    3 1
     5    3    4 2
     6    4    5 1
     7    5    6 2
     8    5    8 1
     9    7    8 am
    10    8    9 2
    11    8   10 2
    12   11   12 1
    13   12   16 1
    14   12   17 2
    15   13   15 2
    16   13   17 1
    17   14   15 1
    18   14   16 2
    19   14   18 1
    20   18   19 1
    21   18   20 1
    22   20   22 2
    23   20   23 1
    24   21   22 1
    25   21   24 2
    26   23   25 2
    27   24   25 1
    28   24   26 1
    29   25   28 1
    30   26   27 2
    31   26   29 1
    32   27   28 1
    33   28   30 1
    34    2   31 1
    35    3   32 1
    36    4   33 1
    37    6   34 1
    38    7   35 1
    39    7   36 1
    40   11   37 1
    41   13   38 1
    42   15   39 1
    43   19   40 1
    44   19   41 1
    45   19   42 1
    46   21   43 1
    47   22   44 1
    48   23   45 1
    49   29   46 1
    50   29   47 1
    51   29   48 1
    52   30   49 1
    53   30   50 1
    54   30   51 1
@<TRIPOS>PROPERTY_DATA
  Total_Score	| 6.0497
  Crash		| -1.1816
  Polar		| 3.2017
  FragIndex	| 1
  FragRMSD	| 0.311

