@<TRIPOS>MOLECULE
BindingDB_26476
 38 40 0 0 0
SMALL
NO_CHARGES


@<TRIPOS>ATOM
1    C        16.2265   19.3635   18.9667  C     
2    C        17.2386   18.6437   19.6537  C     
3    C        18.0670   19.2858   20.5934  C     
4    C        17.8784   20.6492   20.8792  C     
5    C        16.0297   20.7244   19.2931  C     
6    N        15.3676   18.8216   18.0474  N     
7    C        15.5584   17.7687   17.2232  C     
8    C        14.6844   16.3168   15.5665  C     
9    C        16.9409   15.9998   16.3735  C     
10   N        16.7237   17.0752   17.1820  N     
11   N        14.5486   17.3766   16.4047  N     
12   N        18.1008   15.2954   16.4259  N     
13   C        19.1807   15.5726   17.2175  C     
14   C        21.1019   16.9465   17.8690  C     
15   C        20.0202   16.6911   17.0106  C     
16   C        19.4774   14.6949   18.2799  C     
17   C        21.3816   16.0828   18.9499  C     
18   C        15.8848   15.5824   15.5379  C     
19   C        20.5552   14.9510   19.1498  C     
20   C        16.8455   21.3632   20.2434  C     
21   Br       16.5370   23.1469   20.6774  Br    
22   O        20.7790   14.0823   20.1654  O     
23   C        22.5373   16.3885   19.8220  C     
24   H        17.3578   17.6411   19.5087  H     
25   H        18.7914   18.7615   21.0830  H     
26   H        18.4761   21.1170   21.5675  H     
27   H        15.2843   21.2615   18.8366  H     
28   H        14.5195   19.2806   17.9558  H     
29   H        13.9112   16.0618   14.9530  H     
30   H        18.1233   14.4521   15.9423  H     
31   H        21.6876   17.7691   17.7024  H     
32   H        19.8539   17.3264   16.2266  H     
33   H        18.8862   13.8782   18.4469  H     
34   H        15.9788   14.7724   14.9187  H     
35   H        21.2933   13.3530   19.7571  H     
36   H        23.4507   16.4027   19.2269  H     
37   H        22.6657   15.6555   20.6178  H     
38   H        22.3973   17.3676   20.2813  H     
@<TRIPOS>BOND
     1    1    2 2
     2    1    5 1
     3    1    6 1
     4    2    3 1
     5    3    4 2
     6    4   20 1
     7    5   20 2
     8    6    7 1
     9    7   10 1
    10    7   11 2
    11    8   11 1
    12    8   18 2
    13    9   10 2
    14    9   12 1
    15    9   18 1
    16   12   13 1
    17   13   15 1
    18   13   16 2
    19   14   15 2
    20   14   17 1
    21   16   19 1
    22   17   19 2
    23   17   23 1
    24   19   22 1
    25   20   21 1
    26    2   24 1
    27    3   25 1
    28    4   26 1
    29    5   27 1
    30    6   28 1
    31    8   29 1
    32   12   30 1
    33   14   31 1
    34   15   32 1
    35   16   33 1
    36   18   34 1
    37   22   35 1
    38   23   36 1
    39   23   37 1
    40   23   38 1
@<TRIPOS>PROPERTY_DATA
  Total_Score	| 5.2471
  Crash		| -0.6361
  Polar		| 1.8880
  FragIndex	| 1
  FragRMSD	| 0.828

