@<TRIPOS>MOLECULE
BindingDB_26474
 54 57 0 0 0
SMALL
NO_CHARGES


@<TRIPOS>ATOM
1    C        16.3550   19.2653   18.9271  C     
2    C        17.2940   18.4667   19.6135  C     
3    C        18.0573   18.9964   20.6670  C     
4    C        17.8822   20.3340   21.0985  C     
5    C        16.9442   21.1567   20.4078  C     
6    C        16.1895   20.6013   19.3469  C     
7    N        15.4669   23.0539   21.9886  N     
8    S        16.6474   22.8351   20.8119  S     
9    O        17.9569   23.6705   21.1565  O     
10   O        16.0587   23.6052   19.5497  O     
11   N        15.5280   18.8214   17.9279  N     
12   C        15.7089   17.7901   17.0672  C     
13   C        14.8240   16.4808   15.3025  C     
14   C        17.0215   15.9471   16.2164  C     
15   C        15.9713   15.6661   15.3048  C     
16   N        16.8212   17.0137   17.0475  N     
17   N        14.7202   17.5125   16.1778  N     
18   N        18.1868   15.2138   16.3235  N     
19   C        18.4361   14.0410   15.5048  C     
20   C        19.1399   15.5624   17.2256  C     
21   C        20.8096   17.1275   17.9382  C     
22   C        19.8648   16.7368   17.0538  C     
23   C        19.3721   14.7764   18.3130  C     
24   C        18.6830   20.7487   22.2847  C     
25   C        21.0557   16.3334   19.0506  C     
26   C        20.3393   15.1555   19.2349  C     
27   C        21.9150   16.4270   20.1405  C     
28   C        22.8580   17.5411   20.3764  C     
29   N        21.6872   15.3305   20.9056  N     
30   C        22.3302   14.9971   22.1377  C     
31   N        20.7590   14.5827   20.3722  N     
32   H        17.4027   17.4752   19.3936  H     
33   H        18.7219   18.3811   21.1440  H     
34   H        15.4980   21.1806   18.8661  H     
35   H        14.5943   23.3954   21.7190  H     
36   H        15.5724   22.6501   22.8666  H     
37   H        14.7015   19.3208   17.8210  H     
38   H        14.0682   16.2996   14.6425  H     
39   H        16.0237   14.8863   14.6410  H     
40   H        17.6690   13.2866   15.6931  H     
41   H        19.4079   13.5737   15.6950  H     
42   H        18.4166   14.3153   14.4481  H     
43   H        21.3194   17.9652   17.7982  H     
44   H        19.6846   17.3156   16.2653  H     
45   H        18.8497   13.9465   18.4673  H     
46   H        18.5261   20.0343   23.0999  H     
47   H        18.4292   21.7400   22.6579  H     
48   H        19.7462   20.7417   22.0319  H     
49   H        23.5613   17.6112   19.5457  H     
50   H        23.4248   17.3963   21.2972  H     
51   H        22.3032   18.4773   20.4554  H     
52   H        23.4051   14.8888   21.9778  H     
53   H        21.9474   14.0594   22.5460  H     
54   H        22.1564   15.7870   22.8719  H     
@<TRIPOS>BOND
     1    1    2 2
     2    1    6 1
     3    1   11 1
     4    2    3 1
     5    3    4 2
     6    4    5 1
     7    4   24 1
     8    5    6 2
     9    5    8 1
    10    7    8 am
    11    8    9 2
    12    8   10 2
    13   11   12 1
    14   12   16 1
    15   12   17 2
    16   13   15 2
    17   13   17 1
    18   14   15 1
    19   14   16 2
    20   14   18 1
    21   18   19 1
    22   18   20 1
    23   20   22 1
    24   20   23 2
    25   21   22 2
    26   21   25 1
    27   23   26 1
    28   25   26 1
    29   25   27 2
    30   26   31 2
    31   27   28 1
    32   27   29 1
    33   29   30 1
    34   29   31 1
    35    2   32 1
    36    3   33 1
    37    6   34 1
    38    7   35 1
    39    7   36 1
    40   11   37 1
    41   13   38 1
    42   15   39 1
    43   19   40 1
    44   19   41 1
    45   19   42 1
    46   21   43 1
    47   22   44 1
    48   23   45 1
    49   24   46 1
    50   24   47 1
    51   24   48 1
    52   28   49 1
    53   28   50 1
    54   28   51 1
    55   30   52 1
    56   30   53 1
    57   30   54 1
@<TRIPOS>PROPERTY_DATA
  Total_Score	| 6.5494
  Crash		| -1.0333
  Polar		| 2.5054
  FragIndex	| 1
  FragRMSD	| 0.389

