@<TRIPOS>MOLECULE
BindingDB_26470
 61 65 0 0 0
SMALL
NO_CHARGES


@<TRIPOS>ATOM
1    C        16.4053   19.2645   19.0645  C     
2    C        17.4307   18.5166   19.6884  C     
3    C        18.3023   19.1329   20.6058  C     
4    C        18.1617   20.5012   20.9031  C     
5    C        17.1008   21.2405   20.3414  C     
6    C        16.2336   20.6161   19.4283  C     
7    N        15.5774   23.0457   21.8897  N     
8    S        16.8516   22.8968   20.8005  S     
9    O        18.1410   23.6089   21.4022  O     
10   O        16.4389   23.7459   19.5206  O     
11   N        15.5306   18.7581   18.1449  N     
12   C        15.6890   17.7379   17.2704  C     
13   C        14.7223   16.4985   15.5027  C     
14   C        16.9939   15.9878   16.2304  C     
15   C        15.8958   15.7387   15.3674  C     
16   N        16.8255   16.9945   17.1439  N     
17   N        14.6486   17.4679   16.4427  N     
18   N        18.1728   15.2712   16.1985  N     
19   C        18.3506   14.1334   15.3043  C     
20   C        19.1862   15.5592   17.0669  C     
21   C        20.7753   17.1271   17.9582  C     
22   C        19.8412   16.7937   17.0373  C     
23   C        19.5150   14.6531   18.0238  C     
24   C        21.1103   16.2107   18.9488  C     
25   C        20.4879   14.9642   18.9627  C     
26   C        21.9829   16.1904   20.0369  C     
27   C        22.8578   17.3082   20.4448  C     
28   N        20.9809   14.2462   19.9806  N     
29   N        21.8575   14.9651   20.6198  N     
30   C        22.5584   14.4404   21.7586  C     
31   C        22.0017   14.9022   23.0548  C     
32   C        22.8196   15.5055   24.0453  C     
33   C        20.6467   14.6418   23.3755  C     
34   C        20.1258   14.9522   24.6454  C     
35   C        20.9610   15.5162   25.6244  C     
36   C        22.3040   15.8009   25.3224  C     
37   H        17.5302   17.5143   19.5119  H     
38   H        19.0462   18.5871   21.0552  H     
39   H        18.8184   20.9355   21.5609  H     
40   H        15.4750   21.1523   19.0112  H     
41   H        14.7442   23.4801   21.6187  H     
42   H        15.6199   22.5864   22.7476  H     
43   H        14.6852   19.2324   18.0786  H     
44   H        13.9194   16.3265   14.9016  H     
45   H        15.9149   15.0116   14.6468  H     
46   H        17.6170   13.3631   15.5509  H     
47   H        19.3449   13.6784   15.3699  H     
48   H        18.2090   14.4458   14.2649  H     
49   H        21.2197   18.0165   17.9260  H     
50   H        19.6078   17.4467   16.3274  H     
51   H        19.0484   13.7758   18.0911  H     
52   H        23.5439   17.5678   19.6334  H     
53   H        23.4519   17.0538   21.3249  H     
54   H        22.2533   18.1841   20.6915  H     
55   H        22.4858   13.3490   21.7556  H     
56   H        23.6254   14.6634   21.6654  H     
57   H        23.8075   15.7025   23.8512  H     
58   H        20.0295   14.2028   22.6853  H     
59   H        19.1502   14.7446   24.8633  H     
60   H        20.5937   15.7106   26.5578  H     
61   H        22.9122   16.2043   26.0376  H     
@<TRIPOS>BOND
     1    1    2 2
     2    1    6 1
     3    1   11 1
     4    2    3 1
     5    3    4 2
     6    4    5 1
     7    5    6 2
     8    5    8 1
     9    7    8 am
    10    8    9 2
    11    8   10 2
    12   11   12 1
    13   12   16 1
    14   12   17 2
    15   13   15 2
    16   13   17 1
    17   14   15 1
    18   14   16 2
    19   14   18 1
    20   18   19 1
    21   18   20 1
    22   20   22 1
    23   20   23 2
    24   21   22 2
    25   21   24 1
    26   23   25 1
    27   24   25 1
    28   24   26 2
    29   25   28 2
    30   26   27 1
    31   26   29 1
    32   28   29 1
    33   29   30 1
    34   30   31 1
    35   31   32 2
    36   31   33 1
    37   32   36 1
    38   33   34 2
    39   34   35 1
    40   35   36 2
    41    2   37 1
    42    3   38 1
    43    4   39 1
    44    6   40 1
    45    7   41 1
    46    7   42 1
    47   11   43 1
    48   13   44 1
    49   15   45 1
    50   19   46 1
    51   19   47 1
    52   19   48 1
    53   21   49 1
    54   22   50 1
    55   23   51 1
    56   27   52 1
    57   27   53 1
    58   27   54 1
    59   30   55 1
    60   30   56 1
    61   32   57 1
    62   33   58 1
    63   34   59 1
    64   35   60 1
    65   36   61 1
@<TRIPOS>PROPERTY_DATA
  Total_Score	| 7.5497
  Crash		| -0.9350
  Polar		| 2.8258
  FragIndex	| 1
  FragRMSD	| 0.200

