@<TRIPOS>MOLECULE
BindingDB_26469
 51 54 0 0 0
SMALL
NO_CHARGES


@<TRIPOS>ATOM
1    C        16.3681   19.2537   19.0664  C     
2    C        16.4567   20.6334   19.3469  C     
3    C        17.3434   21.1024   20.3343  C     
4    C        18.1220   20.2001   21.0803  C     
5    C        18.0167   18.8110   20.8365  C     
6    C        17.1389   18.3497   19.8294  C     
7    N        18.4549   16.0915   21.6408  N     
8    S        18.9568   17.6872   21.7852  S     
9    O        20.5150   17.8132   21.5007  O     
10   O        18.7067   18.0757   23.3075  O     
11   N        15.4959   18.8491   18.1033  N     
12   C        15.6623   17.8433   17.2160  C     
13   C        14.7557   16.6315   15.3895  C     
14   C        16.9727   16.0656   16.2433  C     
15   C        15.9128   15.8373   15.3258  C     
16   N        16.7856   17.0766   17.1422  N     
17   N        14.6667   17.6016   16.3294  N     
18   N        18.1318   15.3194   16.2781  N     
19   C        18.3604   14.1957   15.3827  C     
20   C        19.1164   15.6152   17.1562  C     
21   C        20.9194   17.0594   17.8181  C     
22   C        19.9071   16.7488   16.9784  C     
23   C        19.3488   14.7952   18.2134  C     
24   C        21.1533   16.2357   18.9105  C     
25   C        20.3692   15.0999   19.1044  C     
26   C        22.0260   16.2874   19.9899  C     
27   C        23.0458   17.3325   20.2213  C     
28   N        20.7450   14.5281   20.2579  N     
29   N        21.7033   15.2329   20.7879  N     
30   C        22.2463   14.9389   22.0729  C     
31   H        15.8825   21.3086   18.8242  H     
32   H        17.4144   22.1086   20.5159  H     
33   H        18.7659   20.5625   21.7905  H     
34   H        17.0459   17.3465   19.6591  H     
35   H        18.6021   15.4715   22.3760  H     
36   H        18.2176   15.7409   20.7658  H     
37   H        14.6852   19.3725   18.0208  H     
38   H        13.9894   16.4905   14.7280  H     
39   H        15.9673   15.1195   14.6056  H     
40   H        17.5993   13.4300   15.5482  H     
41   H        19.3350   13.7158   15.5189  H     
42   H        18.3103   14.5226   14.3401  H     
43   H        21.4680   17.8770   17.6799  H     
44   H        19.7159   17.3709   16.2273  H     
45   H        18.7801   13.9961   18.3789  H     
46   H        23.7859   17.3041   19.4166  H     
47   H        23.5506   17.1832   21.1747  H     
48   H        22.5669   18.3134   20.2348  H     
49   H        23.3328   14.7989   22.0109  H     
50   H        21.8035   14.0357   22.5028  H     
51   H        22.0079   15.7756   22.7368  H     
@<TRIPOS>BOND
     1    1    2 2
     2    1    6 1
     3    1   11 1
     4    2    3 1
     5    3    4 2
     6    4    5 1
     7    5    6 2
     8    5    8 1
     9    7    8 am
    10    8    9 2
    11    8   10 2
    12   11   12 1
    13   12   16 1
    14   12   17 2
    15   13   15 2
    16   13   17 1
    17   14   15 1
    18   14   16 2
    19   14   18 1
    20   18   19 1
    21   18   20 1
    22   20   22 1
    23   20   23 2
    24   21   22 2
    25   21   24 1
    26   23   25 1
    27   24   25 1
    28   24   26 2
    29   25   28 2
    30   26   27 1
    31   26   29 1
    32   28   29 1
    33   29   30 1
    34    2   31 1
    35    3   32 1
    36    4   33 1
    37    6   34 1
    38    7   35 1
    39    7   36 1
    40   11   37 1
    41   13   38 1
    42   15   39 1
    43   19   40 1
    44   19   41 1
    45   19   42 1
    46   21   43 1
    47   22   44 1
    48   23   45 1
    49   27   46 1
    50   27   47 1
    51   27   48 1
    52   30   49 1
    53   30   50 1
    54   30   51 1
@<TRIPOS>PROPERTY_DATA
  Total_Score	| 6.1341
  Crash		| -1.2415
  Polar		| 3.0118
  FragIndex	| 1
  FragRMSD	| 0.333

