@<TRIPOS>MOLECULE
BindingDB_26478
 42 45 0 0 0
SMALL
NO_CHARGES


@<TRIPOS>ATOM
1    C        19.1414   12.4449   19.2402  C     
2    C        19.1372   13.9728   17.4322  C     
3    N        18.6667   14.3064   16.2176  N     
4    C        18.1418   15.5404   16.2392  C     
5    C        17.8930   17.6611   17.3425  C     
6    C        18.4679   16.3421   17.3725  C     
7    C        17.0591   15.8360   15.3843  C     
8    N        19.9819   13.2534   19.9330  N     
9    N        18.7536   12.7958   17.9909  N     
10   C        19.8944   14.9084   18.1777  C     
11   C        20.3937   14.4409   19.4252  C     
12   C        21.4363   15.1337   20.0169  C     
13   C        22.0293   16.1145   19.3066  C     
14   C        21.2602   16.8011   18.3898  C     
15   C        20.1752   16.2543   17.7630  C     
16   O        23.2929   16.5072   19.5537  O     
17   C        24.2708   15.4882   19.2529  C     
18   O        21.3361   18.1403   18.4908  O     
19   C        20.6900   18.7365   19.6476  C     
20   C        16.6906   17.8590   16.6602  C     
21   C        16.2595   16.9324   15.7272  C     
22   C        15.5723   18.5653   17.0705  C     
23   N        14.5245   18.0118   16.4390  N     
24   N        14.9404   17.1105   15.6041  N     
25   C        15.4467   19.4448   18.2411  C     
26   H        18.8444   11.5528   19.6384  H     
27   H        19.3369   14.2071   15.5246  H     
28   H        18.1715   18.3330   18.0572  H     
29   H        19.9919   16.1089   18.5011  H     
30   H        16.7235   15.1315   14.7309  H     
31   H        21.8989   14.7369   20.7995  H     
32   H        19.1980   17.3795   17.7325  H     
33   H        24.1064   14.5891   19.8541  H     
34   H        25.2599   15.8804   19.4892  H     
35   H        24.2529   15.2254   18.1916  H     
36   H        20.5126   18.0470   20.4791  H     
37   H        19.7315   19.1627   19.3501  H     
38   H        21.3220   19.5419   20.0209  H     
39   H        14.3394   16.5375   15.1148  H     
40   H        15.4112   18.8375   19.1451  H     
41   H        14.5319   20.0349   18.1696  H     
42   H        16.2988   20.1258   18.2988  H     
@<TRIPOS>BOND
     1    1    8 1
     2    1    9 2
     3    2    3 1
     4    2    9 1
     5    2   10 2
     6    3    4 1
     7    4    6 1
     8    4    7 2
     9    5    6 2
    10    5   20 1
    11    7   21 1
    12    8   11 2
    13   10   11 1
    14   10   15 1
    15   11   12 1
    16   12   13 2
    17   13   14 1
    18   13   16 1
    19   14   15 2
    20   14   18 1
    21   16   17 1
    22   18   19 1
    23   20   21 2
    24   20   22 1
    25   21   24 1
    26   22   23 2
    27   22   25 1
    28   23   24 1
    29    1   26 1
    30    3   27 1
    31    5   28 1
    32    6   29 1
    33    7   30 1
    34   12   31 1
    35   15   32 1
    36   17   33 1
    37   17   34 1
    38   17   35 1
    39   19   36 1
    40   19   37 1
    41   19   38 1
    42   24   39 1
    43   25   40 1
    44   25   41 1
    45   25   42 1
@<TRIPOS>PROPERTY_DATA
  Total_Score	| 0.9418
  Crash		| -2.2293
  Polar		| 1.3486
  FragIndex	| 1
  FragRMSD	| 1.404

