@<TRIPOS>MOLECULE
BindingDB_26479
 52 55 0 0 0
SMALL
NO_CHARGES


@<TRIPOS>ATOM
1    C        16.3710   19.4359   19.0224  C     
2    C        16.1479   20.7861   19.3658  C     
3    C        16.9734   21.4532   20.2981  C     
4    C        18.0526   20.7780   20.9067  C     
5    C        17.4110   18.7464   19.6931  C     
6    N        15.5083   18.8849   18.1085  N     
7    C        15.6919   17.8769   17.2254  C     
8    C        14.7593   16.5571   15.4795  C     
9    C        17.0060   16.1333   16.2409  C     
10   N        16.8384   17.1590   17.1182  N     
11   N        14.6656   17.5553   16.3943  N     
12   N        18.1365   15.3893   16.2323  N     
13   C        19.1977   15.6019   17.0492  C     
14   C        21.0752   16.9861   17.8519  C     
15   C        20.0153   16.7638   16.9492  C     
16   C        19.4751   14.6519   18.0601  C     
17   C        15.9424   15.8077   15.3787  C     
18   C        18.2383   19.4110   20.6275  C     
19   O        19.2491   18.7292   21.2420  O     
20   C        18.9156   18.3109   22.5828  C     
21   O        18.9977   21.4405   21.6551  O     
22   C        18.5635   21.9669   22.9301  C     
23   O        16.7455   22.7643   20.5941  O     
24   C        15.6921   22.9276   21.5653  C     
25   C        20.5243   14.8938   18.9572  C     
26   C        21.3215   16.0372   18.8572  C     
27   C        22.2300   15.9497   19.8963  C     
28   N        21.9824   14.7981   20.5637  N     
29   N        20.9854   14.1859   19.9968  N     
30   C        23.2639   16.9259   20.2741  C     
31   H        15.3884   21.3076   18.9173  H     
32   H        17.5875   17.7596   19.5173  H     
33   H        14.6409   19.3118   18.0598  H     
34   H        13.9647   16.3428   14.8869  H     
35   H        18.1296   14.5714   15.7161  H     
36   H        21.6627   17.8196   17.7757  H     
37   H        19.8335   17.4535   16.2167  H     
38   H        18.8910   13.8145   18.1657  H     
39   H        16.0203   15.0383   14.7107  H     
40   H        18.6594   19.1559   23.2294  H     
41   H        19.7940   17.8148   23.0075  H     
42   H        18.0858   17.5926   22.5739  H     
43   H        17.9311   22.8455   22.7821  H     
44   H        19.4624   22.2846   23.4836  H     
45   H        18.0408   21.2007   23.5187  H     
46   H        14.7308   22.6165   21.1491  H     
47   H        15.6328   23.9951   21.8001  H     
48   H        15.8991   22.3712   22.4872  H     
49   H        20.6091   13.3401   20.2951  H     
50   H        23.9888   17.0333   19.4638  H     
51   H        23.7911   16.6075   21.1737  H     
52   H        22.7988   17.8965   20.4658  H     
@<TRIPOS>BOND
     1    1    2 2
     2    1    5 1
     3    1    6 1
     4    2    3 1
     5    3    4 2
     6    3   23 1
     7    4   18 1
     8    4   21 1
     9    5   18 2
    10    6    7 1
    11    7   10 1
    12    7   11 2
    13    8   11 1
    14    8   17 2
    15    9   10 2
    16    9   12 1
    17    9   17 1
    18   12   13 1
    19   13   15 1
    20   13   16 2
    21   14   15 2
    22   14   26 1
    23   16   25 1
    24   18   19 1
    25   19   20 1
    26   21   22 1
    27   23   24 1
    28   25   26 2
    29   25   29 1
    30   26   27 1
    31   27   28 2
    32   27   30 1
    33   28   29 1
    34    2   31 1
    35    5   32 1
    36    6   33 1
    37    8   34 1
    38   12   35 1
    39   14   36 1
    40   15   37 1
    41   16   38 1
    42   17   39 1
    43   20   40 1
    44   20   41 1
    45   20   42 1
    46   22   43 1
    47   22   44 1
    48   22   45 1
    49   24   46 1
    50   24   47 1
    51   24   48 1
    52   29   49 1
    53   30   50 1
    54   30   51 1
    55   30   52 1
@<TRIPOS>PROPERTY_DATA
  Total_Score	| 5.9021
  Crash		| -1.1881
  Polar		| 2.0480
  FragIndex	| 1
  FragRMSD	| 0.298

