@<TRIPOS>MOLECULE
BindingDB_26467
 48 51 0 0 0
SMALL
NO_CHARGES


@<TRIPOS>ATOM
1    C        16.4010   19.2571   19.0352  C     
2    C        16.4776   20.6439   19.2829  C     
3    C        17.3741   21.1602   20.2283  C     
4    C        18.2048   20.2947   20.9634  C     
5    C        18.1198   18.8936   20.7656  C     
6    C        17.2247   18.3838   19.7954  C     
7    N        18.6310   16.1824   21.6138  N     
8    S        19.0431   17.8055   21.7797  S     
9    O        20.6051   17.9784   21.4364  O     
10   O        18.8817   18.2025   23.3165  O     
11   N        15.4979   18.8205   18.1137  N     
12   C        15.6593   17.7981   17.2478  C     
13   C        14.7554   16.5327   15.4723  C     
14   C        16.9971   16.0233   16.2962  C     
15   C        15.9308   15.7554   15.3896  C     
16   N        16.7951   17.0492   17.1761  N     
17   N        14.6446   17.5240   16.3917  N     
18   N        18.1608   15.3011   16.3194  N     
19   C        18.3860   14.1417   15.4792  C     
20   C        19.1814   15.6471   17.1991  C     
21   C        20.9751   17.1721   17.9345  C     
22   C        19.9272   16.8528   17.0453  C     
23   C        19.5055   14.7735   18.2653  C     
24   C        21.2717   16.2908   18.9907  C     
25   C        20.5451   15.1180   19.1409  C     
26   C        22.1618   16.2785   20.0217  C     
27   N        21.9846   15.2078   20.7049  N     
28   N        21.0509   14.5058   20.2193  N     
29   C        23.1632   17.2829   20.3189  C     
30   H        15.8680   21.2817   18.7622  H     
31   H        17.4387   22.1790   20.3858  H     
32   H        18.8475   20.6717   21.6631  H     
33   H        17.1165   17.3761   19.6855  H     
34   H        19.3301   15.5186   21.5283  H     
35   H        17.6913   15.8986   21.5290  H     
36   H        14.6710   19.3420   18.0491  H     
37   H        13.9781   16.3462   14.8396  H     
38   H        15.9806   15.0204   14.6810  H     
39   H        17.6533   13.3747   15.7232  H     
40   H        19.3767   13.6886   15.5983  H     
41   H        18.2878   14.4051   14.4245  H     
42   H        21.4965   18.0415   17.8313  H     
43   H        19.7050   17.4980   16.2812  H     
44   H        18.9812   13.8991   18.4139  H     
45   H        20.7183   13.6681   20.5840  H     
46   H        23.8824   17.3625   19.5001  H     
47   H        23.7064   17.0364   21.2318  H     
48   H        22.6825   18.2496   20.4690  H     
@<TRIPOS>BOND
     1    1    2 2
     2    1    6 1
     3    1   11 1
     4    2    3 1
     5    3    4 2
     6    4    5 1
     7    5    6 2
     8    5    8 1
     9    7    8 am
    10    8    9 2
    11    8   10 2
    12   11   12 1
    13   12   16 1
    14   12   17 2
    15   13   15 2
    16   13   17 1
    17   14   15 1
    18   14   16 2
    19   14   18 1
    20   18   19 1
    21   18   20 1
    22   20   22 2
    23   20   23 1
    24   21   22 1
    25   21   24 2
    26   23   25 2
    27   24   25 1
    28   24   26 1
    29   25   28 1
    30   26   27 2
    31   26   29 1
    32   27   28 1
    33    2   30 1
    34    3   31 1
    35    4   32 1
    36    6   33 1
    37    7   34 1
    38    7   35 1
    39   11   36 1
    40   13   37 1
    41   15   38 1
    42   19   39 1
    43   19   40 1
    44   19   41 1
    45   21   42 1
    46   22   43 1
    47   23   44 1
    48   28   45 1
    49   29   46 1
    50   29   47 1
    51   29   48 1
@<TRIPOS>PROPERTY_DATA
  Total_Score	| 6.0549
  Crash		| -1.1662
  Polar		| 3.0866
  FragIndex	| 1
  FragRMSD	| 0.283

