@<TRIPOS>MOLECULE
BindingDB_30178
 37 40 0 0 0
SMALL
NO_CHARGES


@<TRIPOS>ATOM
1    C         6.8376   19.0146   45.2463  C     
2    C         7.1221   19.9479   46.2774  C     
3    N         7.5329   21.1914   45.9051  N     
4    C         7.6801   21.5894   44.6222  C     
5    C         7.4039   20.6898   43.5832  C     
6    C         6.9759   19.3724   43.8804  C     
7    C         6.6843   18.4255   42.8541  C     
8    C         6.0100   16.5608   41.8655  C     
9    N         6.1641   17.1895   43.0411  N     
10   C         6.8718   18.5759   41.4755  C     
11   C         5.4545   14.8503   40.0850  C     
12   C         5.5009   15.1990   41.6101  C     
13   C         6.4553   17.4045   40.8600  C     
14   C         6.4566   17.0276   39.5385  C     
15   N         5.9522   15.8516   39.1836  N     
16   O         6.9268   17.7653   38.6850  O     
17   C         7.0196   19.6598   47.6728  C     
18   C         6.0923   18.3641   49.5471  C     
19   C         6.8431   19.1233   50.4607  C     
20   C         7.6777   20.1523   49.9961  C     
21   C         7.7629   20.4172   48.6170  C     
22   C         6.1757   18.6330   48.1671  C     
23   H         6.5592   18.0612   45.4940  H     
24   H         7.9817   22.5429   44.4210  H     
25   H         7.5127   21.0165   42.6225  H     
26   H         5.9318   16.8029   43.8988  H     
27   H         7.2541   19.3854   40.9834  H     
28   H         6.0286   13.9371   39.9057  H     
29   H         4.4223   14.6470   39.7945  H     
30   H         6.1515   14.4919   42.1311  H     
31   H         4.4964   15.1177   42.0325  H     
32   H         5.9033   15.6488   38.2396  H     
33   H         5.4792   17.6209   49.8856  H     
34   H         6.7814   18.9291   51.4626  H     
35   H         8.2275   20.7050   50.6578  H     
36   H         8.3947   21.1606   48.3091  H     
37   H         5.5952   18.0816   47.5314  H     
@<TRIPOS>BOND
     1    1    2 1
     2    1    6 2
     3    2    3 2
     4    2   17 1
     5    3    4 1
     6    4    5 2
     7    5    6 1
     8    6    7 1
     9    7    9 1
    10    7   10 2
    11    8    9 1
    12    8   12 1
    13    8   13 2
    14   10   13 1
    15   11   12 1
    16   11   15 1
    17   13   14 1
    18   14   15 1
    19   14   16 2
    20   17   21 1
    21   17   22 2
    22   18   19 2
    23   18   22 1
    24   19   20 1
    25   20   21 2
    26    1   23 1
    27    4   24 1
    28    5   25 1
    29    9   26 1
    30   10   27 1
    31   11   28 1
    32   11   29 1
    33   12   30 1
    34   12   31 1
    35   15   32 1
    36   18   33 1
    37   19   34 1
    38   20   35 1
    39   21   36 1
    40   22   37 1
@<TRIPOS>PROPERTY_DATA
  Total_Score	| 5.5218
  Crash		| -1.6385
  Polar		| 1.9951
  FragIndex	| 1
  FragRMSD	| 0.217

