@<TRIPOS>MOLECULE
BindingDB_30190
 37 40 0 0 0
SMALL
NO_CHARGES


@<TRIPOS>ATOM
1    C         6.4476   18.5791   48.2493  C     
2    C         6.6553   18.6946   49.6476  C     
3    N         7.2525   19.8335   50.0981  N     
4    C         7.6872   20.8371   49.2994  C     
5    C         7.5592   20.7085   47.9076  C     
6    C         6.9306   19.5679   47.3544  C     
7    C         6.7893   19.4040   45.9462  C     
8    C         6.1747   18.5177   44.0139  C     
9    N         6.1371   18.3851   45.3471  N     
10   C         7.2817   20.2216   44.9224  C     
11   C         5.8489   18.1377   41.5308  C     
12   C         5.5701   17.6445   42.9909  C     
13   C         6.8843   19.6694   43.7109  C     
14   C         7.0767   20.0751   42.4082  C     
15   N         6.6121   19.3508   41.3988  N     
16   O         7.6633   21.1179   42.1610  O     
17   C         6.2780   17.7017   50.6072  C     
18   C         5.8318   17.0702   52.9478  C     
19   C         5.4761   15.7716   52.5475  C     
20   C         5.5484   15.4129   51.1911  C     
21   C         5.9582   16.3678   50.2366  C     
22   C         6.2249   18.0218   51.9901  C     
23   Cl        5.1548   13.8381   50.7035  Cl    
24   H         5.9418   17.7672   47.8825  H     
25   H         8.1127   21.6710   49.7129  H     
26   H         7.9246   21.4515   47.3184  H     
27   H         5.6912   17.6625   45.8096  H     
28   H         7.8364   21.0703   45.0244  H     
29   H         6.3779   17.3547   40.9850  H     
30   H         4.8962   18.3014   41.0222  H     
31   H         5.9705   16.6368   43.1265  H     
32   H         4.4929   17.6109   43.1735  H     
33   H         6.7970   19.6665   40.4997  H     
34   H         5.7833   17.3288   53.9363  H     
35   H         5.1679   15.0942   53.2426  H     
36   H         6.0424   16.0697   49.2628  H     
37   H         6.4458   18.9609   52.3272  H     
@<TRIPOS>BOND
     1    1    2 1
     2    1    6 2
     3    2    3 2
     4    2   17 1
     5    3    4 1
     6    4    5 2
     7    5    6 1
     8    6    7 1
     9    7    9 1
    10    7   10 2
    11    8    9 1
    12    8   12 1
    13    8   13 2
    14   10   13 1
    15   11   12 1
    16   11   15 1
    17   13   14 1
    18   14   15 1
    19   14   16 2
    20   17   21 1
    21   17   22 2
    22   18   19 2
    23   18   22 1
    24   19   20 1
    25   20   21 2
    26   20   23 1
    27    1   24 1
    28    4   25 1
    29    5   26 1
    30    9   27 1
    31   10   28 1
    32   11   29 1
    33   11   30 1
    34   12   31 1
    35   12   32 1
    36   15   33 1
    37   18   34 1
    38   19   35 1
    39   21   36 1
    40   22   37 1
@<TRIPOS>PROPERTY_DATA
  Total_Score	| 2.0600
  Crash		| -1.7358
  Polar		| 0.8101
  FragIndex	| 1
  FragRMSD	| 1.029

