@<TRIPOS>MOLECULE
BindingDB_30194
 37 40 0 0 0
SMALL
NO_CHARGES


@<TRIPOS>ATOM
1    C         6.2680   18.7030   48.2186  C     
2    C         6.4999   18.8123   49.6097  C     
3    N         7.3870   19.7416   50.0765  N     
4    C         8.0691   20.5729   49.2546  C     
5    C         7.8898   20.4898   47.8610  C     
6    C         6.9795   19.5353   47.3135  C     
7    C         6.8090   19.3913   45.9103  C     
8    C         6.1890   18.4877   43.9988  C     
9    N         6.1714   18.3546   45.3283  N     
10   C         7.2447   20.2327   44.8803  C     
11   C         5.9120   18.0350   41.5305  C     
12   C         5.6052   17.5826   42.9981  C     
13   C         6.8599   19.6608   43.6759  C     
14   C         7.0233   20.0565   42.3677  C     
15   N         6.5965   19.2951   41.3719  N     
16   O         7.5947   21.1076   42.1027  O     
17   C         5.8859   17.9575   50.5404  C     
18   C         3.9592   16.6299   51.2939  C     
19   C         4.7129   16.1843   52.4025  C     
20   C         6.0485   16.6076   52.5840  C     
21   C         6.6174   17.5085   51.6713  C     
22   C         4.5489   17.5074   50.3668  C     
23   F         4.1998   15.3230   53.2280  F     
24   H         5.5999   17.9981   47.8752  H     
25   H         8.7135   21.2528   49.6670  H     
26   H         8.4477   21.0764   47.2446  H     
27   H         5.7745   17.6007   45.8015  H     
28   H         7.7497   21.1117   44.9811  H     
29   H         6.5120   17.2653   41.0292  H     
30   H         4.9673   18.1105   40.9767  H     
31   H         6.0149   16.5856   43.1631  H     
32   H         4.5275   17.5483   43.1589  H     
33   H         6.7761   19.5917   40.4618  H     
34   H         2.9826   16.3296   51.1765  H     
35   H         6.6050   16.2820   53.3837  H     
36   H         7.5748   17.8241   51.8250  H     
37   H         3.9959   17.8197   49.5637  H     
@<TRIPOS>BOND
     1    1    2 1
     2    1    6 2
     3    2    3 2
     4    2   17 1
     5    3    4 1
     6    4    5 2
     7    5    6 1
     8    6    7 1
     9    7    9 1
    10    7   10 2
    11    8    9 1
    12    8   12 1
    13    8   13 2
    14   10   13 1
    15   11   12 1
    16   11   15 1
    17   13   14 1
    18   14   15 1
    19   14   16 2
    20   17   21 1
    21   17   22 2
    22   18   19 2
    23   18   22 1
    24   19   20 1
    25   19   23 1
    26   20   21 2
    27    1   24 1
    28    4   25 1
    29    5   26 1
    30    9   27 1
    31   10   28 1
    32   11   29 1
    33   11   30 1
    34   12   31 1
    35   12   32 1
    36   15   33 1
    37   18   34 1
    38   20   35 1
    39   21   36 1
    40   22   37 1
@<TRIPOS>PROPERTY_DATA
  Total_Score	| 1.9371
  Crash		| -0.9332
  Polar		| 0.0298
  FragIndex	| 1
  FragRMSD	| 1.006

