@<TRIPOS>MOLECULE
BindingDB_30192
 37 40 0 0 0
SMALL
NO_CHARGES


@<TRIPOS>ATOM
1    C         6.3112   18.6075   48.2219  C     
2    C         6.4348   18.7585   49.6211  C     
3    N         7.2030   19.7580   50.1240  N     
4    C         7.8732   20.6330   49.3371  C     
5    C         7.8122   20.4961   47.9391  C     
6    C         7.0050   19.4872   47.3496  C     
7    C         6.8780   19.3587   45.9371  C     
8    C         6.2234   18.5576   43.9786  C     
9    N         6.1931   18.3798   45.3078  N     
10   C         7.3704   20.2067   44.9394  C     
11   C         5.9392   18.2496   41.4869  C     
12   C         5.5719   17.7593   42.9286  C     
13   C         6.9471   19.7133   43.7147  C     
14   C         7.1076   20.1893   42.4334  C     
15   N         6.6494   19.5026   41.3963  N     
16   O         7.6951   21.2458   42.2304  O     
17   C         5.8384   17.8670   50.5300  C     
18   C         3.9099   16.5295   51.2224  C     
19   C         4.6017   16.1227   52.3757  C     
20   C         5.9005   16.5983   52.6186  C     
21   C         6.5171   17.4782   51.7102  C     
22   C         4.5261   17.3932   50.2970  C     
23   F         7.7261   17.9017   51.9760  F     
24   H         5.7254   17.8578   47.8479  H     
25   H         8.4254   21.3724   49.7697  H     
26   H         8.3653   21.1367   47.3704  H     
27   H         5.7289   17.6490   45.7449  H     
28   H         7.9217   21.0551   45.0700  H     
29   H         6.5584   17.4910   40.9983  H     
30   H         5.0209   18.3480   40.9012  H     
31   H         5.8715   16.7166   43.0541  H     
32   H         4.4917   17.8291   43.0836  H     
33   H         6.8259   19.8546   40.5109  H     
34   H         2.9575   16.1989   51.0555  H     
35   H         4.1584   15.4874   53.0439  H     
36   H         6.3985   16.3054   53.4609  H     
37   H         4.0095   17.6818   49.4651  H     
@<TRIPOS>BOND
     1    1    2 1
     2    1    6 2
     3    2    3 2
     4    2   17 1
     5    3    4 1
     6    4    5 2
     7    5    6 1
     8    6    7 1
     9    7    9 1
    10    7   10 2
    11    8    9 1
    12    8   12 1
    13    8   13 2
    14   10   13 1
    15   11   12 1
    16   11   15 1
    17   13   14 1
    18   14   15 1
    19   14   16 2
    20   17   21 1
    21   17   22 2
    22   18   19 2
    23   18   22 1
    24   19   20 1
    25   20   21 2
    26   21   23 1
    27    1   24 1
    28    4   25 1
    29    5   26 1
    30    9   27 1
    31   10   28 1
    32   11   29 1
    33   11   30 1
    34   12   31 1
    35   12   32 1
    36   15   33 1
    37   18   34 1
    38   19   35 1
    39   20   36 1
    40   22   37 1
@<TRIPOS>PROPERTY_DATA
  Total_Score	| 1.8356
  Crash		| -1.0530
  Polar		| 0.0412
  FragIndex	| 1
  FragRMSD	| 1.007

