@<TRIPOS>MOLECULE
BindingDB_30191
 37 40 0 0 0
SMALL
NO_CHARGES


@<TRIPOS>ATOM
1    C         6.3071   18.5421   48.1320  C     
2    C         6.4534   18.6563   49.5401  C     
3    N         7.1578   19.7340   49.9915  N     
4    C         7.7343   20.6789   49.2156  C     
5    C         7.6313   20.5633   47.8253  C     
6    C         6.8998   19.4899   47.2529  C     
7    C         6.7689   19.3528   45.8393  C     
8    C         6.1812   18.5201   43.8670  C     
9    N         6.1296   18.3471   45.1994  N     
10   C         7.2436   20.2132   44.8459  C     
11   C         5.9423   18.2043   41.3661  C     
12   C         5.5805   17.6927   42.8016  C     
13   C         6.8746   19.6922   43.6133  C     
14   C         7.0700   20.1555   42.3375  C     
15   N         6.6541   19.4556   41.2929  N     
16   O         7.6393   21.2175   42.1358  O     
17   C         5.9428   17.7249   50.5104  C     
18   C         4.4100   15.9115   51.2140  C     
19   C         5.0000   15.8727   52.4892  C     
20   C         6.0572   16.7497   52.7867  C     
21   C         6.5187   17.6537   51.8124  C     
22   C         4.8716   16.8249   50.2428  C     
23   Cl        4.4474   14.7766   53.6503  Cl    
24   H         5.7830   17.7599   47.7345  H     
25   H         8.2440   21.4538   49.6495  H     
26   H         8.0967   21.2638   47.2508  H     
27   H         5.6822   17.6072   45.6411  H     
28   H         7.7591   21.0846   44.9780  H     
29   H         6.5515   17.4498   40.8554  H     
30   H         5.0212   18.3247   40.7867  H     
31   H         5.9279   16.6637   42.9238  H     
32   H         4.4964   17.7071   42.9380  H     
33   H         6.8450   19.8053   40.4047  H     
34   H         3.6389   15.2783   50.9848  H     
35   H         6.5013   16.7246   53.7067  H     
36   H         7.3025   18.2537   52.0791  H     
37   H         4.4060   16.8253   49.3358  H     
@<TRIPOS>BOND
     1    1    2 1
     2    1    6 2
     3    2    3 2
     4    2   17 1
     5    3    4 1
     6    4    5 2
     7    5    6 1
     8    6    7 1
     9    7    9 1
    10    7   10 2
    11    8    9 1
    12    8   12 1
    13    8   13 2
    14   10   13 1
    15   11   12 1
    16   11   15 1
    17   13   14 1
    18   14   15 1
    19   14   16 2
    20   17   21 1
    21   17   22 2
    22   18   19 2
    23   18   22 1
    24   19   20 1
    25   19   23 1
    26   20   21 2
    27    1   24 1
    28    4   25 1
    29    5   26 1
    30    9   27 1
    31   10   28 1
    32   11   29 1
    33   11   30 1
    34   12   31 1
    35   12   32 1
    36   15   33 1
    37   18   34 1
    38   20   35 1
    39   21   36 1
    40   22   37 1
@<TRIPOS>PROPERTY_DATA
  Total_Score	| 1.5891
  Crash		| -1.2588
  Polar		| 0.0393
  FragIndex	| 1
  FragRMSD	| 1.008

