@<TRIPOS>MOLECULE
BindingDB_30179
 36 39 0 0 0
SMALL
NO_CHARGES


@<TRIPOS>ATOM
1    C         6.2091   18.3436   46.9123  C     
2    C         6.8364   18.9753   45.8108  C     
3    N         7.7074   19.9870   46.0769  N     
4    C         8.0133   20.4079   47.3289  C     
5    C         7.4075   19.7953   48.4349  C     
6    C         6.4909   18.7346   48.2447  C     
7    C         5.8836   18.0634   49.3480  C     
8    C         4.6477   16.6036   50.4712  C     
9    N         5.0543   16.9982   49.2533  N     
10   C         6.0077   18.3415   50.7151  C     
11   C         3.4976   15.3587   52.3537  C     
12   C         3.7103   15.5166   50.8100  C     
13   C         5.2289   17.4319   51.4187  C     
14   C         4.9700   17.2830   52.7671  C     
15   N         4.1602   16.3217   53.1935  N     
16   O         5.4727   18.0349   53.5861  O     
17   C         6.6030   18.5894   44.4547  C     
18   C         6.0433   16.9257   42.7400  C     
19   N         6.1774   17.8771   41.7836  N     
20   C         6.5217   19.1555   42.0757  C     
21   C         6.7518   19.5347   43.4115  C     
22   C         6.2546   17.2593   44.0910  C     
23   H         5.5120   17.6195   46.7332  H     
24   H         8.6980   21.1557   47.4616  H     
25   H         7.6529   20.1273   49.3687  H     
26   H         4.7817   16.5820   48.4246  H     
27   H         6.5514   19.0917   51.1445  H     
28   H         2.4304   15.4144   52.5704  H     
29   H         3.8428   14.3722   52.6641  H     
30   H         2.7550   15.7349   50.3251  H     
31   H         4.0938   14.5830   50.3913  H     
32   H         4.0041   16.2609   54.1505  H     
33   H         5.7988   15.9691   42.4719  H     
34   H         6.6121   19.8390   41.3255  H     
35   H         6.9943   20.5081   43.6108  H     
36   H         6.1873   16.5169   44.7941  H     
@<TRIPOS>BOND
     1    1    2 1
     2    1    6 2
     3    2    3 2
     4    2   17 1
     5    3    4 1
     6    4    5 2
     7    5    6 1
     8    6    7 1
     9    7    9 1
    10    7   10 2
    11    8    9 1
    12    8   12 1
    13    8   13 2
    14   10   13 1
    15   11   12 1
    16   11   15 1
    17   13   14 1
    18   14   15 1
    19   14   16 2
    20   17   21 1
    21   17   22 2
    22   18   19 2
    23   18   22 1
    24   19   20 1
    25   20   21 2
    26    1   23 1
    27    4   24 1
    28    5   25 1
    29    9   26 1
    30   10   27 1
    31   11   28 1
    32   11   29 1
    33   12   30 1
    34   12   31 1
    35   15   32 1
    36   18   33 1
    37   20   34 1
    38   21   35 1
    39   22   36 1
@<TRIPOS>PROPERTY_DATA
  Total_Score	| 1.0957
  Crash		| -0.4072
  Polar		| 0.0270
  FragIndex	| 1
  FragRMSD	| 1.350

