@<TRIPOS>MOLECULE
BindingDB_30199
 39 42 0 0 0
SMALL
NO_CHARGES


@<TRIPOS>ATOM
1    C         6.7832   18.7699   47.9718  C     
2    C         7.1834   19.6932   46.9687  C     
3    N         7.6626   20.8931   47.4154  N     
4    C         7.7955   21.2393   48.7198  C     
5    C         7.4345   20.3264   49.7188  C     
6    C         6.9324   19.0601   49.3561  C     
7    C         6.5863   18.0937   50.3463  C     
8    C         5.8276   16.1958   51.1858  C     
9    N         6.0956   16.8729   50.0622  N     
10   C         6.6750   18.1788   51.7436  C     
11   C         5.1133   14.3973   52.8108  C     
12   C         5.2663   14.8407   51.3180  C     
13   C         6.1908   16.9840   52.2694  C     
14   C         6.0591   16.5361   53.5649  C     
15   N         5.5589   15.3321   53.8117  N     
16   O         6.4029   17.2344   54.5066  O     
17   C         7.1062   19.4411   45.5501  C     
18   C         6.9633   17.9184   43.5998  C     
19   C         6.9477   19.0089   42.7123  C     
20   C         7.0285   20.3111   43.2375  C     
21   C         7.1022   20.5214   44.6254  C     
22   C         7.0559   18.1312   44.9914  C     
23   N         6.8723   18.8039   41.3823  N     
24   H         6.3839   17.8723   47.6899  H     
25   H         8.1539   22.1632   48.9754  H     
26   H         7.5383   20.5998   50.6951  H     
27   H         5.9645   16.5249   49.1655  H     
28   H         7.0271   18.9620   52.2970  H     
29   H         4.0623   14.1837   53.0156  H     
30   H         5.6690   13.4705   52.9647  H     
31   H         4.2905   14.8272   50.8269  H     
32   H         5.9207   14.1442   50.7878  H     
33   H         5.4838   15.0625   54.7406  H     
34   H         6.9160   16.9581   43.2415  H     
35   H         7.0349   21.1203   42.6095  H     
36   H         7.1452   21.4869   44.9558  H     
37   H         7.1044   17.2989   45.5857  H     
38   H         6.8855   19.5576   40.7699  H     
39   H         6.8102   17.8996   41.0292  H     
@<TRIPOS>BOND
     1    1    2 1
     2    1    6 2
     3    2    3 2
     4    2   17 1
     5    3    4 1
     6    4    5 2
     7    5    6 1
     8    6    7 1
     9    7    9 1
    10    7   10 2
    11    8    9 1
    12    8   12 1
    13    8   13 2
    14   10   13 1
    15   11   12 1
    16   11   15 1
    17   13   14 1
    18   14   15 1
    19   14   16 2
    20   17   21 1
    21   17   22 2
    22   18   19 2
    23   18   22 1
    24   19   20 1
    25   19   23 1
    26   20   21 2
    27    1   24 1
    28    4   25 1
    29    5   26 1
    30    9   27 1
    31   10   28 1
    32   11   29 1
    33   11   30 1
    34   12   31 1
    35   12   32 1
    36   15   33 1
    37   18   34 1
    38   20   35 1
    39   21   36 1
    40   22   37 1
    41   23   38 1
    42   23   39 1
@<TRIPOS>PROPERTY_DATA
  Total_Score	| 3.5139
  Crash		| -1.0325
  Polar		| 1.9172
  FragIndex	| 1
  FragRMSD	| 1.396

