@<TRIPOS>MOLECULE
BindingDB_30193
 37 40 0 0 0
SMALL
NO_CHARGES


@<TRIPOS>ATOM
1    C         6.3668   18.7564   48.4530  C     
2    C         6.4583   19.0806   49.8221  C     
3    N         7.1320   20.1946   50.2062  N     
4    C         7.7613   21.0077   49.3233  C     
5    C         7.7186   20.7077   47.9527  C     
6    C         6.9854   19.5947   47.4834  C     
7    C         6.8397   19.3188   46.0956  C     
8    C         6.1462   18.3641   44.2173  C     
9    N         6.1373   18.2958   45.5606  N     
10   C         7.3289   20.0698   45.0223  C     
11   C         5.7950   17.8889   41.7591  C     
12   C         5.4619   17.4989   43.2409  C     
13   C         6.8848   19.4820   43.8534  C     
14   C         7.0430   19.8533   42.5386  C     
15   N         6.5527   19.0997   41.5656  N     
16   O         7.6397   20.8764   42.2479  O     
17   C         5.9047   18.2646   50.8200  C     
18   C         5.8689   16.1430   52.0249  C     
19   C         4.8175   16.6117   52.8283  C     
20   C         4.3138   17.9152   52.6418  C     
21   C         4.8611   18.7449   51.6439  C     
22   C         6.4094   16.9626   51.0194  C     
23   F         3.3530   18.3585   53.4057  F     
24   H         5.8336   17.9300   48.1688  H     
25   H         8.2495   21.8371   49.6628  H     
26   H         8.2138   21.3210   47.3092  H     
27   H         5.6635   17.6227   46.0736  H     
28   H         7.8860   20.9247   45.0659  H     
29   H         6.3595   17.0759   41.2914  H     
30   H         4.8593   17.9978   41.2012  H     
31   H         5.7603   16.4646   43.4248  H     
32   H         4.3840   17.5757   43.4106  H     
33   H         6.7232   19.3809   40.6519  H     
34   H         6.2419   15.1995   52.1663  H     
35   H         4.4251   16.0065   53.5565  H     
36   H         4.4867   19.6887   51.5194  H     
37   H         7.1691   16.6006   50.4454  H     
@<TRIPOS>BOND
     1    1    2 1
     2    1    6 2
     3    2    3 2
     4    2   17 1
     5    3    4 1
     6    4    5 2
     7    5    6 1
     8    6    7 1
     9    7    9 1
    10    7   10 2
    11    8    9 1
    12    8   12 1
    13    8   13 2
    14   10   13 1
    15   11   12 1
    16   11   15 1
    17   13   14 1
    18   14   15 1
    19   14   16 2
    20   17   21 1
    21   17   22 2
    22   18   19 2
    23   18   22 1
    24   19   20 1
    25   20   21 2
    26   20   23 1
    27    1   24 1
    28    4   25 1
    29    5   26 1
    30    9   27 1
    31   10   28 1
    32   11   29 1
    33   11   30 1
    34   12   31 1
    35   12   32 1
    36   15   33 1
    37   18   34 1
    38   19   35 1
    39   21   36 1
    40   22   37 1
@<TRIPOS>PROPERTY_DATA
  Total_Score	| 1.9072
  Crash		| -1.3090
  Polar		| 0.0274
  FragIndex	| 1
  FragRMSD	| 1.162

