@<TRIPOS>MOLECULE
BindingDB_30196
 38 41 0 0 0
SMALL
NO_CHARGES


@<TRIPOS>ATOM
1    C         6.7964   18.9473   45.2895  C     
2    C         7.0638   19.8466   46.3494  C     
3    N         7.4800   21.1000   46.0193  N     
4    C         7.6360   21.5386   44.7471  C     
5    C         7.3605   20.6727   43.6778  C     
6    C         6.9336   19.3477   43.9336  C     
7    C         6.6477   18.4308   42.8782  C     
8    C         5.9443   16.5917   41.8669  C     
9    N         6.0729   17.2207   43.0457  N     
10   C         6.8888   18.5786   41.5081  C     
11   C         5.5337   14.8344   40.1025  C     
12   C         5.3353   15.2731   41.5914  C     
13   C         6.4542   17.4144   40.8748  C     
14   C         6.4478   17.0425   39.5488  C     
15   N         5.9436   15.8692   39.1908  N     
16   O         6.9095   17.7763   38.6860  O     
17   C         6.9479   19.4953   47.7295  C     
18   C         5.9205   18.1978   49.5521  C     
19   C         6.7864   18.7954   50.4928  C     
20   C         7.7208   19.7534   50.0541  C     
21   C         7.7989   20.0985   48.6931  C     
22   C         6.0006   18.5492   48.1910  C     
23   C         6.7109   18.4826   51.7557  C     
24   N         6.6440   18.2100   52.8700  N     
25   H         6.5365   17.9844   45.5096  H     
26   H         7.9436   22.4981   44.5769  H     
27   H         7.4693   21.0225   42.7236  H     
28   H         5.7873   16.8540   43.8965  H     
29   H         7.3070   19.3813   41.0379  H     
30   H         6.2982   14.0541   40.0577  H     
31   H         4.6047   14.3985   39.7289  H     
32   H         5.7779   14.5282   42.2566  H     
33   H         4.2689   15.3375   41.8152  H     
34   H         5.9148   15.6611   38.2475  H     
35   H         5.2183   17.5132   49.8497  H     
36   H         8.3542   20.2138   50.7150  H     
37   H         8.5008   20.7848   48.4072  H     
38   H         5.3321   18.1235   47.5438  H     
@<TRIPOS>BOND
     1    1    2 1
     2    1    6 2
     3    2    3 2
     4    2   17 1
     5    3    4 1
     6    4    5 2
     7    5    6 1
     8    6    7 1
     9    7    9 1
    10    7   10 2
    11    8    9 1
    12    8   12 1
    13    8   13 2
    14   10   13 1
    15   11   12 1
    16   11   15 1
    17   13   14 1
    18   14   15 1
    19   14   16 2
    20   17   21 1
    21   17   22 2
    22   18   19 2
    23   18   22 1
    24   19   20 1
    25   19   23 1
    26   20   21 2
    27   23   24 3
    28    1   25 1
    29    4   26 1
    30    5   27 1
    31    9   28 1
    32   10   29 1
    33   11   30 1
    34   11   31 1
    35   12   32 1
    36   12   33 1
    37   15   34 1
    38   18   35 1
    39   20   36 1
    40   21   37 1
    41   22   38 1
@<TRIPOS>PROPERTY_DATA
  Total_Score	| 5.3243
  Crash		| -1.5240
  Polar		| 1.9523
  FragIndex	| 1
  FragRMSD	| 0.580

