@<TRIPOS>MOLECULE
BindingDB_30181
 35 38 0 0 0
SMALL
NO_CHARGES


@<TRIPOS>ATOM
1    C         6.8441   19.0452   45.2486  C     
2    C         7.1160   19.9805   46.2720  C     
3    N         7.4801   21.2375   45.8950  N     
4    C         7.5977   21.6413   44.6106  C     
5    C         7.3348   20.7339   43.5763  C     
6    C         6.9484   19.4060   43.8795  C     
7    C         6.6843   18.4535   42.8542  C     
8    C         6.0037   16.5780   41.8949  C     
9    N         6.1485   17.2326   43.0567  N     
10   C         6.8986   18.5737   41.4748  C     
11   C         5.4330   14.8304   40.1618  C     
12   C         5.4617   15.2266   41.6748  C     
13   C         6.4769   17.3930   40.8749  C     
14   C         6.4715   16.9768   39.5621  C     
15   N         5.9738   15.7935   39.2368  N     
16   O         6.9246   17.6936   38.6749  O     
17   C         7.0292   19.6717   47.6609  C     
18   N         7.7986   19.9839   49.9260  N     
19   C         6.8843   19.0998   50.3881  C     
20   N         6.0369   18.4944   49.5167  N     
21   C         6.0853   18.7586   48.1880  C     
22   C         7.8995   20.2724   48.6045  C     
23   H         6.5937   18.0886   45.4993  H     
24   H         7.8577   22.6077   44.4098  H     
25   H         7.4214   21.0604   42.6156  H     
26   H         5.8932   16.8732   43.9209  H     
27   H         7.3027   19.3691   40.9777  H     
28   H         5.9885   13.8990   40.0223  H     
29   H         4.4017   14.6407   39.8608  H     
30   H         6.0756   14.5134   42.2321  H     
31   H         4.4480   15.1903   42.0809  H     
32   H         5.9557   15.5524   38.2985  H     
33   H         6.8281   18.8930   51.3838  H     
34   H         5.4085   18.2906   47.5825  H     
35   H         8.6114   20.9404   48.3091  H     
@<TRIPOS>BOND
     1    1    2 1
     2    1    6 2
     3    2    3 2
     4    2   17 1
     5    3    4 1
     6    4    5 2
     7    5    6 1
     8    6    7 1
     9    7    9 1
    10    7   10 2
    11    8    9 1
    12    8   12 1
    13    8   13 2
    14   10   13 1
    15   11   12 1
    16   11   15 1
    17   13   14 1
    18   14   15 1
    19   14   16 2
    20   17   21 1
    21   17   22 2
    22   18   19 2
    23   18   22 1
    24   19   20 1
    25   20   21 2
    26    1   23 1
    27    4   24 1
    28    5   25 1
    29    9   26 1
    30   10   27 1
    31   11   28 1
    32   11   29 1
    33   12   30 1
    34   12   31 1
    35   15   32 1
    36   19   33 1
    37   21   34 1
    38   22   35 1
@<TRIPOS>PROPERTY_DATA
  Total_Score	| 5.1622
  Crash		| -1.5514
  Polar		| 1.9833
  FragIndex	| 1
  FragRMSD	| 0.220

