@<TRIPOS>MOLECULE
BindingDB_30197
 42 45 0 0 0
SMALL
NO_CHARGES


@<TRIPOS>ATOM
1    C         6.6899   18.8885   45.2933  C     
2    C         6.9138   19.7733   46.3767  C     
3    N         7.3422   21.0244   46.0651  N     
4    C         7.5543   21.4754   44.8000  C     
5    C         7.3190   20.6208   43.7153  C     
6    C         6.8736   19.2948   43.9482  C     
7    C         6.6034   18.3888   42.8786  C     
8    C         5.8712   16.5790   41.8354  C     
9    N         5.9843   17.1910   43.0221  N     
10   C         6.8992   18.5297   41.5219  C     
11   C         5.3378   14.8948   40.0333  C     
12   C         5.2513   15.2717   41.5469  C     
13   C         6.4424   17.3925   40.8658  C     
14   C         6.4591   17.0274   39.5404  C     
15   N         5.8933   15.8888   39.1557  N     
16   O         6.9851   17.7384   38.7010  O     
17   C         6.7279   19.4181   47.7539  C     
18   C         5.7694   17.9659   49.5015  C     
19   C         6.3667   18.7360   50.5166  C     
20   C         7.1503   19.8585   50.1433  C     
21   C         7.3389   20.1724   48.7870  C     
22   C         5.9191   18.3197   48.1517  C     
23   C         6.1627   18.4112   51.8461  C     
24   C         5.6076   19.3722   52.7719  C     
25   O         6.3260   17.2470   52.2131  O     
26   H         6.4127   17.9257   45.4808  H     
27   H         7.8744   22.4330   44.6503  H     
28   H         7.4689   20.9756   42.7669  H     
29   H         5.6511   16.8326   43.8615  H     
30   H         7.3653   19.3226   41.0760  H     
31   H         5.9470   13.9950   39.9206  H     
32   H         4.3390   14.6554   39.6710  H     
33   H         5.7477   14.5085   42.1502  H     
34   H         4.2063   15.3172   41.8555  H     
35   H         5.8801   15.6950   38.2080  H     
36   H         5.1795   17.1646   49.7457  H     
37   H         7.6110   20.4344   50.8538  H     
38   H         7.9278   20.9823   48.5689  H     
39   H         5.4014   17.7654   47.4747  H     
40   H         6.2438   20.2566   52.8491  H     
41   H         5.5015   18.9418   53.7728  H     
42   H         4.6156   19.6783   52.4258  H     
@<TRIPOS>BOND
     1    1    2 1
     2    1    6 2
     3    2    3 2
     4    2   17 1
     5    3    4 1
     6    4    5 2
     7    5    6 1
     8    6    7 1
     9    7    9 1
    10    7   10 2
    11    8    9 1
    12    8   12 1
    13    8   13 2
    14   10   13 1
    15   11   12 1
    16   11   15 1
    17   13   14 1
    18   14   15 1
    19   14   16 2
    20   17   21 1
    21   17   22 2
    22   18   19 2
    23   18   22 1
    24   19   20 1
    25   19   23 1
    26   20   21 2
    27   23   24 1
    28   23   25 2
    29    1   26 1
    30    4   27 1
    31    5   28 1
    32    9   29 1
    33   10   30 1
    34   11   31 1
    35   11   32 1
    36   12   33 1
    37   12   34 1
    38   15   35 1
    39   18   36 1
    40   20   37 1
    41   21   38 1
    42   22   39 1
    43   24   40 1
    44   24   41 1
    45   24   42 1
@<TRIPOS>PROPERTY_DATA
  Total_Score	| 5.1420
  Crash		| -1.7009
  Polar		| 1.9464
  FragIndex	| 1
  FragRMSD	| 0.910

