@<TRIPOS>MOLECULE
BindingDB_30195
 40 43 0 0 0
SMALL
NO_CHARGES


@<TRIPOS>ATOM
1    C         6.9359   18.9885   45.1462  C     
2    C         7.1708   19.9384   46.1735  C     
3    N         7.5356   21.1967   45.8069  N     
4    C         7.6732   21.5924   44.5202  C     
5    C         7.4298   20.6796   43.4822  C     
6    C         7.0535   19.3505   43.7798  C     
7    C         6.7922   18.3908   42.7606  C     
8    C         6.2239   16.4769   41.8035  C     
9    N         6.4128   17.1128   42.9704  N     
10   C         6.8648   18.5667   41.3727  C     
11   C         5.5762   14.7704   40.0538  C     
12   C         5.8337   15.0700   41.5681  C     
13   C         6.5190   17.3633   40.7774  C     
14   C         6.4563   16.9869   39.4581  C     
15   N         5.9599   15.8029   39.1285  N     
16   O         6.8340   17.7448   38.5733  O     
17   C         7.0516   19.6355   47.5588  C     
18   C         6.0337   18.3982   49.4172  C     
19   C         6.8339   19.0831   50.3635  C     
20   C         7.7412   20.0551   49.8823  C     
21   C         7.8518   20.3245   48.5063  C     
22   C         6.1350   18.6769   48.0426  C     
23   C         6.6940   18.7750   51.8126  C     
24   F         7.4874   19.5384   52.6338  F     
25   F         5.3966   18.9874   52.2083  F     
26   F         7.0181   17.4615   52.0510  F     
27   H         6.6987   18.0264   45.3963  H     
28   H         7.9390   22.5570   44.3170  H     
29   H         7.5278   21.0057   42.5214  H     
30   H         6.2955   16.7076   43.8437  H     
31   H         7.1220   19.4171   40.8691  H     
32   H         6.1241   13.8681   39.7710  H     
33   H         4.5140   14.5657   39.8990  H     
34   H         6.6361   14.4270   41.9417  H     
35   H         4.9316   14.8469   42.1451  H     
36   H         5.8402   15.6150   38.1859  H     
37   H         5.3510   17.6976   49.7243  H     
38   H         8.3334   20.5796   50.5271  H     
39   H         8.5431   21.0170   48.2043  H     
40   H         5.5144   18.1738   47.4023  H     
@<TRIPOS>BOND
     1    1    2 1
     2    1    6 2
     3    2    3 2
     4    2   17 1
     5    3    4 1
     6    4    5 2
     7    5    6 1
     8    6    7 1
     9    7    9 1
    10    7   10 2
    11    8    9 1
    12    8   12 1
    13    8   13 2
    14   10   13 1
    15   11   12 1
    16   11   15 1
    17   13   14 1
    18   14   15 1
    19   14   16 2
    20   17   21 1
    21   17   22 2
    22   18   19 2
    23   18   22 1
    24   19   20 1
    25   19   23 1
    26   20   21 2
    27   23   24 1
    28   23   25 1
    29   23   26 1
    30    1   27 1
    31    4   28 1
    32    5   29 1
    33    9   30 1
    34   10   31 1
    35   11   32 1
    36   11   33 1
    37   12   34 1
    38   12   35 1
    39   15   36 1
    40   18   37 1
    41   20   38 1
    42   21   39 1
    43   22   40 1
@<TRIPOS>PROPERTY_DATA
  Total_Score	| 5.4582
  Crash		| -1.7172
  Polar		| 1.9091
  FragIndex	| 1
  FragRMSD	| 0.257

