@<TRIPOS>MOLECULE
BindingDB_50330578
 51 53 0 0 0
SMALL
NO_CHARGES


@<TRIPOS>ATOM
1    C       -28.6936   21.1213  -24.6450  C     
2    O       -27.6973   20.0900  -24.4891  O     
3    C       -27.3380   19.8686  -23.1793  C     
4    C       -26.7244   20.9040  -22.4559  C     
5    C       -26.3604   20.7591  -21.0878  C     
6    C       -25.7858   21.8238  -20.3047  C     
7    C       -25.7909   23.1888  -20.7078  C     
8    N       -25.2312   24.1307  -19.9175  N     
9    C       -24.6396   23.8526  -18.7223  C     
10   N       -24.2539   24.9180  -18.0135  N     
11   C       -24.6099   22.5046  -18.2732  C     
12   N       -24.0014   22.0839  -17.1015  N     
13   C       -24.6164   21.0328  -16.3073  C     
14   C       -24.2989   21.1609  -14.7910  C     
15   C       -22.7817   21.3482  -14.5099  C     
16   C       -22.5219   21.5382  -13.0600  C     
17   O       -22.7650   20.5188  -12.2043  O     
18   O       -21.8901   22.6206  -12.5619  O     
19   C       -22.2709   22.5369  -15.3691  C     
20   C       -22.5934   22.3129  -16.8666  C     
21   N       -25.1953   21.5800  -19.0862  N     
22   C       -26.5639   19.4758  -20.5100  C     
23   C       -27.0820   18.3968  -21.2596  C     
24   O       -27.2088   17.1713  -20.6762  O     
25   C       -26.0842   16.2979  -20.9476  C     
26   C       -27.5014   18.5986  -22.5935  C     
27   O       -28.1845   17.6055  -23.2644  O     
28   C       -27.4914   16.9754  -24.3662  C     
29   H       -29.6628   20.7850  -24.2606  H     
30   H       -28.8008   21.3321  -25.7108  H     
31   H       -28.4078   22.0546  -24.1406  H     
32   H       -26.5571   21.7684  -22.9660  H     
33   H       -26.2190   23.5107  -21.5692  H     
34   H       -23.9028   24.8247  -17.1099  H     
35   H       -24.3478   25.8055  -18.3920  H     
36   H       -25.7078   21.0372  -16.4079  H     
37   H       -24.2651   20.0684  -16.6718  H     
38   H       -24.8614   22.0124  -14.3883  H     
39   H       -24.6642   20.2608  -14.2830  H     
40   H       -22.2566   20.4449  -14.8142  H     
41   H       -22.7596   23.4549  -15.0417  H     
42   H       -21.1967   22.6689  -15.2378  H     
43   H       -22.0493   21.4327  -17.2098  H     
44   H       -22.1906   23.1524  -17.4276  H     
45   H       -26.3163   19.3035  -19.5336  H     
46   H       -25.9282   16.1750  -22.0416  H     
47   H       -26.3133   15.3112  -20.5336  H     
48   H       -25.1577   16.6839  -20.5033  H     
49   H       -27.1287   17.7137  -25.1005  H     
50   H       -28.2060   16.3002  -24.8497  H     
51   H       -26.6430   16.3692  -24.0089  H     
@<TRIPOS>BOND
     1    1    2 1
     2    2    3 1
     3    3    4 1
     4    3   26 2
     5    4    5 2
     6    5    6 1
     7    5   22 1
     8    6    7 1
     9    6   21 2
    10    7    8 2
    11    8    9 1
    12    9   10 1
    13    9   11 2
    14   11   12 1
    15   11   21 1
    16   12   13 1
    17   12   20 1
    18   13   14 1
    19   14   15 1
    20   15   16 1
    21   15   19 1
    22   16   17 2
    23   16   18 1
    24   19   20 1
    25   22   23 2
    26   23   24 1
    27   23   26 1
    28   24   25 1
    29   26   27 1
    30   27   28 1
    31    1   29 1
    32    1   30 1
    33    1   31 1
    34    4   32 1
    35    7   33 1
    36   10   34 1
    37   10   35 1
    38   13   36 1
    39   13   37 1
    40   14   38 1
    41   14   39 1
    42   15   40 1
    43   19   41 1
    44   19   42 1
    45   20   43 1
    46   20   44 1
    47   22   45 1
    48   25   46 1
    49   25   47 1
    50   25   48 1
    51   28   49 1
    52   28   50 1
    53   28   51 1
@<TRIPOS>PROPERTY_DATA
  Total_Score	| 10.4503
  Crash		| -1.0350
  Polar		| 5.0586
  FragIndex	| 1
  FragRMSD	| 0.325

