@<TRIPOS>MOLECULE
BindingDB_50330607
 47 49 0 0 0
SMALL
NO_CHARGES


@<TRIPOS>ATOM
1    C       -25.8362   23.2496  -20.6291  C     
2    C       -25.8882   21.8883  -20.2343  C     
3    N       -25.2421   21.6050  -19.0634  N     
4    C       -24.5546   22.4790  -18.2739  C     
5    C       -24.5542   23.8322  -18.6985  C     
6    N       -25.1882   24.1531  -19.8526  N     
7    N       -24.0484   24.8570  -17.9895  N     
8    N       -23.9085   21.9884  -17.1676  N     
9    C       -22.5036   22.2535  -16.9111  C     
10   C       -22.2287   22.5613  -15.4137  C     
11   C       -22.7990   21.4276  -14.5130  C     
12   C       -24.3039   21.2079  -14.8340  C     
13   C       -24.5232   20.9521  -16.3540  C     
14   C       -22.5779   21.6653  -13.0649  C     
15   O       -22.0428   22.8114  -12.5884  O     
16   O       -22.7923   20.6568  -12.1852  O     
17   C       -26.5315   20.8378  -20.9696  C     
18   C       -27.1708   21.0620  -22.2247  C     
19   C       -27.7600   20.0144  -22.9541  C     
20   C       -27.7324   18.7007  -22.4572  C     
21   C       -27.0973   18.4377  -21.2267  C     
22   C       -26.5170   19.4963  -20.4932  C     
23   O       -27.0736   17.1646  -20.7183  O     
24   C       -25.9354   16.4053  -21.1607  C     
25   O       -28.2714   17.6926  -23.2118  O     
26   C       -29.5123   17.1909  -22.6910  C     
27   H       -26.2668   23.5929  -21.4831  H     
28   H       -24.1086   25.7623  -18.3331  H     
29   H       -23.6424   24.6954  -17.1217  H     
30   H       -21.9418   21.3552  -17.1774  H     
31   H       -22.0779   23.0473  -17.5179  H     
32   H       -21.1493   22.6504  -15.2565  H     
33   H       -22.6943   23.5200  -15.1681  H     
34   H       -22.2566   20.5023  -14.7535  H     
35   H       -24.6829   20.3479  -14.2759  H     
36   H       -24.8832   22.0890  -14.5404  H     
37   H       -25.6019   20.8786  -16.5218  H     
38   H       -24.0881   19.9839  -16.6120  H     
39   H       -27.2165   21.9960  -22.6334  H     
40   H       -28.2070   20.2173  -23.8501  H     
41   H       -26.0776   19.2650  -19.5999  H     
42   H       -25.9295   16.2842  -22.2491  H     
43   H       -25.9904   15.4139  -20.7131  H     
44   H       -25.0003   16.8721  -20.8378  H     
45   H       -29.3729   16.7315  -21.7086  H     
46   H       -29.8817   16.4261  -23.3763  H     
47   H       -30.2607   17.9864  -22.6176  H     
@<TRIPOS>BOND
     1    1    2 2
     2    1    6 1
     3    2    3 1
     4    2   17 1
     5    3    4 2
     6    4    5 1
     7    4    8 1
     8    5    6 2
     9    5    7 1
    10    8    9 1
    11    8   13 1
    12    9   10 1
    13   10   11 1
    14   11   12 1
    15   11   14 1
    16   12   13 1
    17   14   15 1
    18   14   16 2
    19   17   18 2
    20   17   22 1
    21   18   19 1
    22   19   20 2
    23   20   21 1
    24   20   25 1
    25   21   22 2
    26   21   23 1
    27   23   24 1
    28   25   26 1
    29    1   27 1
    30    7   28 1
    31    7   29 1
    32    9   30 1
    33    9   31 1
    34   10   32 1
    35   10   33 1
    36   11   34 1
    37   12   35 1
    38   12   36 1
    39   13   37 1
    40   13   38 1
    41   18   39 1
    42   19   40 1
    43   22   41 1
    44   24   42 1
    45   24   43 1
    46   24   44 1
    47   26   45 1
    48   26   46 1
    49   26   47 1
@<TRIPOS>PROPERTY_DATA
  Total_Score	| 9.2947
  Crash		| -1.1359
  Polar		| 4.9258
  FragIndex	| 1
  FragRMSD	| 0.611

