@<TRIPOS>MOLECULE
BindingDB_50330595
 54 56 0 0 0
SMALL
NO_CHARGES


@<TRIPOS>ATOM
1    C       -25.8182   23.1842  -20.6787  C     
2    C       -25.8092   21.8221  -20.2902  C     
3    N       -25.2287   21.5749  -19.0902  N     
4    C       -24.6125   22.4715  -18.2707  C     
5    C       -24.6345   23.8212  -18.7039  C     
6    N       -25.2381   24.1182  -19.8829  N     
7    N       -24.2114   24.8554  -17.9608  N     
8    N       -23.9914   22.0062  -17.1433  N     
9    C       -24.5887   20.9427  -16.3608  C     
10   C       -24.3780   21.1609  -14.8313  C     
11   C       -22.8618   21.3964  -14.5235  C     
12   C       -22.2818   22.5382  -15.4174  C     
13   C       -22.5838   22.2713  -16.9086  C     
14   C       -22.5873   21.5866  -13.0732  C     
15   O       -22.7834   20.5414  -12.2324  O     
16   O       -21.8927   22.6370  -12.5971  O     
17   C       -26.3650   20.7263  -21.0478  C     
18   C       -26.5395   19.4483  -20.4498  C     
19   C       -27.0461   18.3603  -21.1782  C     
20   C       -27.4798   18.5242  -22.5128  C     
21   C       -27.3650   19.8016  -23.1159  C     
22   C       -26.7553   20.8601  -22.4081  C     
23   O       -27.7412   19.9568  -24.4171  O     
24   C       -28.5022   21.1597  -24.6830  C     
25   O       -28.1214   17.4474  -23.0663  O     
26   C       -27.3716   16.7293  -24.0814  C     
27   O       -27.1731   17.1404  -20.5577  O     
28   C       -26.0207   16.2874  -20.7167  C     
29   C       -25.3309   22.2714  -14.2907  C     
30   H       -26.2631   23.5018  -21.5419  H     
31   H       -24.3043   25.7601  -18.2961  H     
32   H       -23.8379   24.7089  -17.0782  H     
33   H       -25.6664   20.8406  -16.5493  H     
34   H       -24.1365   19.9919  -16.6488  H     
35   H       -24.6724   20.2342  -14.3317  H     
36   H       -22.3200   20.4870  -14.8078  H     
37   H       -22.7128   23.5030  -15.1341  H     
38   H       -21.1934   22.6009  -15.2807  H     
39   H       -22.0233   21.3850  -17.2194  H     
40   H       -22.1819   23.0991  -17.4970  H     
41   H       -26.2578   19.2935  -19.4769  H     
42   H       -26.5888   21.7372  -22.9189  H     
43   H       -29.4334   21.1667  -24.0974  H     
44   H       -28.7638   21.1878  -25.7458  H     
45   H       -27.9163   22.0606  -24.4558  H     
46   H       -27.2917   17.3021  -25.0197  H     
47   H       -27.9355   15.8319  -24.3124  H     
48   H       -26.3710   16.4291  -23.7432  H     
49   H       -25.8664   16.0254  -21.7705  H     
50   H       -26.1850   15.3651  -20.1535  H     
51   H       -25.1079   16.7532  -20.3212  H     
52   H       -25.1672   23.2216  -14.8110  H     
53   H       -25.1806   22.4305  -13.2214  H     
54   H       -26.3700   21.9751  -14.4356  H     
@<TRIPOS>BOND
     1    1    2 2
     2    1    6 1
     3    2    3 1
     4    2   17 1
     5    3    4 2
     6    4    5 1
     7    4    8 1
     8    5    6 2
     9    5    7 1
    10    8    9 1
    11    8   13 1
    12    9   10 1
    13   10   11 1
    14   10   29 1
    15   11   12 1
    16   11   14 1
    17   12   13 1
    18   14   15 1
    19   14   16 2
    20   17   18 2
    21   17   22 1
    22   18   19 1
    23   19   20 2
    24   19   27 1
    25   20   21 1
    26   20   25 1
    27   21   22 2
    28   21   23 1
    29   23   24 1
    30   25   26 1
    31   27   28 1
    32    1   30 1
    33    7   31 1
    34    7   32 1
    35    9   33 1
    36    9   34 1
    37   10   35 1
    38   11   36 1
    39   12   37 1
    40   12   38 1
    41   13   39 1
    42   13   40 1
    43   18   41 1
    44   22   42 1
    45   24   43 1
    46   24   44 1
    47   24   45 1
    48   26   46 1
    49   26   47 1
    50   26   48 1
    51   28   49 1
    52   28   50 1
    53   28   51 1
    54   29   52 1
    55   29   53 1
    56   29   54 1
@<TRIPOS>PROPERTY_DATA
  Total_Score	| 10.3823
  Crash		| -1.5207
  Polar		| 5.1390
  FragIndex	| 1
  FragRMSD	| 0.680

