@<TRIPOS>MOLECULE
BindingDB_50330591
 57 59 0 0 0
SMALL
NO_CHARGES


@<TRIPOS>ATOM
1    C       -26.4957   21.3718  -13.5334  C     
2    C       -25.2828   22.0791  -14.1861  C     
3    C       -24.2610   21.0689  -14.8308  C     
4    C       -24.4882   20.9181  -16.3738  C     
5    N       -23.9702   22.0475  -17.1276  N     
6    C       -24.6037   22.4969  -18.2589  C     
7    N       -25.2002   21.5948  -19.0793  N     
8    C       -25.8082   21.8399  -20.2759  C     
9    C       -26.3496   20.7637  -21.0576  C     
10   C       -26.6867   20.9031  -22.4297  C     
11   C       -27.2658   19.8519  -23.1642  C     
12   O       -27.5209   19.9882  -24.5068  O     
13   C       -28.2166   21.1865  -24.8803  C     
14   C       -27.4599   18.5956  -22.5652  C     
15   O       -28.0036   17.6046  -23.3480  O     
16   C       -29.2716   17.0880  -22.8687  C     
17   C       -27.0269   18.3982  -21.2332  C     
18   O       -27.1392   17.1496  -20.6711  O     
19   C       -26.0713   16.2617  -21.0278  C     
20   C       -26.5439   19.4821  -20.4805  C     
21   C       -25.8233   23.2011  -20.6614  C     
22   N       -25.2787   24.1364  -19.8585  N     
23   C       -24.6756   23.8475  -18.6786  C     
24   N       -24.2835   24.8889  -17.9357  N     
25   C       -22.5772   22.3886  -16.8899  C     
26   C       -22.2816   22.6015  -15.3848  C     
27   C       -22.7510   21.3819  -14.5422  C     
28   C       -22.4577   21.5053  -13.0871  C     
29   O       -21.7840   22.5551  -12.5712  O     
30   O       -22.8407   20.5265  -12.2379  O     
31   H       -27.0208   20.7639  -14.2730  H     
32   H       -27.1857   22.1137  -13.1259  H     
33   H       -26.1636   20.7224  -12.7197  H     
34   H       -25.6535   22.7815  -14.9384  H     
35   H       -24.8086   22.6801  -13.4063  H     
36   H       -24.4485   20.0807  -14.3976  H     
37   H       -24.0066   20.0006  -16.7188  H     
38   H       -25.5636   20.7901  -16.5429  H     
39   H       -26.4957   21.7696  -22.9311  H     
40   H       -29.1410   21.3246  -24.3105  H     
41   H       -28.4823   21.1090  -25.9434  H     
42   H       -27.5662   22.0604  -24.7467  H     
43   H       -29.1348   16.4710  -21.9628  H     
44   H       -29.7153   16.4741  -23.6379  H     
45   H       -30.0033   17.8852  -22.6362  H     
46   H       -26.0211   16.0746  -22.1083  H     
47   H       -26.2378   15.3027  -20.5295  H     
48   H       -25.1009   16.6364  -20.6783  H     
49   H       -26.3224   19.3145  -19.4920  H     
50   H       -26.2549   23.5283  -21.5226  H     
51   H       -24.4203   25.7917  -18.2707  H     
52   H       -23.9396   24.7438  -17.0385  H     
53   H       -21.9595   21.5596  -17.2492  H     
54   H       -22.2414   23.2736  -17.4316  H     
55   H       -21.2039   22.7475  -15.2524  H     
56   H       -22.7931   23.5053  -15.0429  H     
57   H       -22.1638   20.5220  -14.8814  H     
@<TRIPOS>BOND
     1    1    2 1
     2    3    2 1
     3    3    4 1
     4    3   27 1
     5    4    5 1
     6    5    6 1
     7    5   25 1
     8    6    7 2
     9    6   23 1
    10    7    8 1
    11    8    9 1
    12    8   21 2
    13    9   10 1
    14    9   20 2
    15   10   11 2
    16   11   12 1
    17   11   14 1
    18   12   13 1
    19   14   15 1
    20   14   17 2
    21   15   16 1
    22   17   18 1
    23   17   20 1
    24   18   19 1
    25   21   22 1
    26   22   23 2
    27   23   24 1
    28   25   26 1
    29   26   27 1
    30   27   28 1
    31   28   29 2
    32   28   30 1
    33    1   31 1
    34    1   32 1
    35    1   33 1
    36    2   34 1
    37    2   35 1
    38    3   36 1
    39    4   37 1
    40    4   38 1
    41   10   39 1
    42   13   40 1
    43   13   41 1
    44   13   42 1
    45   16   43 1
    46   16   44 1
    47   16   45 1
    48   19   46 1
    49   19   47 1
    50   19   48 1
    51   20   49 1
    52   21   50 1
    53   24   51 1
    54   24   52 1
    55   25   53 1
    56   25   54 1
    57   26   55 1
    58   26   56 1
    59   27   57 1
@<TRIPOS>PROPERTY_DATA
  Total_Score	| 11.0628
  Crash		| -1.8677
  Polar		| 5.0143
  FragIndex	| 1
  FragRMSD	| 0.818

