@<TRIPOS>MOLECULE
BindingDB_50330598
 53 55 0 0 0
SMALL
NO_CHARGES


@<TRIPOS>ATOM
1    C       -25.8327   23.1451  -20.7090  C     
2    C       -25.9446   21.8177  -20.2315  C     
3    N       -25.3613   21.6036  -19.0207  N     
4    C       -24.7004   22.5116  -18.2588  C     
5    C       -24.6716   23.8387  -18.7517  C     
6    N       -25.2311   24.0910  -19.9594  N     
7    N       -24.1925   24.8855  -18.0634  N     
8    N       -24.0810   22.0826  -17.1171  N     
9    C       -24.7228   21.1045  -16.2704  C     
10   C       -24.4707   21.4055  -14.7697  C     
11   C       -22.9504   21.5720  -14.4806  C     
12   C       -22.3292   22.6303  -15.4351  C     
13   C       -22.6559   22.3012  -16.9121  C     
14   C       -22.7237   21.8855  -13.0815  C     
15   N       -22.8885   23.1022  -12.6056  N     
16   O       -22.3688   21.0206  -12.2960  O     
17   C       -26.5530   20.7267  -20.9303  C     
18   C       -26.5172   19.4067  -20.4088  C     
19   C       -27.0540   18.3041  -21.0956  C     
20   C       -27.6797   18.4873  -22.3453  C     
21   C       -27.7583   19.7892  -22.8942  C     
22   C       -27.2344   20.8783  -22.1683  C     
23   O       -28.4391   19.9707  -24.0785  O     
24   C       -27.6519   20.6599  -25.0939  C     
25   O       -28.3154   17.3737  -22.8508  O     
26   C       -27.7656   16.7327  -24.0219  C     
27   O       -27.0594   17.0793  -20.4834  O     
28   C       -25.9281   16.2843  -20.8616  C     
29   H       -26.1774   23.4263  -21.6252  H     
30   H       -24.2416   25.7812  -18.4354  H     
31   H       -23.8429   24.7606  -17.1694  H     
32   H       -25.8073   21.0958  -16.4148  H     
33   H       -24.3513   20.1047  -16.5112  H     
34   H       -25.0112   22.3128  -14.4895  H     
35   H       -24.8671   20.5755  -14.1794  H     
36   H       -22.4711   20.6106  -14.7091  H     
37   H       -22.7163   23.6285  -15.2150  H     
38   H       -21.2419   22.6563  -15.3041  H     
39   H       -22.1241   21.3865  -17.1910  H     
40   H       -22.2343   23.0892  -17.5445  H     
41   H       -22.6729   23.2960  -11.6825  H     
42   H       -23.1821   23.8155  -13.1923  H     
43   H       -26.0929   19.2407  -19.4972  H     
44   H       -27.3489   21.8115  -22.5813  H     
45   H       -27.4303   21.7095  -24.8113  H     
46   H       -28.2363   20.6792  -26.0327  H     
47   H       -26.7052   20.1152  -25.2679  H     
48   H       -27.9090   17.3769  -24.8921  H     
49   H       -28.3560   15.8354  -24.1887  H     
50   H       -26.6974   16.4558  -23.9242  H     
51   H       -25.9528   16.0424  -21.9276  H     
52   H       -25.9779   15.3536  -20.3018  H     
53   H       -24.9846   16.7785  -20.6150  H     
@<TRIPOS>BOND
     1    1    2 2
     2    1    6 1
     3    2    3 1
     4    2   17 1
     5    3    4 2
     6    4    5 1
     7    4    8 1
     8    5    6 2
     9    5    7 1
    10    8    9 1
    11    8   13 1
    12    9   10 1
    13   10   11 1
    14   11   12 1
    15   11   14 1
    16   12   13 1
    17   14   15 am
    18   14   16 2
    19   17   18 2
    20   17   22 1
    21   18   19 1
    22   19   20 2
    23   19   27 1
    24   20   21 1
    25   20   25 1
    26   21   22 2
    27   21   23 1
    28   23   24 1
    29   25   26 1
    30   27   28 1
    31    1   29 1
    32    7   30 1
    33    7   31 1
    34    9   32 1
    35    9   33 1
    36   10   34 1
    37   10   35 1
    38   11   36 1
    39   12   37 1
    40   12   38 1
    41   13   39 1
    42   13   40 1
    43   15   41 1
    44   15   42 1
    45   18   43 1
    46   22   44 1
    47   24   45 1
    48   24   46 1
    49   24   47 1
    50   26   48 1
    51   26   49 1
    52   26   50 1
    53   28   51 1
    54   28   52 1
    55   28   53 1
@<TRIPOS>PROPERTY_DATA
  Total_Score	| 9.2576
  Crash		| -1.2528
  Polar		| 3.7800
  FragIndex	| 1
  FragRMSD	| 0.590

