@<TRIPOS>MOLECULE
BindingDB_50330584
 60 62 0 0 0
SMALL
NO_CHARGES


@<TRIPOS>ATOM
1    C       -25.5585   23.1172  -20.5968  C     
2    C       -25.4062   21.7490  -20.2619  C     
3    N       -24.7296   21.5095  -19.0970  N     
4    C       -24.2159   22.4468  -18.2454  C     
5    C       -24.4254   23.8004  -18.6125  C     
6    N       -25.0773   24.0701  -19.7674  N     
7    N       -24.1347   24.8603  -17.8369  N     
8    N       -23.5494   22.0275  -17.1230  N     
9    C       -24.0966   20.9419  -16.3089  C     
10   C       -23.1255   20.4720  -15.1628  C     
11   C       -22.3197   21.5911  -14.4082  C     
12   C       -22.3055   22.9288  -15.2055  C     
13   C       -22.3026   22.6536  -16.7240  C     
14   C       -22.6920   21.8046  -12.9903  C     
15   O       -22.0364   22.7505  -12.2768  O     
16   O       -23.1820   20.7735  -12.2711  O     
17   C       -26.0676   20.6770  -20.9582  C     
18   C       -26.1669   19.3902  -20.3693  C     
19   C       -26.8929   18.3418  -20.9736  C     
20   C       -27.5489   18.5600  -22.2032  C     
21   C       -27.4874   19.8366  -22.8033  C     
22   C       -26.7294   20.8599  -22.2009  C     
23   O       -28.1161   20.0969  -23.9923  O     
24   C       -29.1822   21.0547  -23.8835  C     
25   O       -28.3087   17.5589  -22.7495  O     
26   C       -27.6569   16.8285  -23.8038  C     
27   O       -27.0556   17.1537  -20.3098  O     
28   C       -25.9446   16.2502  -20.4306  C     
29   C       -25.5229   21.3236  -15.7574  C     
30   C       -26.2200   20.2494  -14.8532  C     
31   C       -27.0791   19.1838  -15.5883  C     
32   H       -26.0807   23.4326  -21.4098  H     
33   H       -24.3464   25.7571  -18.1466  H     
34   H       -23.7393   24.7366  -16.9612  H     
35   H       -24.2046   20.0628  -16.9491  H     
36   H       -23.6504   19.8024  -14.4777  H     
37   H       -22.3737   19.8404  -15.6389  H     
38   H       -21.2777   21.2512  -14.3656  H     
39   H       -23.1916   23.5217  -14.9636  H     
40   H       -21.4195   23.5158  -14.9380  H     
41   H       -21.4873   21.9673  -16.9557  H     
42   H       -22.0687   23.5724  -17.2585  H     
43   H       -25.7280   19.2008  -19.4663  H     
44   H       -26.6876   21.7514  -22.6922  H     
45   H       -28.8507   21.9903  -23.4213  H     
46   H       -30.0147   20.6410  -23.3101  H     
47   H       -29.5402   21.2807  -24.8891  H     
48   H       -27.4857   17.4605  -24.6764  H     
49   H       -28.3104   16.0097  -24.1029  H     
50   H       -26.7075   16.4003  -23.4786  H     
51   H       -25.0215   16.6903  -20.0451  H     
52   H       -25.7950   15.9472  -21.4667  H     
53   H       -26.1650   15.3577  -19.8460  H     
54   H       -25.4584   22.2428  -15.1711  H     
55   H       -26.1790   21.5708  -16.5961  H     
56   H       -25.4961   19.7285  -14.2271  H     
57   H       -26.8790   20.7727  -14.1537  H     
58   H       -27.7606   19.6505  -16.3025  H     
59   H       -26.4757   18.4634  -16.1337  H     
60   H       -27.6635   18.6272  -14.8533  H     
@<TRIPOS>BOND
     1    1    2 2
     2    1    6 1
     3    2    3 1
     4    2   17 1
     5    3    4 2
     6    4    5 1
     7    4    8 1
     8    5    6 2
     9    5    7 1
    10    8    9 1
    11    8   13 1
    12    9   10 1
    13    9   29 1
    14   10   11 1
    15   11   12 1
    16   11   14 1
    17   12   13 1
    18   14   15 1
    19   14   16 2
    20   17   18 2
    21   17   22 1
    22   18   19 1
    23   19   20 2
    24   19   27 1
    25   20   21 1
    26   20   25 1
    27   21   22 2
    28   21   23 1
    29   23   24 1
    30   25   26 1
    31   27   28 1
    32   29   30 1
    33   30   31 1
    34    1   32 1
    35    7   33 1
    36    7   34 1
    37    9   35 1
    38   10   36 1
    39   10   37 1
    40   11   38 1
    41   12   39 1
    42   12   40 1
    43   13   41 1
    44   13   42 1
    45   18   43 1
    46   22   44 1
    47   24   45 1
    48   24   46 1
    49   24   47 1
    50   26   48 1
    51   26   49 1
    52   26   50 1
    53   28   51 1
    54   28   52 1
    55   28   53 1
    56   29   54 1
    57   29   55 1
    58   30   56 1
    59   30   57 1
    60   31   58 1
    61   31   59 1
    62   31   60 1
@<TRIPOS>PROPERTY_DATA
  Total_Score	| 8.4921
  Crash		| -3.2582
  Polar		| 4.9220
  FragIndex	| 1
  FragRMSD	| 0.451

