@<TRIPOS>MOLECULE
BindingDB_50330606
 43 45 0 0 0
SMALL
NO_CHARGES


@<TRIPOS>ATOM
1    C       -22.6030   22.2280  -16.9908  C     
2    C       -22.3206   22.5348  -15.5018  C     
3    C       -22.8811   21.3950  -14.5969  C     
4    C       -22.6625   21.6221  -13.1513  C     
5    O       -22.8816   20.6013  -12.2953  O     
6    O       -22.0462   22.7316  -12.6744  O     
7    C       -24.3955   21.1982  -14.9068  C     
8    C       -24.6403   20.9588  -16.4200  C     
9    N       -24.0146   21.9885  -17.2323  N     
10   C       -24.6391   22.4791  -18.3446  C     
11   N       -25.2564   21.5932  -19.1759  N     
12   C       -24.6745   23.8372  -18.7565  C     
13   N       -24.2648   24.8681  -17.9970  N     
14   N       -25.2563   24.1478  -19.9393  N     
15   C       -25.8297   23.2280  -20.7511  C     
16   C       -25.8580   21.8627  -20.3655  C     
17   C       -26.4339   20.7901  -21.1264  C     
18   C       -26.5094   19.4719  -20.5957  C     
19   C       -26.9435   20.9762  -22.4406  C     
20   C       -27.5178   19.9201  -23.1682  C     
21   C       -27.5934   18.6404  -22.6024  C     
22   C       -27.0641   18.3973  -21.3176  C     
23   O       -27.1224   17.1692  -20.7085  O     
24   C       -25.9851   16.3012  -20.9508  C     
25   H       -22.1722   23.0176  -17.6085  H     
26   H       -22.0620   21.3182  -17.2625  H     
27   H       -21.2417   22.6375  -15.3488  H     
28   H       -22.7973   23.4827  -15.2437  H     
29   H       -22.3483   20.4698  -14.8523  H     
30   H       -24.7815   20.3377  -14.3488  H     
31   H       -24.9473   22.0861  -14.5904  H     
32   H       -24.2445   19.9835  -16.7015  H     
33   H       -25.7240   20.9234  -16.5692  H     
34   H       -24.3806   25.7754  -18.3188  H     
35   H       -23.9255   24.7200  -17.1005  H     
36   H       -26.2329   23.5658  -21.6227  H     
37   H       -26.1634   19.2774  -19.6522  H     
38   H       -26.9171   21.8819  -22.9051  H     
39   H       -27.8843   20.0893  -24.1110  H     
40   H       -28.0304   17.8805  -23.1303  H     
41   H       -25.9663   15.9668  -21.9968  H     
42   H       -26.0782   15.4195  -20.3142  H     
43   H       -25.0385   16.8070  -20.7093  H     
@<TRIPOS>BOND
     1    1    2 1
     2    1    9 1
     3    2    3 1
     4    3    4 1
     5    3    7 1
     6    4    5 2
     7    4    6 1
     8    7    8 1
     9    8    9 1
    10    9   10 1
    11   10   11 2
    12   10   12 1
    13   11   16 1
    14   12   13 1
    15   12   14 2
    16   14   15 1
    17   15   16 2
    18   16   17 1
    19   17   18 1
    20   17   19 2
    21   18   22 2
    22   19   20 1
    23   20   21 2
    24   21   22 1
    25   22   23 1
    26   23   24 1
    27    1   25 1
    28    1   26 1
    29    2   27 1
    30    2   28 1
    31    3   29 1
    32    7   30 1
    33    7   31 1
    34    8   32 1
    35    8   33 1
    36   13   34 1
    37   13   35 1
    38   15   36 1
    39   18   37 1
    40   19   38 1
    41   20   39 1
    42   21   40 1
    43   24   41 1
    44   24   42 1
    45   24   43 1
@<TRIPOS>PROPERTY_DATA
  Total_Score	| 9.7786
  Crash		| -0.9473
  Polar		| 5.1346
  FragIndex	| 1
  FragRMSD	| 0.346

