@<TRIPOS>MOLECULE
BindingDB_50330592
 54 56 0 0 0
SMALL
NO_CHARGES


@<TRIPOS>ATOM
1    C       -25.7184   23.2261  -20.7163  C     
2    C       -25.8068   21.8741  -20.3106  C     
3    N       -25.2237   21.5941  -19.1075  N     
4    C       -24.5501   22.4703  -18.3018  C     
5    C       -24.4806   23.8099  -18.7582  C     
6    N       -25.0759   24.1262  -19.9345  N     
7    N       -23.9579   24.8279  -18.0482  N     
8    N       -23.9848   22.0146  -17.1456  N     
9    C       -24.6952   21.0339  -16.3378  C     
10   C       -24.1227   20.7760  -14.9036  C     
11   C       -23.4418   22.0770  -14.3524  C     
12   C       -22.3432   22.6115  -15.3237  C     
13   C       -22.5999   22.2740  -16.8189  C     
14   C       -22.9013   21.9572  -12.9759  C     
15   O       -22.1183   22.9458  -12.4789  O     
16   O       -22.8109   20.7507  -12.3724  O     
17   C       -26.3955   20.8123  -21.0948  C     
18   C       -26.5156   19.5000  -20.5715  C     
19   C       -27.0138   18.4286  -21.3391  C     
20   C       -27.4610   18.6592  -22.6567  C     
21   C       -27.3465   19.9419  -23.2181  C     
22   C       -26.8117   20.9964  -22.4441  C     
23   O       -27.6645   20.0772  -24.5551  O     
24   C       -28.3393   21.3069  -24.8914  C     
25   O       -27.9027   17.6264  -23.4382  O     
26   C       -29.2143   17.1552  -23.0706  C     
27   O       -27.0706   17.1699  -20.7917  O     
28   C       -25.9487   16.3443  -21.1752  C     
29   C       -25.2451   20.2389  -13.9647  C     
30   H       -26.1263   23.5654  -21.5827  H     
31   H       -23.9849   25.7307  -18.4029  H     
32   H       -23.5881   24.6746  -17.1671  H     
33   H       -25.7272   21.4017  -16.2332  H     
34   H       -24.7409   20.0841  -16.8813  H     
35   H       -23.3536   20.0062  -14.9902  H     
36   H       -24.2303   22.8354  -14.2957  H     
37   H       -22.2661   23.6982  -15.2022  H     
38   H       -21.3599   22.1973  -15.0583  H     
39   H       -22.0551   21.3592  -17.0492  H     
40   H       -22.1408   23.0467  -17.4363  H     
41   H       -26.2022   19.2984  -19.6183  H     
42   H       -26.7197   21.8998  -22.9257  H     
43   H       -29.2563   21.4437  -24.2994  H     
44   H       -28.6139   21.2767  -25.9477  H     
45   H       -27.6609   22.1591  -24.7270  H     
46   H       -29.1883   16.6907  -22.0798  H     
47   H       -29.5170   16.4036  -23.8034  H     
48   H       -29.9622   17.9565  -23.0835  H     
49   H       -25.9592   16.1496  -22.2508  H     
50   H       -26.0365   15.3897  -20.6585  H     
51   H       -24.9886   16.7914  -20.8994  H     
52   H       -25.9860   21.0211  -13.7712  H     
53   H       -24.8393   19.9095  -13.0100  H     
54   H       -25.7537   19.3921  -14.4283  H     
@<TRIPOS>BOND
     1    1    2 2
     2    1    6 1
     3    2    3 1
     4    2   17 1
     5    3    4 2
     6    4    5 1
     7    4    8 1
     8    5    6 2
     9    5    7 1
    10    8    9 1
    11    8   13 1
    12    9   10 1
    13   10   11 1
    14   10   29 1
    15   11   12 1
    16   11   14 1
    17   12   13 1
    18   14   15 1
    19   14   16 2
    20   17   18 2
    21   17   22 1
    22   18   19 1
    23   19   20 2
    24   19   27 1
    25   20   21 1
    26   20   25 1
    27   21   22 2
    28   21   23 1
    29   23   24 1
    30   25   26 1
    31   27   28 1
    32    1   30 1
    33    7   31 1
    34    7   32 1
    35    9   33 1
    36    9   34 1
    37   10   35 1
    38   11   36 1
    39   12   37 1
    40   12   38 1
    41   13   39 1
    42   13   40 1
    43   18   41 1
    44   22   42 1
    45   24   43 1
    46   24   44 1
    47   24   45 1
    48   26   46 1
    49   26   47 1
    50   26   48 1
    51   28   49 1
    52   28   50 1
    53   28   51 1
    54   29   52 1
    55   29   53 1
    56   29   54 1
@<TRIPOS>PROPERTY_DATA
  Total_Score	| 9.8676
  Crash		| -1.4235
  Polar		| 4.6800
  FragIndex	| 1
  FragRMSD	| 0.472

