@<TRIPOS>MOLECULE
BindingDB_50330587
 54 56 0 0 0
SMALL
NO_CHARGES


@<TRIPOS>ATOM
1    C       -25.6809   23.2311  -20.4908  C     
2    C       -25.8881   21.9839  -19.8752  C     
3    N       -25.3888   21.8658  -18.6144  N     
4    C       -24.7150   22.8143  -17.9038  C     
5    C       -24.5836   24.0749  -18.5509  C     
6    N       -25.0595   24.2182  -19.8126  N     
7    N       -24.0853   25.1802  -17.9742  N     
8    N       -24.2248   22.5185  -16.6582  N     
9    C       -25.0014   21.7369  -15.6991  C     
10   C       -24.2089   20.4930  -15.1985  C     
11   C       -22.7420   20.7901  -14.7441  C     
12   C       -22.0375   21.6874  -15.8094  C     
13   C       -22.8852   22.9089  -16.2382  C     
14   C       -22.6652   21.3069  -13.3526  C     
15   O       -21.9324   22.3971  -13.0208  O     
16   O       -23.1129   20.5319  -12.3408  O     
17   C       -26.5052   20.8646  -20.5296  C     
18   C       -26.4262   19.5598  -19.9744  C     
19   C       -26.9612   18.4348  -20.6294  C     
20   C       -27.6532   18.5928  -21.8584  C     
21   C       -27.6977   19.8643  -22.4533  C     
22   C       -27.1814   20.9827  -21.7704  C     
23   O       -28.3329   20.0114  -23.6602  O     
24   C       -27.4606   20.4620  -24.7132  C     
25   O       -28.1679   17.4975  -22.4897  O     
26   C       -29.5801   17.3586  -22.3071  C     
27   O       -26.8137   17.2284  -19.9970  O     
28   C       -25.7476   16.4115  -20.5350  C     
29   C       -25.5297   22.6469  -14.5509  C     
30   H       -25.9708   23.4321  -21.4537  H     
31   H       -24.0567   26.0103  -18.4689  H     
32   H       -23.8029   25.1672  -17.0455  H     
33   H       -25.9111   21.3419  -16.1632  H     
34   H       -24.7638   19.9908  -14.3950  H     
35   H       -24.1652   19.7866  -16.0307  H     
36   H       -22.2094   19.8361  -14.7305  H     
37   H       -21.0713   22.0211  -15.4315  H     
38   H       -21.8449   21.0881  -16.7012  H     
39   H       -22.3131   23.3835  -17.0358  H     
40   H       -22.9414   23.6220  -15.4163  H     
41   H       -25.9483   19.4172  -19.0802  H     
42   H       -27.3267   21.8968  -22.2080  H     
43   H       -27.0565   21.4622  -24.5198  H     
44   H       -28.0409   20.5106  -25.6435  H     
45   H       -26.6275   19.7617  -24.8662  H     
46   H       -29.8610   17.3578  -21.2522  H     
47   H       -29.8781   16.3981  -22.7331  H     
48   H       -30.1286   18.1382  -22.8301  H     
49   H       -26.0100   16.0183  -21.5266  H     
50   H       -25.6106   15.5738  -19.8688  H     
51   H       -24.8055   16.9631  -20.6181  H     
52   H       -24.7255   23.0248  -13.9215  H     
53   H       -26.2259   22.0940  -13.9210  H     
54   H       -26.0549   23.5054  -14.9761  H     
@<TRIPOS>BOND
     1    1    2 2
     2    1    6 1
     3    2    3 1
     4    2   17 1
     5    3    4 2
     6    4    5 1
     7    4    8 1
     8    5    6 2
     9    5    7 1
    10    8    9 1
    11    8   13 1
    12    9   10 1
    13    9   29 1
    14   10   11 1
    15   11   12 1
    16   11   14 1
    17   12   13 1
    18   14   15 1
    19   14   16 2
    20   17   18 2
    21   17   22 1
    22   18   19 1
    23   19   20 2
    24   19   27 1
    25   20   21 1
    26   20   25 1
    27   21   22 2
    28   21   23 1
    29   23   24 1
    30   25   26 1
    31   27   28 1
    32    1   30 1
    33    7   31 1
    34    7   32 1
    35    9   33 1
    36   10   34 1
    37   10   35 1
    38   11   36 1
    39   12   37 1
    40   12   38 1
    41   13   39 1
    42   13   40 1
    43   18   41 1
    44   22   42 1
    45   24   43 1
    46   24   44 1
    47   24   45 1
    48   26   46 1
    49   26   47 1
    50   26   48 1
    51   28   49 1
    52   28   50 1
    53   28   51 1
    54   29   52 1
    55   29   53 1
    56   29   54 1
@<TRIPOS>PROPERTY_DATA
  Total_Score	| 9.9255
  Crash		| -1.9509
  Polar		| 4.9624
  FragIndex	| 1
  FragRMSD	| 0.936

