@<TRIPOS>MOLECULE
BindingDB_50330586
 57 59 0 0 0
SMALL
NO_CHARGES


@<TRIPOS>ATOM
1    C       -25.6253   23.3239  -20.4133  C     
2    C       -25.8531   22.0560  -19.8184  C     
3    N       -25.3276   21.8983  -18.5666  N     
4    C       -24.6175   22.8233  -17.8466  C     
5    C       -24.4598   24.0829  -18.4831  C     
6    N       -24.9510   24.2704  -19.7312  N     
7    N       -23.9137   25.1621  -17.9069  N     
8    N       -24.1024   22.4919  -16.6120  N     
9    C       -24.8195   21.6078  -15.6952  C     
10   C       -23.8948   20.4253  -15.2498  C     
11   C       -22.4989   20.8639  -14.7174  C     
12   C       -21.8549   21.8592  -15.7269  C     
13   C       -22.8030   22.9925  -16.1661  C     
14   C       -22.5214   21.3562  -13.3149  C     
15   O       -21.8916   22.4849  -12.9170  O     
16   O       -23.0934   20.5964  -12.3506  O     
17   C       -26.4831   20.9624  -20.5022  C     
18   C       -26.3547   19.6325  -20.0276  C     
19   C       -26.8887   18.5364  -20.7357  C     
20   C       -27.5706   18.7462  -21.9503  C     
21   C       -27.7121   20.0601  -22.4562  C     
22   C       -27.2110   21.1497  -21.7097  C     
23   O       -28.3609   20.2781  -23.6428  O     
24   C       -27.5160   20.8312  -24.6678  C     
25   O       -28.0629   17.6840  -22.6618  O     
26   C       -29.4696   17.4667  -22.4536  C     
27   O       -26.8102   17.2812  -20.1829  O     
28   C       -25.8088   16.4446  -20.7823  C     
29   C       -25.4623   22.4187  -14.5310  C     
30   C       -26.3415   21.5748  -13.5765  C     
31   H       -25.9257   23.5499  -21.3607  H     
32   H       -23.8699   25.9993  -18.3898  H     
33   H       -23.5936   25.1246  -16.9909  H     
34   H       -25.6634   21.1294  -16.2094  H     
35   H       -24.3969   19.7938  -14.5139  H     
36   H       -23.7420   19.7952  -16.1264  H     
37   H       -21.8616   19.9768  -14.6991  H     
38   H       -20.9355   22.2827  -15.3130  H     
39   H       -21.5661   21.3103  -16.6299  H     
40   H       -22.2710   23.5384  -16.9500  H     
41   H       -22.9403   23.6849  -15.3335  H     
42   H       -25.8592   19.4447  -19.1526  H     
43   H       -27.3988   22.0874  -22.0675  H     
44   H       -27.1965   21.8421  -24.4097  H     
45   H       -28.0935   20.8857  -25.5943  H     
46   H       -26.6378   20.2020  -24.8451  H     
47   H       -29.6997   17.2773  -21.4010  H     
48   H       -29.7675   16.5890  -23.0277  H     
49   H       -30.0559   18.3173  -22.8048  H     
50   H       -26.0519   16.2246  -21.8236  H     
51   H       -25.7758   15.5000  -20.2368  H     
52   H       -24.8198   16.9077  -20.7254  H     
53   H       -24.6963   22.9217  -13.9353  H     
54   H       -26.0895   23.2014  -14.9650  H     
55   H       -27.0171   20.9349  -14.1402  H     
56   H       -26.9316   22.2292  -12.9352  H     
57   H       -25.7161   20.9457  -12.9443  H     
@<TRIPOS>BOND
     1    1    2 2
     2    1    6 1
     3    2    3 1
     4    2   17 1
     5    3    4 2
     6    4    5 1
     7    4    8 1
     8    5    6 2
     9    5    7 1
    10    8    9 1
    11    8   13 1
    12    9   10 1
    13    9   29 1
    14   10   11 1
    15   11   12 1
    16   11   14 1
    17   12   13 1
    18   14   15 1
    19   14   16 2
    20   17   18 2
    21   17   22 1
    22   18   19 1
    23   19   20 2
    24   19   27 1
    25   20   21 1
    26   20   25 1
    27   21   22 2
    28   21   23 1
    29   23   24 1
    30   25   26 1
    31   27   28 1
    32   29   30 1
    33    1   31 1
    34    7   32 1
    35    7   33 1
    36    9   34 1
    37   10   35 1
    38   10   36 1
    39   11   37 1
    40   12   38 1
    41   12   39 1
    42   13   40 1
    43   13   41 1
    44   18   42 1
    45   22   43 1
    46   24   44 1
    47   24   45 1
    48   24   46 1
    49   26   47 1
    50   26   48 1
    51   26   49 1
    52   28   50 1
    53   28   51 1
    54   28   52 1
    55   29   53 1
    56   29   54 1
    57   30   55 1
    58   30   56 1
    59   30   57 1
@<TRIPOS>PROPERTY_DATA
  Total_Score	| 9.9686
  Crash		| -2.6697
  Polar		| 5.1077
  FragIndex	| 1
  FragRMSD	| 0.900

