@<TRIPOS>MOLECULE
BindingDB_50330605
 47 49 0 0 0
SMALL
NO_CHARGES


@<TRIPOS>ATOM
1    C       -25.7368   23.2101  -20.7363  C     
2    C       -25.7724   21.8501  -20.3504  C     
3    N       -25.2110   21.5799  -19.1389  N     
4    C       -24.6205   22.4629  -18.2897  C     
5    C       -24.6581   23.8157  -18.7037  C     
6    N       -25.2030   24.1239  -19.9039  N     
7    N       -24.2863   24.8636  -17.9554  N     
8    N       -24.0212   21.9858  -17.1508  N     
9    C       -24.6209   20.9071  -16.3890  C     
10   C       -24.3829   21.0788  -14.8593  C     
11   C       -22.8751   21.2932  -14.5268  C     
12   C       -22.3337   22.4835  -15.3743  C     
13   C       -22.6176   22.2600  -16.8821  C     
14   C       -22.6614   21.4677  -13.0690  C     
15   O       -22.9382   20.4490  -12.2243  O     
16   O       -22.0029   22.5308  -12.5561  O     
17   C       -26.3544   20.7945  -21.1384  C     
18   C       -26.4499   19.4818  -20.6084  C     
19   C       -27.0504   18.4318  -21.3276  C     
20   C       -27.6285   18.6942  -22.5926  C     
21   C       -27.5129   19.9642  -23.1720  C     
22   C       -26.8801   20.9924  -22.4444  C     
23   O       -28.0616   20.2935  -24.3824  O     
24   C       -27.5649   19.5821  -25.5327  C     
25   O       -27.1593   17.1855  -20.7609  O     
26   C       -26.0649   16.3031  -21.0864  C     
27   H       -26.1288   23.5490  -21.6123  H     
28   H       -24.4132   25.7669  -18.2937  H     
29   H       -23.9481   24.7367  -17.0513  H     
30   H       -25.7039   20.8578  -16.5408  H     
31   H       -24.2051   19.9471  -16.7076  H     
32   H       -24.9605   21.9370  -14.5078  H     
33   H       -24.7593   20.1866  -14.3456  H     
34   H       -22.3263   20.3920  -14.8186  H     
35   H       -22.8142   23.4109  -15.0602  H     
36   H       -21.2558   22.5937  -15.2301  H     
37   H       -22.0342   21.3987  -17.2171  H     
38   H       -22.2269   23.1145  -17.4363  H     
39   H       -26.0976   19.2688  -19.6652  H     
40   H       -28.1183   17.9454  -23.0760  H     
41   H       -26.8207   21.9075  -22.8906  H     
42   H       -26.4738   19.5282  -25.5477  H     
43   H       -27.8926   20.1113  -26.4205  H     
44   H       -27.9891   18.5685  -25.5692  H     
45   H       -26.0551   16.0759  -22.1599  H     
46   H       -26.2008   15.3715  -20.5334  H     
47   H       -25.1028   16.7441  -20.7972  H     
@<TRIPOS>BOND
     1    1    2 2
     2    1    6 1
     3    2    3 1
     4    2   17 1
     5    3    4 2
     6    4    5 1
     7    4    8 1
     8    5    6 2
     9    5    7 1
    10    8    9 1
    11    8   13 1
    12    9   10 1
    13   10   11 1
    14   11   12 1
    15   11   14 1
    16   12   13 1
    17   14   15 1
    18   14   16 2
    19   17   18 2
    20   17   22 1
    21   18   19 1
    22   19   20 2
    23   19   25 1
    24   20   21 1
    25   21   22 2
    26   21   23 1
    27   23   24 1
    28   25   26 1
    29    1   27 1
    30    7   28 1
    31    7   29 1
    32    9   30 1
    33    9   31 1
    34   10   32 1
    35   10   33 1
    36   11   34 1
    37   12   35 1
    38   12   36 1
    39   13   37 1
    40   13   38 1
    41   18   39 1
    42   20   40 1
    43   22   41 1
    44   24   42 1
    45   24   43 1
    46   24   44 1
    47   26   45 1
    48   26   46 1
    49   26   47 1
@<TRIPOS>PROPERTY_DATA
  Total_Score	| 10.2470
  Crash		| -0.9764
  Polar		| 5.1028
  FragIndex	| 1
  FragRMSD	| 0.592

