@<TRIPOS>MOLECULE
BindingDB_50330594
 54 56 0 0 0
SMALL
NO_CHARGES


@<TRIPOS>ATOM
1    C       -25.7611   23.1690  -20.7177  C     
2    C       -25.7065   21.8121  -20.3424  C     
3    N       -25.0387   21.5537  -19.1782  N     
4    C       -24.4071   22.4515  -18.3655  C     
5    C       -24.5195   23.8056  -18.7761  C     
6    N       -25.1745   24.0950  -19.9291  N     
7    N       -24.1275   24.8768  -18.0623  N     
8    N       -23.7879   22.0028  -17.2217  N     
9    C       -24.4827   21.1511  -16.2716  C     
10   C       -24.5828   21.8788  -14.8886  C     
11   C       -23.1796   22.3094  -14.3358  C     
12   C       -22.3755   23.0528  -15.4500  C     
13   C       -22.4275   22.3592  -16.8406  C     
14   C       -22.3814   21.2104  -13.7359  C     
15   O       -21.4291   20.5729  -14.4414  O     
16   O       -22.5815   20.8276  -12.4514  O     
17   C       -26.3458   20.7414  -21.0573  C     
18   C       -26.5208   19.4820  -20.4367  C     
19   C       -27.0822   18.3821  -21.1142  C     
20   C       -27.5319   18.5204  -22.4395  C     
21   C       -27.4645   19.7858  -23.0678  C     
22   C       -26.8309   20.8617  -22.3939  C     
23   O       -27.8664   19.8431  -24.3881  O     
24   C       -28.4280   21.1028  -24.8325  C     
25   O       -28.0936   17.4236  -23.0367  O     
26   C       -27.2693   16.8591  -24.0881  C     
27   O       -27.1978   17.1862  -20.4537  O     
28   C       -26.0292   16.3514  -20.5939  C     
29   C       -25.4317   21.0883  -13.8539  C     
30   H       -26.2406   23.4951  -21.5503  H     
31   H       -24.2759   25.7701  -18.4182  H     
32   H       -23.7410   24.7730  -17.1781  H     
33   H       -25.4929   20.9062  -16.6030  H     
34   H       -23.9608   20.2023  -16.1495  H     
35   H       -25.1423   22.8006  -15.0770  H     
36   H       -23.3609   23.0402  -13.5358  H     
37   H       -22.8003   24.0528  -15.5642  H     
38   H       -21.3321   23.1822  -15.1401  H     
39   H       -21.8157   21.4497  -16.8015  H     
40   H       -21.9338   22.9996  -17.5770  H     
41   H       -26.2134   19.3405  -19.4699  H     
42   H       -26.7019   21.7235  -22.9262  H     
43   H       -29.3128   21.3833  -24.2288  H     
44   H       -28.7383   20.9640  -25.8859  H     
45   H       -27.6672   21.9049  -24.7955  H     
46   H       -27.0379   17.6097  -24.8700  H     
47   H       -27.8430   16.0501  -24.5503  H     
48   H       -26.3268   16.4457  -23.7070  H     
49   H       -25.9157   16.0129  -21.6249  H     
50   H       -26.1610   15.4709  -19.9588  H     
51   H       -25.1152   16.8636  -20.2779  H     
52   H       -26.4363   20.8991  -14.2424  H     
53   H       -25.5350   21.6694  -12.9309  H     
54   H       -24.9641   20.1301  -13.6123  H     
@<TRIPOS>BOND
     1    1    2 2
     2    1    6 1
     3    2    3 1
     4    2   17 1
     5    3    4 2
     6    4    5 1
     7    4    8 1
     8    5    6 2
     9    5    7 1
    10    8    9 1
    11    8   13 1
    12    9   10 1
    13   10   11 1
    14   10   29 1
    15   11   12 1
    16   11   14 1
    17   12   13 1
    18   14   15 1
    19   14   16 2
    20   17   18 2
    21   17   22 1
    22   18   19 1
    23   19   20 2
    24   19   27 1
    25   20   21 1
    26   20   25 1
    27   21   22 2
    28   21   23 1
    29   23   24 1
    30   25   26 1
    31   27   28 1
    32    1   30 1
    33    7   31 1
    34    7   32 1
    35    9   33 1
    36    9   34 1
    37   10   35 1
    38   11   36 1
    39   12   37 1
    40   12   38 1
    41   13   39 1
    42   13   40 1
    43   18   41 1
    44   22   42 1
    45   24   43 1
    46   24   44 1
    47   24   45 1
    48   26   46 1
    49   26   47 1
    50   26   48 1
    51   28   49 1
    52   28   50 1
    53   28   51 1
    54   29   52 1
    55   29   53 1
    56   29   54 1
@<TRIPOS>PROPERTY_DATA
  Total_Score	| 9.1827
  Crash		| -1.8129
  Polar		| 3.6886
  FragIndex	| 1
  FragRMSD	| 0.730

