@<TRIPOS>MOLECULE
BindingDB_50330589
 57 59 0 0 0
SMALL
NO_CHARGES


@<TRIPOS>ATOM
1    C       -25.8788   23.2008  -20.6382  C     
2    C       -25.8541   21.8321  -20.2904  C     
3    N       -25.1899   21.5365  -19.1387  N     
4    C       -24.5407   22.4096  -18.3182  C     
5    C       -24.6040   23.7740  -18.7006  C     
6    N       -25.2658   24.1018  -19.8380  N     
7    N       -24.1621   24.8023  -17.9575  N     
8    N       -23.8991   21.9061  -17.2155  N     
9    C       -24.5384   20.8764  -16.4207  C     
10   C       -23.8952   20.6025  -15.0150  C     
11   C       -23.4186   21.9726  -14.4046  C     
12   C       -22.4018   22.6753  -15.3735  C     
13   C       -22.5471   22.2765  -16.8651  C     
14   C       -22.8538   21.9542  -13.0297  C     
15   O       -22.1368   23.0074  -12.5728  O     
16   O       -22.8104   20.8409  -12.2624  O     
17   C       -26.4144   20.7724  -21.0745  C     
18   C       -26.5950   19.4764  -20.5254  C     
19   C       -27.0700   18.4006  -21.3046  C     
20   C       -27.4270   18.6137  -22.6540  C     
21   C       -27.2567   19.8894  -23.2301  C     
22   C       -26.7390   20.9405  -22.4449  C     
23   O       -27.4740   20.0502  -24.5740  O     
24   C       -28.2872   21.1845  -24.9244  C     
25   O       -27.8257   17.5621  -23.4383  O     
26   C       -29.1637   17.1105  -23.1660  C     
27   O       -27.1779   17.1548  -20.7410  O     
28   C       -26.0604   16.2948  -21.0206  C     
29   C       -24.8292   19.6871  -14.1442  C     
30   C       -26.2190   20.2562  -13.7496  C     
31   H       -26.3705   23.5441  -21.4639  H     
32   H       -24.2955   25.7150  -18.2650  H     
33   H       -23.7644   24.6426  -17.0905  H     
34   H       -25.5673   21.2062  -16.2577  H     
35   H       -24.5789   19.9442  -16.9859  H     
36   H       -22.9906   20.0060  -15.1764  H     
37   H       -24.3036   22.6146  -14.3498  H     
38   H       -22.5255   23.7584  -15.2916  H     
39   H       -21.3695   22.4521  -15.0825  H     
40   H       -21.9357   21.3903  -17.0416  H     
41   H       -22.1182   23.0550  -17.5023  H     
42   H       -26.3673   19.2887  -19.5458  H     
43   H       -26.5522   21.8246  -22.9095  H     
44   H       -29.2523   21.1663  -24.4101  H     
45   H       -28.4660   21.1513  -26.0000  H     
46   H       -27.7783   22.1249  -24.6964  H     
47   H       -29.2603   16.7442  -22.1404  H     
48   H       -29.3872   16.2855  -23.8402  H     
49   H       -29.8986   17.8982  -23.3417  H     
50   H       -25.9753   16.0982  -22.0907  H     
51   H       -26.2343   15.3466  -20.5112  H     
52   H       -25.1235   16.7209  -20.6489  H     
53   H       -24.9889   18.7330  -14.6728  H     
54   H       -24.3154   19.4182  -13.2134  H     
55   H       -26.1286   21.2614  -13.3266  H     
56   H       -26.6858   19.6039  -13.0046  H     
57   H       -26.8776   20.2852  -14.6223  H     
@<TRIPOS>BOND
     1    1    2 2
     2    1    6 1
     3    2    3 1
     4    2   17 1
     5    3    4 2
     6    4    5 1
     7    4    8 1
     8    5    6 2
     9    5    7 1
    10    8    9 1
    11    8   13 1
    12    9   10 1
    13   10   11 1
    14   10   29 1
    15   11   12 1
    16   11   14 1
    17   12   13 1
    18   14   15 1
    19   14   16 2
    20   17   18 2
    21   17   22 1
    22   18   19 1
    23   19   20 2
    24   19   27 1
    25   20   21 1
    26   20   25 1
    27   21   22 2
    28   21   23 1
    29   23   24 1
    30   25   26 1
    31   27   28 1
    32   29   30 1
    33    1   31 1
    34    7   32 1
    35    7   33 1
    36    9   34 1
    37    9   35 1
    38   10   36 1
    39   11   37 1
    40   12   38 1
    41   12   39 1
    42   13   40 1
    43   13   41 1
    44   18   42 1
    45   22   43 1
    46   24   44 1
    47   24   45 1
    48   24   46 1
    49   26   47 1
    50   26   48 1
    51   26   49 1
    52   28   50 1
    53   28   51 1
    54   28   52 1
    55   29   53 1
    56   29   54 1
    57   30   55 1
    58   30   56 1
    59   30   57 1
@<TRIPOS>PROPERTY_DATA
  Total_Score	| 9.7203
  Crash		| -1.3728
  Polar		| 4.5558
  FragIndex	| 1
  FragRMSD	| 0.440

