@<TRIPOS>MOLECULE
BindingDB_50330590
 60 62 0 0 0
SMALL
NO_CHARGES


@<TRIPOS>ATOM
1    C       -25.8093   23.2778  -20.5849  C     
2    C       -25.8128   21.9148  -20.2050  C     
3    N       -25.1840   21.6409  -19.0265  N     
4    C       -24.5573   22.5297  -18.2036  C     
5    C       -24.6082   23.8846  -18.6151  C     
6    N       -25.2171   24.1936  -19.7877  N     
7    N       -24.1877   24.9251  -17.8747  N     
8    N       -23.8993   22.0554  -17.0987  N     
9    C       -24.4218   20.9252  -16.3523  C     
10   C       -24.1790   21.0444  -14.8155  C     
11   C       -22.6580   21.3331  -14.5346  C     
12   C       -22.1906   22.5653  -15.3573  C     
13   C       -22.5004   22.3764  -16.8612  C     
14   C       -22.3419   21.4156  -13.0900  C     
15   O       -21.7166   22.4856  -12.5308  O     
16   O       -22.8318   20.4648  -12.2589  O     
17   C       -26.3721   20.8499  -20.9852  C     
18   C       -26.5303   19.5562  -20.4268  C     
19   C       -26.9746   18.4608  -21.1940  C     
20   C       -27.3462   18.6545  -22.5435  C     
21   C       -27.2415   19.9383  -23.1185  C     
22   C       -26.7346   21.0071  -22.3494  C     
23   O       -27.5308   20.1083  -24.4460  O     
24   C       -28.4113   21.2161  -24.7189  C     
25   O       -27.7025   17.5833  -23.3227  O     
26   C       -29.1170   17.3338  -23.3530  C     
27   O       -27.0845   17.2316  -20.5987  O     
28   C       -26.0013   16.3406  -20.9176  C     
29   C       -25.1776   22.0540  -14.1290  C     
30   C       -26.4407   21.4116  -13.4794  C     
31   C       -26.2174   20.0117  -12.8594  C     
32   H       -26.2571   23.6091  -21.4385  H     
33   H       -24.3039   25.8295  -18.2045  H     
34   H       -23.8221   24.7902  -16.9839  H     
35   H       -25.4963   20.7801  -16.5173  H     
36   H       -23.9449   20.0129  -16.7090  H     
37   H       -24.3680   20.0458  -14.4240  H     
38   H       -22.0843   20.4697  -14.8992  H     
39   H       -22.6910   23.4674  -14.9983  H     
40   H       -21.1103   22.7086  -15.2263  H     
41   H       -21.8963   21.5476  -17.2369  H     
42   H       -22.1463   23.2590  -17.3930  H     
43   H       -26.2973   19.3829  -19.4445  H     
44   H       -26.6120   21.9001  -22.8232  H     
45   H       -29.3728   21.0968  -24.2161  H     
46   H       -28.5935   21.2513  -25.7926  H     
47   H       -27.9665   22.1659  -24.4222  H     
48   H       -29.5080   17.1120  -22.3571  H     
49   H       -29.2950   16.4678  -23.9880  H     
50   H       -29.6600   18.1812  -23.7741  H     
51   H       -25.9961   16.0998  -21.9829  H     
52   H       -26.1463   15.4154  -20.3576  H     
53   H       -25.0332   16.7626  -20.6323  H     
54   H       -24.6703   22.6796  -13.3679  H     
55   H       -25.5498   22.7761  -14.8768  H     
56   H       -26.7720   22.0966  -12.6799  H     
57   H       -27.2530   21.3621  -14.2209  H     
58   H       -26.2092   19.2537  -13.6412  H     
59   H       -27.0283   19.7831  -12.1641  H     
60   H       -25.2711   19.9897  -12.3191  H     
@<TRIPOS>BOND
     1    1    2 2
     2    1    6 1
     3    2    3 1
     4    2   17 1
     5    3    4 2
     6    4    5 1
     7    4    8 1
     8    5    6 2
     9    5    7 1
    10    8    9 1
    11    8   13 1
    12    9   10 1
    13   10   11 1
    14   10   29 1
    15   11   12 1
    16   11   14 1
    17   12   13 1
    18   14   15 1
    19   14   16 2
    20   17   18 2
    21   17   22 1
    22   18   19 1
    23   19   20 2
    24   19   27 1
    25   20   21 1
    26   20   25 1
    27   21   22 2
    28   21   23 1
    29   23   24 1
    30   25   26 1
    31   27   28 1
    32   29   30 1
    33   30   31 1
    34    1   32 1
    35    7   33 1
    36    7   34 1
    37    9   35 1
    38    9   36 1
    39   10   37 1
    40   11   38 1
    41   12   39 1
    42   12   40 1
    43   13   41 1
    44   13   42 1
    45   18   43 1
    46   22   44 1
    47   24   45 1
    48   24   46 1
    49   24   47 1
    50   26   48 1
    51   26   49 1
    52   26   50 1
    53   28   51 1
    54   28   52 1
    55   28   53 1
    56   29   54 1
    57   29   55 1
    58   30   56 1
    59   30   57 1
    60   31   58 1
    61   31   59 1
    62   31   60 1
@<TRIPOS>PROPERTY_DATA
  Total_Score	| 9.5361
  Crash		| -2.8686
  Polar		| 4.9198
  FragIndex	| 1
  FragRMSD	| 0.519

