@<TRIPOS>MOLECULE
BindingDB_50330599
 55 57 0 0 0
SMALL
NO_CHARGES


@<TRIPOS>ATOM
1    C       -25.7336   23.2357  -20.6851  C     
2    C       -25.9217   21.8983  -20.2761  C     
3    N       -25.4070   21.5934  -19.0614  N     
4    C       -24.7599   22.4077  -18.1820  C     
5    C       -24.6630   23.7636  -18.6089  C     
6    N       -25.1297   24.1035  -19.8392  N     
7    N       -24.2357   24.7934  -17.8590  N     
8    N       -24.2669   21.8216  -17.0335  N     
9    C       -24.8292   20.5601  -16.5558  C     
10   C       -24.7952   20.3953  -15.0191  C     
11   C       -23.3754   20.6792  -14.4409  C     
12   C       -22.9150   22.0789  -14.9406  C     
13   C       -22.9551   22.1478  -16.4898  C     
14   C       -23.3278   20.5263  -12.9650  C     
15   O       -24.1573   19.6384  -12.3442  O     
16   O       -22.3061   21.0863  -12.2759  O     
17   C       -26.5798   20.8730  -21.0267  C     
18   C       -27.3922   21.1654  -22.1478  C     
19   C       -28.0272   20.1480  -22.8941  C     
20   C       -27.8971   18.8041  -22.4980  C     
21   C       -27.1418   18.4932  -21.3527  C     
22   C       -26.4911   19.5155  -20.6332  C     
23   O       -27.1515   17.2157  -20.8741  O     
24   C       -26.0566   16.4135  -21.3419  C     
25   O       -28.5762   17.8063  -23.1492  O     
26   C       -27.9499   17.3480  -24.3571  C     
27   O       -28.8499   20.4421  -23.9454  O     
28   C       -28.1565   20.8446  -25.1383  C     
29   C       -24.1628   19.1692  -10.9928  C     
30   H       -26.0445   23.5702  -21.5967  H     
31   H       -24.2594   25.6939  -18.2233  H     
32   H       -24.0068   24.6685  -16.9278  H     
33   H       -25.8839   20.4470  -16.8427  H     
34   H       -24.2767   19.7329  -17.0086  H     
35   H       -25.5228   21.0861  -14.5734  H     
36   H       -25.1011   19.3719  -14.7769  H     
37   H       -22.6814   19.9333  -14.8505  H     
38   H       -23.5644   22.8584  -14.5251  H     
39   H       -21.8902   22.2774  -14.6069  H     
40   H       -22.2385   21.4174  -16.8886  H     
41   H       -22.5728   23.1167  -16.7895  H     
42   H       -27.5598   22.1346  -22.4216  H     
43   H       -25.9590   19.2507  -19.8011  H     
44   H       -26.0767   16.3081  -22.4249  H     
45   H       -26.1612   15.4200  -20.9083  H     
46   H       -25.0947   16.8244  -21.0214  H     
47   H       -28.0020   18.1111  -25.1384  H     
48   H       -28.4895   16.4655  -24.7044  H     
49   H       -26.9037   17.0727  -24.1961  H     
50   H       -27.6406   21.7998  -25.0008  H     
51   H       -28.8955   20.9750  -25.9292  H     
52   H       -27.4306   20.0970  -25.4696  H     
53   H       -23.3208   19.5540  -10.4146  H     
54   H       -24.1036   18.0808  -11.0006  H     
55   H       -25.0984   19.4601  -10.5140  H     
@<TRIPOS>BOND
     1    1    2 2
     2    1    6 1
     3    2    3 1
     4    2   17 1
     5    3    4 2
     6    4    5 1
     7    4    8 1
     8    5    6 2
     9    5    7 1
    10    8    9 1
    11    8   13 1
    12    9   10 1
    13   10   11 1
    14   11   12 1
    15   11   14 1
    16   12   13 1
    17   14   15 1
    18   14   16 2
    19   15   29 1
    20   17   18 2
    21   17   22 1
    22   18   19 1
    23   19   20 2
    24   19   27 1
    25   20   21 1
    26   20   25 1
    27   21   22 2
    28   21   23 1
    29   23   24 1
    30   25   26 1
    31   27   28 1
    32    1   30 1
    33    7   31 1
    34    7   32 1
    35    9   33 1
    36    9   34 1
    37   10   35 1
    38   10   36 1
    39   11   37 1
    40   12   38 1
    41   12   39 1
    42   13   40 1
    43   13   41 1
    44   18   42 1
    45   22   43 1
    46   24   44 1
    47   24   45 1
    48   24   46 1
    49   26   47 1
    50   26   48 1
    51   26   49 1
    52   28   50 1
    53   28   51 1
    54   28   52 1
    55   29   53 1
    56   29   54 1
    57   29   55 1
@<TRIPOS>PROPERTY_DATA
  Total_Score	| 7.9744
  Crash		| -2.1520
  Polar		| 3.5069
  FragIndex	| 1
  FragRMSD	| 0.994

