@<TRIPOS>MOLECULE
BindingDB_24169
 49 51 0 0 0
SMALL
NO_CHARGES


@<TRIPOS>ATOM
1    C        27.2233   14.8209   14.4942  C     
2    C        28.3838   14.2060   13.9803  C     
3    S        28.3876   14.4982   12.2780  S     
4    O        26.3272   13.8292   16.2066  O     
5    N        29.3319   13.5792   14.7205  N     
6    O        31.0704   13.6706   13.3220  O     
7    C        26.9207   15.3815   12.2188  C     
8    C        26.3626   16.0144   11.0150  C     
9    C        24.9538   16.6152   11.2568  C     
10   C        24.8358   17.2654   12.6634  C     
11   C        25.1739   16.2735   13.8249  C     
12   C        26.4094   15.4774   13.5324  C     
13   C        30.5989   13.3337   14.3996  C     
14   C        31.4353   12.7612   15.3383  C     
15   C        32.8313   12.6320   15.2839  C     
16   C        33.4215   12.0181   16.4033  C     
17   C        32.5140   11.6010   17.3730  C     
18   S        30.9480   12.0349   16.8179  S     
19   C        26.9820   14.8069   15.8531  C     
20   N        27.5139   15.6855   16.7333  N     
21   C        27.3328   15.4397   18.1656  C     
22   C        28.0071   14.1247   18.6283  C     
23   C        28.1794   16.9106   16.3080  C     
24   C        29.5397   16.7225   15.6027  C     
25   C        23.9624   15.3648   14.1607  C     
26   H        29.0770   13.3471   15.6306  H     
27   H        27.0515   16.8084   10.7005  H     
28   H        26.3071   15.2742   10.2134  H     
29   H        24.7464   17.3661   10.4926  H     
30   H        24.2002   15.8265   11.1532  H     
31   H        25.5497   18.0921   12.7047  H     
32   H        23.8385   17.6872   12.7860  H     
33   H        25.3642   16.8804   14.7125  H     
34   H        33.3975   12.9779   14.5021  H     
35   H        34.4314   11.8788   16.5035  H     
36   H        32.7385   11.1382   18.2598  H     
37   H        27.7397   16.2418   18.7901  H     
38   H        26.2644   15.3991   18.4096  H     
39   H        27.5483   13.2543   18.1566  H     
40   H        27.8979   14.0194   19.7143  H     
41   H        29.0739   14.1423   18.3718  H     
42   H        27.5088   17.4641   15.6474  H     
43   H        28.3608   17.5739   17.1584  H     
44   H        30.1944   16.0954   16.2073  H     
45   H        30.0124   17.6964   15.4789  H     
46   H        29.4284   16.2721   14.6041  H     
47   H        23.0960   15.9790   14.4009  H     
48   H        24.1668   14.7272   15.0172  H     
49   H        23.7212   14.7301   13.3091  H     
@<TRIPOS>BOND
     1    1    2 2
     2    1   12 1
     3    1   19 1
     4    2    3 1
     5    2    5 1
     6    3    7 1
     7    4   19 2
     8    5   13 am
     9    6   13 2
    10    7    8 1
    11    7   12 2
    12    8    9 1
    13    9   10 1
    14   10   11 1
    15   11   12 1
    16   11   25 1
    17   13   14 1
    18   14   15 2
    19   14   18 1
    20   15   16 1
    21   16   17 2
    22   17   18 1
    23   19   20 am
    24   20   21 1
    25   20   23 1
    26   21   22 1
    27   23   24 1
    28    5   26 1
    29    8   27 1
    30    8   28 1
    31    9   29 1
    32    9   30 1
    33   10   31 1
    34   10   32 1
    35   11   33 1
    36   15   34 1
    37   16   35 1
    38   17   36 1
    39   21   37 1
    40   21   38 1
    41   22   39 1
    42   22   40 1
    43   22   41 1
    44   23   42 1
    45   23   43 1
    46   24   44 1
    47   24   45 1
    48   24   46 1
    49   25   47 1
    50   25   48 1
    51   25   49 1
@<TRIPOS>PROPERTY_DATA
  Total_Score	| 4.6264
  Crash		| -2.2829
  Polar		| 0.0000
  FragIndex	| 1
  FragRMSD	| 1.059

