@<TRIPOS>MOLECULE
BindingDB_24167
 49 51 0 0 0
SMALL
NO_CHARGES


@<TRIPOS>ATOM
1    C        27.2285   14.8121   14.4105  C     
2    C        28.4445   14.2906   13.9413  C     
3    S        28.4393   14.5405   12.2417  S     
4    O        26.1461   13.5403   15.8035  O     
5    N        29.3636   13.6478   14.7082  N     
6    O        31.0994   13.7245   13.3259  O     
7    C        26.9097   15.3042   12.1259  C     
8    C        26.2475   15.8076   10.9058  C     
9    C        24.7376   16.1346   11.1379  C     
10   C        24.5454   16.8770   12.4799  C     
11   C        25.0660   16.0327   13.6700  C     
12   C        26.3962   15.4011   13.4252  C     
13   C        30.6267   13.3968   14.4066  C     
14   C        26.7610   14.5859   15.6728  C     
15   C        31.4637   12.7863   15.3263  C     
16   C        32.8554   12.5962   15.2319  C     
17   C        33.4507   11.9707   16.3447  C     
18   C        32.5575   11.6173   17.3582  C     
19   S        30.9905   12.1184   16.8443  S     
20   C        26.5459   15.1943   18.0400  C     
21   C        25.3035   12.8660   20.3889  C     
22   C        26.7948   13.7390   18.5567  C     
23   N        27.0072   15.3907   16.6904  N     
24   N        25.6086   12.8761   18.9144  N     
25   C        24.3586   13.0380   18.1026  C     
26   H        29.0784   13.3940   15.6023  H     
27   H        26.7697   16.7159   10.5746  H     
28   H        26.3292   15.0616   10.0998  H     
29   H        24.3636   16.7447   10.3102  H     
30   H        24.1553   15.2006   11.1477  H     
31   H        25.0823   17.8221   12.4319  H     
32   H        23.4838   17.1045   12.6225  H     
33   H        25.1442   16.6950   14.5349  H     
34   H        24.3428   15.2480   13.9091  H     
35   H        33.4112   12.9104   14.4336  H     
36   H        34.4558   11.7920   16.4055  H     
37   H        32.7918   11.1516   18.2484  H     
38   H        25.4987   15.4772   18.1287  H     
39   H        27.0909   15.8968   18.6842  H     
40   H        26.1737   12.4955   20.9307  H     
41   H        24.4616   12.1910   20.5984  H     
42   H        25.0574   13.8709   20.7563  H     
43   H        27.3767   13.1678   17.8023  H     
44   H        27.4604   13.8106   19.4281  H     
45   H        27.5348   16.1868   16.5152  H     
46   H        25.9122   11.9314   18.6853  H     
47   H        23.5918   12.3085   18.3789  H     
48   H        24.5532   12.8727   17.0413  H     
49   H        23.9381   14.0453   18.2077  H     
@<TRIPOS>BOND
     1    1    2 2
     2    1   12 1
     3    1   14 1
     4    2    3 1
     5    2    5 1
     6    3    7 1
     7    4   14 2
     8    5   13 am
     9    6   13 2
    10    7    8 1
    11    7   12 2
    12    8    9 1
    13    9   10 1
    14   10   11 1
    15   11   12 1
    16   13   15 1
    17   14   23 am
    18   15   16 2
    19   15   19 1
    20   16   17 1
    21   17   18 2
    22   18   19 1
    23   20   22 1
    24   20   23 1
    25   21   24 1
    26   22   24 1
    27   24   25 1
    28    5   26 1
    29    8   27 1
    30    8   28 1
    31    9   29 1
    32    9   30 1
    33   10   31 1
    34   10   32 1
    35   11   33 1
    36   11   34 1
    37   16   35 1
    38   17   36 1
    39   18   37 1
    40   20   38 1
    41   20   39 1
    42   21   40 1
    43   21   41 1
    44   21   42 1
    45   22   43 1
    46   22   44 1
    47   23   45 1
    48   24   46 1
    49   25   47 1
    50   25   48 1
    51   25   49 1
@<TRIPOS>PROPERTY_DATA
  Total_Score	| 5.4130
  Crash		| -1.7389
  Polar		| 1.5882
  FragIndex	| 1
  FragRMSD	| 0.975

