@<TRIPOS>MOLECULE
BindingDB_24170
 49 51 0 0 0
SMALL
NO_CHARGES


@<TRIPOS>ATOM
1    C        27.2702   14.5382   14.3270  C     
2    C        28.4680   13.8860   13.9796  C     
3    S        28.5093   13.7614   12.2620  S     
4    O        25.9942   14.1311   16.0502  O     
5    N        29.4066   13.3935   14.8347  N     
6    O        31.2280   13.8442   13.6387  O     
7    C        27.0199   14.5536   11.9711  C     
8    C        26.4361   14.8366   10.6481  C     
9    C        25.4488   16.0261   10.7218  C     
10   C        24.4570   15.8498   11.9087  C     
11   C        25.2051   15.6953   13.2762  C     
12   C        26.4661   14.9052   13.2122  C     
13   C        30.7164   13.3358   14.6286  C     
14   C        31.5411   12.7500   15.5692  C     
15   C        32.9449   12.7625   15.6125  C     
16   C        33.5172   12.0621   16.6880  C     
17   C        32.5937   11.4492   17.5322  C     
18   S        31.0311   11.8051   16.9155  S     
19   C        26.9420   14.7978   15.6489  C     
20   N        27.6602   15.5580   16.5050  N     
21   C        27.4967   15.3533   17.9464  C     
22   C        28.1368   14.0377   18.4507  C     
23   C        28.6055   16.6044   16.1033  C     
24   C        28.6158   17.1974   14.6663  C     
25   C        23.4314   17.0061   11.9530  C     
26   H        29.0890   13.1112   15.7071  H     
27   H        27.2272   15.0637    9.9326  H     
28   H        25.9143   13.9420   10.3031  H     
29   H        26.0155   16.9534   10.8481  H     
30   H        24.9004   16.0899    9.7775  H     
31   H        23.8967   14.9257   11.7301  H     
32   H        25.4587   16.6835   13.6707  H     
33   H        24.5204   15.2179   13.9811  H     
34   H        33.5189   13.2495   14.9207  H     
35   H        34.5253   12.0014   16.8378  H     
36   H        32.8022   10.8933   18.3622  H     
37   H        27.9543   16.1544   18.5343  H     
38   H        26.4347   15.3674   18.2087  H     
39   H        27.7478   13.1750   17.9093  H     
40   H        27.9235   13.9021   19.5127  H     
41   H        29.2191   14.0779   18.3174  H     
42   H        28.4208   17.4791   16.7363  H     
43   H        29.6169   16.2567   16.3352  H     
44   H        29.0656   16.5114   13.9421  H     
45   H        29.2073   18.1149   14.6502  H     
46   H        27.6003   17.4419   14.3503  H     
47   H        23.9411   17.9666   12.0304  H     
48   H        22.7833   16.8870   12.8193  H     
49   H        22.8127   17.0053   11.0528  H     
@<TRIPOS>BOND
     1    1    2 2
     2    1   12 1
     3    1   19 1
     4    2    3 1
     5    2    5 1
     6    3    7 1
     7    4   19 2
     8    5   13 am
     9    6   13 2
    10    7    8 1
    11    7   12 2
    12    8    9 1
    13    9   10 1
    14   10   11 1
    15   10   25 1
    16   11   12 1
    17   13   14 1
    18   14   15 2
    19   14   18 1
    20   15   16 1
    21   16   17 2
    22   17   18 1
    23   19   20 am
    24   20   21 1
    25   20   23 1
    26   21   22 1
    27   23   24 1
    28    5   26 1
    29    8   27 1
    30    8   28 1
    31    9   29 1
    32    9   30 1
    33   10   31 1
    34   11   32 1
    35   11   33 1
    36   15   34 1
    37   16   35 1
    38   17   36 1
    39   21   37 1
    40   21   38 1
    41   22   39 1
    42   22   40 1
    43   22   41 1
    44   23   42 1
    45   23   43 1
    46   24   44 1
    47   24   45 1
    48   24   46 1
    49   25   47 1
    50   25   48 1
    51   25   49 1
@<TRIPOS>PROPERTY_DATA
  Total_Score	| 4.6517
  Crash		| -2.5610
  Polar		| 0.0000
  FragIndex	| 1
  FragRMSD	| 1.107

