@<TRIPOS>MOLECULE
BindingDB_24177
 52 54 0 0 0
SMALL
NO_CHARGES


@<TRIPOS>ATOM
1    C        27.2903   14.5897   14.5768  C     
2    C        28.5647   14.2065   14.1162  C     
3    S        28.6768   14.7213   12.4739  S     
4    O        25.9460   13.4640   15.8687  O     
5    N        29.5128   13.5665   14.8619  N     
6    O        31.2709   13.7604   13.5042  O     
7    C        30.7953   13.3796   14.5669  C     
8    C        31.6616   12.8105   15.4825  C     
9    C        31.3955   12.3184   16.7739  C     
10   C        32.5173   11.8418   17.4755  C     
11   C        33.7190   11.9238   16.7674  C     
12   S        33.3601   12.6036   15.2315  S     
13   C        26.8456   14.3003   15.8597  C     
14   N        27.3293   14.8396   17.0026  N     
15   C        28.2782   15.9446   17.0133  C     
16   C        27.7004   17.2353   17.6418  C     
17   C        26.7862   14.4042   18.2964  C     
18   C        27.7855   14.3625   19.4718  C     
19   C        27.1252   15.4389   12.3703  C     
20   C        26.5030   15.2830   13.6139  C     
21   C        26.5457   16.0890   11.1802  C     
22   C        25.1199   15.8025   13.8352  C     
23   C        24.5258   16.5992   12.6263  C     
24   C        24.9878   16.0633   11.2339  C     
25   C        24.4243   14.6342   10.9431  C     
26   C        24.3422   14.2422    9.4496  C     
27   H        29.2367   13.2607   15.7370  H     
28   H        30.4627   12.3132   17.1928  H     
29   H        32.4721   11.4704   18.4280  H     
30   H        34.6474   11.6488   17.0920  H     
31   H        29.1896   15.6554   17.5386  H     
32   H        28.6251   16.2183   16.0031  H     
33   H        26.8138   17.5517   17.0762  H     
34   H        28.4610   18.0269   17.5987  H     
35   H        27.4279   17.0748   18.6922  H     
36   H        25.9585   15.0708   18.5714  H     
37   H        26.3712   13.3902   18.2453  H     
38   H        28.6637   13.7654   19.2102  H     
39   H        27.2987   13.9037   20.3583  H     
40   H        28.0917   15.3580   19.7716  H     
41   H        26.9004   17.1217   11.1435  H     
42   H        26.9024   15.5860   10.2805  H     
43   H        24.4618   14.9546   14.0464  H     
44   H        25.1183   16.4548   14.7158  H     
45   H        23.4310   16.5912   12.6879  H     
46   H        24.8361   17.6482   12.7190  H     
47   H        24.5996   16.7450   10.4695  H     
48   H        25.0323   13.8884   11.4595  H     
49   H        23.4163   14.5585   11.3515  H     
50   H        23.6114   14.8674    8.9338  H     
51   H        24.0252   13.1986    9.3675  H     
52   H        25.3117   14.3462    8.9533  H     
@<TRIPOS>BOND
     1    1    2 2
     2    1   13 1
     3    1   20 1
     4    2    3 1
     5    2    5 1
     6    3   19 1
     7    4   13 2
     8    5    7 am
     9    6    7 2
    10    7    8 1
    11    8    9 2
    12    8   12 1
    13    9   10 1
    14   10   11 2
    15   11   12 1
    16   13   14 am
    17   14   15 1
    18   14   17 1
    19   15   16 1
    20   17   18 1
    21   19   20 2
    22   19   21 1
    23   20   22 1
    24   21   24 1
    25   22   23 1
    26   23   24 1
    27   24   25 1
    28   25   26 1
    29    5   27 1
    30    9   28 1
    31   10   29 1
    32   11   30 1
    33   15   31 1
    34   15   32 1
    35   16   33 1
    36   16   34 1
    37   16   35 1
    38   17   36 1
    39   17   37 1
    40   18   38 1
    41   18   39 1
    42   18   40 1
    43   21   41 1
    44   21   42 1
    45   22   43 1
    46   22   44 1
    47   23   45 1
    48   23   46 1
    49   24   47 1
    50   25   48 1
    51   25   49 1
    52   26   50 1
    53   26   51 1
    54   26   52 1
@<TRIPOS>PROPERTY_DATA
  Total_Score	| 5.0320
  Crash		| -2.4163
  Polar		| 0.0000
  FragIndex	| 1
  FragRMSD	| 0.403

