@<TRIPOS>MOLECULE
BindingDB_24175
 52 54 0 0 0
SMALL
NO_CHARGES


@<TRIPOS>ATOM
1    C        27.2990   14.8241   14.5189  C     
2    C        28.4755   14.1794   14.0843  C     
3    S        28.5206   14.3314   12.3704  S     
4    O        25.9681   14.1995   16.1140  O     
5    N        29.4178   13.5916   14.8824  N     
6    O        31.1702   13.7435   13.5170  O     
7    C        30.6959   13.3780   14.5855  C     
8    C        31.5644   12.8108   15.4999  C     
9    C        31.2903   12.2461   16.7567  C     
10   C        32.4165   11.7658   17.4519  C     
11   C        33.6249   11.9259   16.7748  C     
12   S        33.2694   12.6758   15.2745  S     
13   C        26.9459   14.8971   15.8550  C     
14   N        27.6114   15.5540   16.8320  N     
15   C        27.3077   15.2337   18.2291  C     
16   C        27.8832   13.8653   18.6584  C     
17   C        28.6409   16.5773   16.6275  C     
18   C        28.8120   17.3390   15.2864  C     
19   C        27.0612   15.2101   12.1999  C     
20   C        26.5209   15.4012   13.4779  C     
21   C        26.5797   15.8059   10.9434  C     
22   C        25.2768   16.1973   13.6531  C     
23   C        24.9718   17.1337   12.4461  C     
24   C        25.0115   17.5216    9.9175  C     
25   C        25.1506   16.4484   11.0437  C     
26   C        24.0441   15.3682   10.8211  C     
27   H        29.1390   13.3712   15.7849  H     
28   H        30.3475   12.1786   17.1465  H     
29   H        32.3604   11.3398   18.3780  H     
30   H        34.5521   11.6542   17.1009  H     
31   H        27.7202   15.9695   18.9272  H     
32   H        26.2242   15.2449   18.3983  H     
33   H        27.4715   13.0645   18.0459  H     
34   H        27.6326   13.6690   19.7049  H     
35   H        28.9707   13.8692   18.5550  H     
36   H        28.4473   17.3858   17.3413  H     
37   H        29.6078   16.1399   16.8945  H     
38   H        29.3053   16.7214   14.5366  H     
39   H        29.4394   18.2218   15.4408  H     
40   H        27.8428   17.6716   14.9085  H     
41   H        27.3146   16.5712   10.6831  H     
42   H        26.6029   15.0478   10.1566  H     
43   H        24.4445   15.5094   13.8101  H     
44   H        25.3621   16.8206   14.5456  H     
45   H        23.9569   17.5315   12.5504  H     
46   H        25.6590   17.9824   12.5107  H     
47   H        25.7587   18.3106   10.0362  H     
48   H        24.0202   17.9816    9.9387  H     
49   H        25.1642   17.0707    8.9350  H     
50   H        24.1261   14.9187    9.8295  H     
51   H        23.0563   15.8245   10.9010  H     
52   H        24.1173   14.5673   11.5576  H     
@<TRIPOS>BOND
     1    1    2 2
     2    1   13 1
     3    1   20 1
     4    2    3 1
     5    2    5 1
     6    3   19 1
     7    4   13 2
     8    5    7 am
     9    6    7 2
    10    7    8 1
    11    8    9 2
    12    8   12 1
    13    9   10 1
    14   10   11 2
    15   11   12 1
    16   13   14 am
    17   14   15 1
    18   14   17 1
    19   15   16 1
    20   17   18 1
    21   19   20 2
    22   19   21 1
    23   20   22 1
    24   21   25 1
    25   22   23 1
    26   23   25 1
    27   24   25 1
    28   25   26 1
    29    5   27 1
    30    9   28 1
    31   10   29 1
    32   11   30 1
    33   15   31 1
    34   15   32 1
    35   16   33 1
    36   16   34 1
    37   16   35 1
    38   17   36 1
    39   17   37 1
    40   18   38 1
    41   18   39 1
    42   18   40 1
    43   21   41 1
    44   21   42 1
    45   22   43 1
    46   22   44 1
    47   23   45 1
    48   23   46 1
    49   24   47 1
    50   24   48 1
    51   24   49 1
    52   26   50 1
    53   26   51 1
    54   26   52 1
@<TRIPOS>PROPERTY_DATA
  Total_Score	| 5.7232
  Crash		| -2.6128
  Polar		| 0.0000
  FragIndex	| 1
  FragRMSD	| 0.555

