@<TRIPOS>MOLECULE
BindingDB_24165
 47 50 0 0 0
SMALL
NO_CHARGES


@<TRIPOS>ATOM
1    C        27.3590   14.5070   14.3618  C     
2    C        28.5528   14.0794   13.7392  C     
3    S        28.4179   14.4292   12.0646  S     
4    O        26.2631   13.6577   16.0643  O     
5    N        29.6887   13.5467   14.2669  N     
6    O        28.7663   12.0744   15.6331  O     
7    C        26.8351   15.0892   12.1278  C     
8    C        26.0790   15.6362   10.9845  C     
9    C        24.5923   15.9179   11.3499  C     
10   C        24.4598   16.5673   12.7511  C     
11   C        25.1182   15.6991   13.8635  C     
12   C        26.4173   15.0841   13.4682  C     
13   C        29.7657   12.6602   15.2499  C     
14   C        27.1608   14.4264   15.7368  C     
15   C        30.9742   12.3784   15.8592  C     
16   C        31.1862   11.5434   16.9688  C     
17   C        32.5106   11.4911   17.4375  C     
18   C        33.4022   12.2861   16.7208  C     
19   S        32.5057   13.0674   15.4808  S     
20   C        28.7748   16.1770   16.3604  C     
21   C        27.9076   14.6438   18.0653  C     
22   C        27.4492   15.8187   18.9672  C     
23   C        28.2848   17.0931   18.6943  C     
24   C        28.3144   17.4094   17.1798  C     
25   N        27.9303   15.0311   16.6636  N     
26   H        30.5243   13.8471   13.8798  H     
27   H        26.5710   16.5578   10.6598  H     
28   H        26.1133   14.9223   10.1581  H     
29   H        24.1455   16.5767   10.5959  H     
30   H        24.0293   14.9765   11.3507  H     
31   H        24.9388   17.5512   12.7274  H     
32   H        23.4017   16.7128   12.9834  H     
33   H        25.2762   16.3422   14.7325  H     
34   H        24.4358   14.8971   14.1552  H     
35   H        30.4352   11.0149   17.4213  H     
36   H        32.7919   10.9315   18.2454  H     
37   H        34.3985   12.3983   16.9089  H     
38   H        28.7540   16.4711   15.3100  H     
39   H        29.8157   15.9393   16.5989  H     
40   H        28.9150   14.3449   18.3616  H     
41   H        27.2641   13.7851   18.2697  H     
42   H        26.3940   16.0338   18.7757  H     
43   H        27.5504   15.5306   20.0177  H     
44   H        27.8580   17.9352   19.2418  H     
45   H        29.3077   16.9463   19.0472  H     
46   H        28.9861   18.2508   16.9944  H     
47   H        27.3152   17.7030   16.8510  H     
@<TRIPOS>BOND
     1    1    2 2
     2    1   12 1
     3    1   14 1
     4    2    3 1
     5    2    5 1
     6    3    7 1
     7    4   14 2
     8    5   13 am
     9    6   13 2
    10    7    8 1
    11    7   12 2
    12    8    9 1
    13    9   10 1
    14   10   11 1
    15   11   12 1
    16   13   15 1
    17   14   25 am
    18   15   16 2
    19   15   19 1
    20   16   17 1
    21   17   18 2
    22   18   19 1
    23   20   24 1
    24   20   25 1
    25   21   22 1
    26   21   25 1
    27   22   23 1
    28   23   24 1
    29    5   26 1
    30    8   27 1
    31    8   28 1
    32    9   29 1
    33    9   30 1
    34   10   31 1
    35   10   32 1
    36   11   33 1
    37   11   34 1
    38   16   35 1
    39   17   36 1
    40   18   37 1
    41   20   38 1
    42   20   39 1
    43   21   40 1
    44   21   41 1
    45   22   42 1
    46   22   43 1
    47   23   44 1
    48   23   45 1
    49   24   46 1
    50   24   47 1
@<TRIPOS>PROPERTY_DATA
  Total_Score	| 5.2935
  Crash		| -0.7839
  Polar		| 0.0000
  FragIndex	| 1
  FragRMSD	| 1.099

