@<TRIPOS>MOLECULE
BindingDB_24163
 40 42 0 0 0
SMALL
NO_CHARGES


@<TRIPOS>ATOM
1    C        27.4103   14.6277   14.3807  C     
2    C        28.5812   14.1599   13.7462  C     
3    S        28.4597   14.5425   12.0779  S     
4    O        26.2159   13.8091   16.0316  O     
5    N        29.6923   13.5507   14.2416  N     
6    O        28.7253   12.1550   15.6598  O     
7    C        26.9087   15.2670   12.1554  C     
8    C        26.1667   15.8488   11.0201  C     
9    C        24.6883   16.1538   11.3877  C     
10   C        24.5811   16.7831   12.8005  C     
11   C        25.1859   15.8479   13.8872  C     
12   C        26.4874   15.2427   13.4951  C     
13   C        29.7493   12.6820   15.2409  C     
14   C        27.1851   14.5018   15.7505  C     
15   C        30.9600   12.3731   15.8317  C     
16   C        31.1551   11.6113   16.9982  C     
17   C        32.4897   11.5023   17.4214  C     
18   C        33.4082   12.1690   16.6084  C     
19   S        32.5242   12.9205   15.3418  S     
20   N        27.9335   15.0471   16.7291  N     
21   C        27.6820   14.6828   18.1103  C     
22   C        28.9330   16.0572   16.4430  C     
23   H        30.5366   13.8029   13.8362  H     
24   H        26.6768   16.7679   10.7164  H     
25   H        26.1848   15.1463   10.1823  H     
26   H        24.2542   16.8259   10.6454  H     
27   H        24.1116   15.2226   11.3812  H     
28   H        25.1234   17.7371   12.8055  H     
29   H        23.5308   16.9878   13.0365  H     
30   H        25.3157   16.4392   14.7942  H     
31   H        24.4800   15.0415   14.1009  H     
32   H        30.3859   11.1736   17.5096  H     
33   H        32.7715   10.9900   18.2580  H     
34   H        34.4195   12.2221   16.7533  H     
35   H        26.6667   14.9612   18.3894  H     
36   H        28.3609   15.1624   18.8158  H     
37   H        27.7975   13.6036   18.2391  H     
38   H        29.7664   15.6242   15.8952  H     
39   H        29.3491   16.5219   17.3386  H     
40   H        28.4947   16.8587   15.8438  H     
@<TRIPOS>BOND
     1    1    2 2
     2    1   12 1
     3    1   14 1
     4    2    3 1
     5    2    5 1
     6    3    7 1
     7    4   14 2
     8    5   13 am
     9    6   13 2
    10    7    8 1
    11    7   12 2
    12    8    9 1
    13    9   10 1
    14   10   11 1
    15   11   12 1
    16   13   15 1
    17   14   20 am
    18   15   16 2
    19   15   19 1
    20   16   17 1
    21   17   18 2
    22   18   19 1
    23   20   21 1
    24   20   22 1
    25    5   23 1
    26    8   24 1
    27    8   25 1
    28    9   26 1
    29    9   27 1
    30   10   28 1
    31   10   29 1
    32   11   30 1
    33   11   31 1
    34   16   32 1
    35   17   33 1
    36   18   34 1
    37   21   35 1
    38   21   36 1
    39   21   37 1
    40   22   38 1
    41   22   39 1
    42   22   40 1
@<TRIPOS>PROPERTY_DATA
  Total_Score	| 4.1138
  Crash		| -0.8367
  Polar		| 0.0000
  FragIndex	| 1
  FragRMSD	| 1.031

