@<TRIPOS>MOLECULE
BindingDB_24153
 49 51 0 0 0
SMALL
NO_CHARGES


@<TRIPOS>ATOM
1    C        27.3042   14.5538   14.1360  C     
2    C        28.5169   14.0629   13.6005  C     
3    S        28.3915   14.1456   11.8935  S     
4    O        26.1550   13.8454   15.8442  O     
5    N        29.6539   13.5808   14.1769  N     
6    C        27.0575   14.6032   15.5042  C     
7    N        27.7340   15.3238   16.4258  N     
8    C        27.4139   15.2062   17.8446  C     
9    C        28.0742   13.9690   18.4851  C     
10   C        28.7888   16.2651   16.0690  C     
11   C        28.2516   17.6153   15.5568  C     
12   C        29.7409   12.7534   15.2101  C     
13   O        28.7397   12.2034   15.6523  O     
14   C        30.9648   12.4666   15.7915  C     
15   C        31.1929   11.6697   16.9241  C     
16   C        32.5319   11.5903   17.3457  C     
17   C        33.4220   12.3229   16.5626  C     
18   S        32.5052   13.0855   15.3260  S     
19   C        26.3463   14.9434   13.1500  C     
20   C        26.7946   14.7688   11.8269  C     
21   C        26.0714   15.0322   10.5659  C     
22   C        25.6615   16.5200   10.4057  C     
23   C        24.4604   16.9401   11.2936  C     
24   C        24.7284   16.9088   12.8221  C     
25   C        24.9852   15.4977   13.4218  C     
26   H        30.4920   13.8385   13.7560  H     
27   H        27.7393   16.1002   18.3782  H     
28   H        26.3420   15.1390   18.0287  H     
29   H        27.7483   13.0605   17.9785  H     
30   H        27.7876   13.9019   19.5380  H     
31   H        29.1611   14.0359   18.4185  H     
32   H        29.4297   16.4977   16.9231  H     
33   H        29.4528   15.8398   15.3221  H     
34   H        27.7299   17.4916   14.6125  H     
35   H        29.0755   18.3145   15.4023  H     
36   H        27.5668   18.0402   16.2888  H     
37   H        30.4428   11.1794   17.4178  H     
38   H        32.8285   11.0463   18.1583  H     
39   H        34.4303   12.3994   16.7013  H     
40   H        26.7056   14.7573    9.7185  H     
41   H        25.1833   14.3922   10.5236  H     
42   H        26.5201   17.1694   10.6116  H     
43   H        25.3756   16.6806    9.3618  H     
44   H        24.1860   17.9640   11.0202  H     
45   H        23.5978   16.3051   11.0606  H     
46   H        25.5658   17.5713   13.0606  H     
47   H        23.8417   17.3211   13.3121  H     
48   H        24.2404   14.8070   13.0233  H     
49   H        24.8069   15.5690   14.4955  H     
@<TRIPOS>BOND
     1    1    2 2
     2    1    6 1
     3    1   19 1
     4    2    3 1
     5    2    5 1
     6    3   20 1
     7    4    6 2
     8    5   12 am
     9    6    7 am
    10    7    8 1
    11    7   10 1
    12    8    9 1
    13   10   11 1
    14   12   13 2
    15   12   14 1
    16   14   15 2
    17   14   18 1
    18   15   16 1
    19   16   17 2
    20   17   18 1
    21   19   20 2
    22   19   25 1
    23   20   21 1
    24   21   22 1
    25   22   23 1
    26   23   24 1
    27   24   25 1
    28    5   26 1
    29    8   27 1
    30    8   28 1
    31    9   29 1
    32    9   30 1
    33    9   31 1
    34   10   32 1
    35   10   33 1
    36   11   34 1
    37   11   35 1
    38   11   36 1
    39   15   37 1
    40   16   38 1
    41   17   39 1
    42   21   40 1
    43   21   41 1
    44   22   42 1
    45   22   43 1
    46   23   44 1
    47   23   45 1
    48   24   46 1
    49   24   47 1
    50   25   48 1
    51   25   49 1
@<TRIPOS>PROPERTY_DATA
  Total_Score	| 5.6768
  Crash		| -1.2147
  Polar		| 0.0000
  FragIndex	| 1
  FragRMSD	| 1.084

