@<TRIPOS>MOLECULE
BindingDB_24164
 44 47 0 0 0
SMALL
NO_CHARGES


@<TRIPOS>ATOM
1    C        27.1335   14.5685   14.4045  C     
2    C        28.4056   14.1918   13.9337  C     
3    S        28.5078   14.7160   12.3004  S     
4    O        25.7429   13.5118   15.7652  O     
5    N        29.3488   13.5300   14.6672  N     
6    O        31.1330   13.7300   13.3425  O     
7    C        26.9494   15.4237   12.2145  C     
8    C        26.3870   16.1210   11.0358  C     
9    C        25.0800   16.8853   11.3775  C     
10   C        24.1813   16.0864   12.3636  C     
11   C        24.9362   15.7460   13.6764  C     
12   C        26.3175   15.2242   13.4500  C     
13   C        30.6346   13.3451   14.3955  C     
14   C        26.7099   14.2594   15.6908  C     
15   C        31.4589   12.7585   15.3369  C     
16   C        32.8559   12.5921   15.2788  C     
17   C        33.4329   11.9800   16.4039  C     
18   C        32.5266   11.6227   17.4012  C     
19   S        30.9683   12.0935   16.8504  S     
20   C        28.4143   15.5929   16.8607  C     
21   C        26.9730   14.1608   18.1110  C     
22   C        28.1255   14.5716   19.0364  C     
23   C        28.6752   15.8363   18.3584  C     
24   N        27.3427   14.6378   16.8107  N     
25   H        29.0576   13.2126   15.5310  H     
26   H        27.1227   16.8370   10.6616  H     
27   H        26.1970   15.3816   10.2538  H     
28   H        25.3363   17.8456   11.8375  H     
29   H        24.5239   17.0931   10.4594  H     
30   H        23.2891   16.6692   12.5957  H     
31   H        23.8633   15.1583   11.8782  H     
32   H        25.0045   16.6403   14.3032  H     
33   H        24.3447   15.0040   14.2237  H     
34   H        33.4208   12.9005   14.4853  H     
35   H        34.4403   11.8124   16.4940  H     
36   H        32.7425   11.1730   18.2864  H     
37   H        28.1287   16.5337   16.3767  H     
38   H        29.3152   15.2046   16.3790  H     
39   H        26.8576   13.0722   18.1338  H     
40   H        26.0331   14.6317   18.4226  H     
41   H        27.7749   14.7694   20.0523  H     
42   H        28.8876   13.7833   19.0617  H     
43   H        29.7364   16.0007   18.5738  H     
44   H        28.1006   16.7045   18.6943  H     
@<TRIPOS>BOND
     1    1    2 2
     2    1   12 1
     3    1   14 1
     4    2    3 1
     5    2    5 1
     6    3    7 1
     7    4   14 2
     8    5   13 am
     9    6   13 2
    10    7    8 1
    11    7   12 2
    12    8    9 1
    13    9   10 1
    14   10   11 1
    15   11   12 1
    16   13   15 1
    17   14   24 1
    18   15   16 2
    19   15   19 1
    20   16   17 1
    21   17   18 2
    22   18   19 1
    23   20   23 1
    24   20   24 1
    25   21   22 1
    26   21   24 1
    27   22   23 1
    28    5   25 1
    29    8   26 1
    30    8   27 1
    31    9   28 1
    32    9   29 1
    33   10   30 1
    34   10   31 1
    35   11   32 1
    36   11   33 1
    37   16   34 1
    38   17   35 1
    39   18   36 1
    40   20   37 1
    41   20   38 1
    42   21   39 1
    43   21   40 1
    44   22   41 1
    45   22   42 1
    46   23   43 1
    47   23   44 1
@<TRIPOS>PROPERTY_DATA
  Total_Score	| 4.6322
  Crash		| -1.7162
  Polar		| 0.0000
  FragIndex	| 1
  FragRMSD	| 0.894

