@<TRIPOS>MOLECULE
BindingDB_24176
 52 54 0 0 0
SMALL
NO_CHARGES


@<TRIPOS>ATOM
1    C        27.8394   14.8044   13.9143  C     
2    C        28.6225   13.6675   13.6262  C     
3    S        28.1056   13.0406   12.1147  S     
4    O        28.2689   16.7660   14.7439  O     
5    N        29.6120   13.0696   14.3355  N     
6    O        31.0123   14.7863   14.4102  O     
7    C        30.7276   13.6468   14.7560  C     
8    C        31.5877   12.9790   15.6062  C     
9    C        31.3853   11.7638   16.2791  C     
10   C        32.4059   11.3995   17.1764  C     
11   C        33.4617   12.3060   17.2472  C     
12   S        33.1009   13.5837   16.1646  S     
13   C        28.0199   15.6029   15.0384  C     
14   N        27.9567   15.2331   16.3367  N     
15   C        27.7070   13.8622   16.7581  C     
16   C        28.8245   13.3130   17.6798  C     
17   C        28.0995   16.2345   17.3917  C     
18   C        27.1222   17.4219   17.2327  C     
19   C        26.8909   14.2140   11.8243  C     
20   C        26.8814   15.1045   12.9081  C     
21   C        26.0124   14.2775   10.6441  C     
22   C        25.8623   16.1861   12.9843  C     
23   C        25.0645   16.4376   11.6600  C     
24   C        24.7310   15.0976   10.9368  C     
25   C        23.7985   17.2967   11.9465  C     
26   C        22.9828   17.6836   10.6936  C     
27   H        29.5254   12.1117   14.4752  H     
28   H        30.5463   11.1936   16.1594  H     
29   H        32.3730   10.5526   17.7442  H     
30   H        34.2866   12.2433   17.8416  H     
31   H        26.7522   13.8159   17.2897  H     
32   H        27.6085   13.1748   15.9157  H     
33   H        29.7971   13.6974   17.3744  H     
34   H        28.8518   12.2250   17.6223  H     
35   H        28.6525   13.5992   18.7193  H     
36   H        27.9126   15.8164   18.3849  H     
37   H        29.1274   16.6079   17.4144  H     
38   H        27.3025   17.9535   16.3017  H     
39   H        27.2530   18.1226   18.0576  H     
40   H        26.0930   17.0633   17.2411  H     
41   H        26.5701   14.7334    9.8219  H     
42   H        25.7268   13.2688   10.3406  H     
43   H        25.1744   15.9182   13.7903  H     
44   H        26.3527   17.1227   13.2601  H     
45   H        25.7141   17.0165   10.9929  H     
46   H        24.2283   15.2871    9.9854  H     
47   H        24.0551   14.5066   11.5617  H     
48   H        23.1445   16.7631   12.6405  H     
49   H        24.1174   18.2168   12.4340  H     
50   H        23.6408   18.0416    9.9002  H     
51   H        22.2724   18.4737   10.9318  H     
52   H        22.4219   16.8198   10.3375  H     
@<TRIPOS>BOND
     1    1    2 2
     2    1   13 1
     3    1   20 1
     4    2    3 1
     5    2    5 1
     6    3   19 1
     7    4   13 2
     8    5    7 am
     9    6    7 2
    10    7    8 1
    11    8    9 2
    12    8   12 1
    13    9   10 1
    14   10   11 2
    15   11   12 1
    16   13   14 am
    17   14   15 1
    18   14   17 1
    19   15   16 1
    20   17   18 1
    21   19   20 2
    22   19   21 1
    23   20   22 1
    24   21   24 1
    25   22   23 1
    26   23   24 1
    27   23   25 1
    28   25   26 1
    29    5   27 1
    30    9   28 1
    31   10   29 1
    32   11   30 1
    33   15   31 1
    34   15   32 1
    35   16   33 1
    36   16   34 1
    37   16   35 1
    38   17   36 1
    39   17   37 1
    40   18   38 1
    41   18   39 1
    42   18   40 1
    43   21   41 1
    44   21   42 1
    45   22   43 1
    46   22   44 1
    47   23   45 1
    48   24   46 1
    49   24   47 1
    50   25   48 1
    51   25   49 1
    52   26   50 1
    53   26   51 1
    54   26   52 1
@<TRIPOS>PROPERTY_DATA
  Total_Score	| 4.4989
  Crash		| -4.6663
  Polar		| 0.4189
  FragIndex	| 1
  FragRMSD	| 1.490

