@<TRIPOS>MOLECULE
BindingDB_24151
 43 45 0 0 0
SMALL
NO_CHARGES


@<TRIPOS>ATOM
1    C        27.2961   14.5941   14.3229  C     
2    C        28.4792   14.0919   13.7281  C     
3    S        28.3384   14.2978   12.0233  S     
4    O        26.1225   13.9815   16.0477  O     
5    N        29.6255   13.5916   14.2710  N     
6    C        27.0569   14.6869   15.6871  C     
7    N        27.7736   15.4118   16.5766  N     
8    C        28.7705   16.4013   16.1530  C     
9    C        28.4855   17.8529   16.6114  C     
10   C        27.5647   15.2328   18.0158  C     
11   C        28.0571   13.8628   18.5320  C     
12   C        29.7451   12.8148   15.3377  C     
13   O        28.7547   12.3354   15.8759  O     
14   C        30.9929   12.5007   15.8466  C     
15   C        31.2689   11.7098   16.9742  C     
16   C        32.6297   11.5769   17.2986  C     
17   C        33.4918   12.2596   16.4420  C     
18   S        32.5217   13.0416   15.2590  S     
19   C        26.7666   14.9803   12.0563  C     
20   C        25.8230   15.5309   11.0972  C     
21   C        24.6239   15.9153   12.0064  C     
22   C        25.0757   15.7526   13.4848  C     
23   C        26.3656   15.0700   13.3717  C     
24   H        30.4446   13.7919   13.7905  H     
25   H        29.7576   16.1031   16.5154  H     
26   H        28.8632   16.4651   15.0673  H     
27   H        27.4533   18.1255   16.3857  H     
28   H        29.1510   18.5456   16.0915  H     
29   H        28.6614   17.9618   17.6820  H     
30   H        28.0714   16.0244   18.5712  H     
31   H        26.5153   15.3061   18.3158  H     
32   H        27.6233   13.0524   17.9409  H     
33   H        27.7631   13.7320   19.5770  H     
34   H        29.1455   13.8063   18.4659  H     
35   H        30.5381   11.2569   17.5278  H     
36   H        32.9595   11.0263   18.0938  H     
37   H        34.5099   12.2927   16.5044  H     
38   H        26.2574   16.4056   10.6070  H     
39   H        25.5475   14.7794   10.3528  H     
40   H        24.3002   16.9412   11.8104  H     
41   H        23.7824   15.2462   11.8040  H     
42   H        25.2126   16.7243   13.9662  H     
43   H        24.3622   15.1568   14.0555  H     
@<TRIPOS>BOND
     1    1    2 2
     2    1    6 1
     3    1   23 1
     4    2    3 1
     5    2    5 1
     6    3   19 1
     7    4    6 2
     8    5   12 am
     9    6    7 am
    10    7    8 1
    11    7   10 1
    12    8    9 1
    13   10   11 1
    14   12   13 2
    15   12   14 1
    16   14   15 2
    17   14   18 1
    18   15   16 1
    19   16   17 2
    20   17   18 1
    21   19   20 1
    22   19   23 2
    23   20   21 1
    24   21   22 1
    25   22   23 1
    26    5   24 1
    27    8   25 1
    28    8   26 1
    29    9   27 1
    30    9   28 1
    31    9   29 1
    32   10   30 1
    33   10   31 1
    34   11   32 1
    35   11   33 1
    36   11   34 1
    37   15   35 1
    38   16   36 1
    39   17   37 1
    40   20   38 1
    41   20   39 1
    42   21   40 1
    43   21   41 1
    44   22   42 1
    45   22   43 1
@<TRIPOS>PROPERTY_DATA
  Total_Score	| 4.1044
  Crash		| -0.8395
  Polar		| 0.0000
  FragIndex	| 1
  FragRMSD	| 1.056

