@<TRIPOS>MOLECULE
BindingDB_24171
 49 51 0 0 0
SMALL
NO_CHARGES


@<TRIPOS>ATOM
1    C        27.0542   14.5792   14.3498  C     
2    C        28.2776   14.0549   13.8899  C     
3    S        28.4174   14.5143   12.2329  S     
4    O        26.1492   13.4603   15.9571  O     
5    N        29.1959   13.3839   14.6485  N     
6    O        31.0437   13.8251   13.4736  O     
7    C        26.9304   15.3596   12.1306  C     
8    C        26.4629   16.1459   10.9753  C     
9    C        24.9724   16.6071   11.0989  C     
10   C        24.6422   17.0355   12.5645  C     
11   C        24.9936   15.9535   13.6218  C     
12   C        26.3024   15.2876   13.3845  C     
13   C        30.5088   13.3040   14.4466  C     
14   C        31.3281   12.7305   15.4108  C     
15   C        32.7317   12.7062   15.4247  C     
16   C        33.3193   12.0587   16.5245  C     
17   C        32.4016   11.5593   17.4448  C     
18   S        30.8334   11.9116   16.8417  S     
19   C        26.7296   14.5066   15.6796  C     
20   N        27.0934   15.4370   16.5952  N     
21   C        26.7769   15.2285   18.0021  C     
22   C        27.9612   14.6394   18.8091  C     
23   C        27.7212   16.7142   16.2225  C     
24   C        29.2439   16.6832   15.9191  C     
25   C        23.9840   15.5327   10.5542  C     
26   H        28.8632   13.0323   15.4899  H     
27   H        27.1005   17.0325   10.9250  H     
28   H        26.6128   15.5641   10.0578  H     
29   H        24.8527   17.4839   10.4514  H     
30   H        25.2196   17.9375   12.7907  H     
31   H        23.5840   17.2996   12.6466  H     
32   H        24.9925   16.4317   14.6043  H     
33   H        24.2192   15.1894   13.6290  H     
34   H        33.2996   13.1245   14.6873  H     
35   H        34.3322   11.9678   16.6450  H     
36   H        32.6298   11.0674   18.3085  H     
37   H        26.4689   16.1825   18.4526  H     
38   H        25.9341   14.5458   18.1558  H     
39   H        28.3614   13.7539   18.2977  H     
40   H        27.6281   14.3473   19.8101  H     
41   H        28.7615   15.3852   18.8959  H     
42   H        27.2074   17.1156   15.3495  H     
43   H        27.5919   17.4604   17.0164  H     
44   H        29.7691   16.1251   16.7010  H     
45   H        29.6310   17.7033   15.9229  H     
46   H        29.4781   16.2493   14.9308  H     
47   H        24.1996   15.3159    9.5038  H     
48   H        22.9617   15.9151   10.6211  H     
49   H        24.0510   14.6076   11.1241  H     
@<TRIPOS>BOND
     1    1    2 2
     2    1   12 1
     3    1   19 1
     4    2    3 1
     5    2    5 1
     6    3    7 1
     7    4   19 2
     8    5   13 am
     9    6   13 2
    10    7    8 1
    11    7   12 2
    12    8    9 1
    13    9   10 1
    14    9   25 1
    15   10   11 1
    16   11   12 1
    17   13   14 1
    18   14   15 2
    19   14   18 1
    20   15   16 1
    21   16   17 2
    22   17   18 1
    23   19   20 am
    24   20   21 1
    25   20   23 1
    26   21   22 1
    27   23   24 1
    28    5   26 1
    29    8   27 1
    30    8   28 1
    31    9   29 1
    32   10   30 1
    33   10   31 1
    34   11   32 1
    35   11   33 1
    36   15   34 1
    37   16   35 1
    38   17   36 1
    39   21   37 1
    40   21   38 1
    41   22   39 1
    42   22   40 1
    43   22   41 1
    44   23   42 1
    45   23   43 1
    46   24   44 1
    47   24   45 1
    48   24   46 1
    49   25   47 1
    50   25   48 1
    51   25   49 1
@<TRIPOS>PROPERTY_DATA
  Total_Score	| 5.5558
  Crash		| -1.4780
  Polar		| 0.0000
  FragIndex	| 1
  FragRMSD	| 1.004

