@<TRIPOS>MOLECULE
BindingDB_24152
 46 48 0 0 0
SMALL
NO_CHARGES


@<TRIPOS>ATOM
1    C        27.1669   14.5503   14.5273  C     
2    C        28.4529   14.2075   14.0622  C     
3    S        28.5560   14.7628   12.4355  S     
4    O        25.9631   13.2797   15.8225  O     
5    N        29.3994   13.5641   14.7952  N     
6    C        26.7361   14.2330   15.8007  C     
7    N        27.1219   14.8515   16.9415  N     
8    C        28.0021   16.0235   16.9277  C     
9    C        27.2469   17.3732   17.0403  C     
10   C        26.6655   14.3804   18.2509  C     
11   C        27.7717   14.2609   19.3254  C     
12   C        30.6831   13.3791   14.5146  C     
13   O        31.1789   13.7852   13.4689  O     
14   C        31.5076   12.7507   15.4237  C     
15   C        32.9037   12.5795   15.3579  C     
16   C        33.4896   11.9306   16.4548  C     
17   C        32.5809   11.5452   17.4470  C     
18   S        31.0216   12.0399   16.9213  S     
19   C        26.9868   15.4442   12.3472  C     
20   C        26.3471   15.2045   13.5762  C     
21   C        26.4164   16.1466   11.1794  C     
22   C        25.0892   16.8748   11.5232  C     
23   C        24.2023   16.0365   12.4783  C     
24   C        24.9525   15.6857   13.7974  C     
25   H        29.1074   13.2250   15.6537  H     
26   H        28.7165   15.9515   17.7544  H     
27   H        28.6026   16.0895   16.0152  H     
28   H        26.4529   17.4361   16.2915  H     
29   H        27.9354   18.2100   16.8812  H     
30   H        26.8093   17.4918   18.0329  H     
31   H        25.8911   15.0646   18.6135  H     
32   H        26.1826   13.3973   18.2034  H     
33   H        28.6385   13.7147   18.9372  H     
34   H        27.3892   13.7315   20.2104  H     
35   H        28.0881   15.2562   19.6437  H     
36   H        33.4673   12.9122   14.5705  H     
37   H        34.4893   11.7580   16.5369  H     
38   H        32.8017   11.0665   18.3219  H     
39   H        27.1454   16.8792   10.8174  H     
40   H        26.2477   15.4101   10.3876  H     
41   H        25.3171   17.8310   12.0032  H     
42   H        24.5398   17.0844   10.6036  H     
43   H        23.2910   16.5879   12.7173  H     
44   H        23.9139   15.1074   11.9779  H     
45   H        24.3762   14.9166   14.3167  H     
46   H        24.9913   16.5690   14.4416  H     
@<TRIPOS>BOND
     1    1    2 2
     2    1    6 1
     3    1   20 1
     4    2    3 1
     5    2    5 1
     6    3   19 1
     7    4    6 2
     8    5   12 am
     9    6    7 am
    10    7    8 1
    11    7   10 1
    12    8    9 1
    13   10   11 1
    14   12   13 2
    15   12   14 1
    16   14   15 2
    17   14   18 1
    18   15   16 1
    19   16   17 2
    20   17   18 1
    21   19   20 2
    22   19   21 1
    23   20   24 1
    24   21   22 1
    25   22   23 1
    26   23   24 1
    27    5   25 1
    28    8   26 1
    29    8   27 1
    30    9   28 1
    31    9   29 1
    32    9   30 1
    33   10   31 1
    34   10   32 1
    35   11   33 1
    36   11   34 1
    37   11   35 1
    38   15   36 1
    39   16   37 1
    40   17   38 1
    41   21   39 1
    42   21   40 1
    43   22   41 1
    44   22   42 1
    45   23   43 1
    46   23   44 1
    47   24   45 1
    48   24   46 1
@<TRIPOS>PROPERTY_DATA
  Total_Score	| 4.4889
  Crash		| -1.5219
  Polar		| 0.0000
  FragIndex	| 1
  FragRMSD	| 0.873

