@<TRIPOS>MOLECULE
BindingDB_24174
 52 54 0 0 0
SMALL
NO_CHARGES


@<TRIPOS>ATOM
1    C        27.3029   14.8187   14.1893  C     
2    C        28.3703   13.9470   13.8919  C     
3    S        28.2040   13.4483   12.2531  S     
4    O        28.2171   16.2439   15.5738  O     
5    N        29.3625   13.5526   14.7473  N     
6    O        31.0408   13.5513   13.3077  O     
7    C        30.6299   13.3107   14.4339  C     
8    C        31.5364   12.8490   15.3750  C     
9    C        31.3020   12.3879   16.6822  C     
10   C        32.4486   11.9694   17.3859  C     
11   C        33.6378   12.0792   16.6654  C     
12   S        33.2357   12.7077   15.1190  S     
13   C        27.2643   15.4874   15.4124  C     
14   N        26.4262   15.2403   16.4441  N     
15   C        26.6901   15.7849   17.7760  C     
16   C        26.3006   17.2736   17.9217  C     
17   C        25.3144   14.3133   16.3269  C     
18   C        25.7557   12.8579   16.5985  C     
19   C        26.7820   14.3445   11.9235  C     
20   C        26.4358   15.0545   13.0843  C     
21   C        26.1292   14.4252   10.6013  C     
22   C        24.8501   15.3046   10.6056  C     
23   C        25.2653   15.9696   13.0327  C     
24   C        23.5516   17.2435   11.6068  C     
25   C        24.9325   16.5187   11.5946  C     
26   C        26.0184   17.5413   11.1191  C     
27   H        29.1264   13.4908   15.6835  H     
28   H        30.3673   12.3466   17.0979  H     
29   H        32.4241   11.6278   18.3469  H     
30   H        34.5740   11.8433   16.9949  H     
31   H        26.1475   15.2430   18.5574  H     
32   H        27.7497   15.6693   18.0255  H     
33   H        26.9460   17.9058   17.3021  H     
34   H        26.3996   17.5859   18.9658  H     
35   H        25.2608   17.4233   17.6091  H     
36   H        24.5139   14.5693   17.0265  H     
37   H        24.8416   14.3669   15.3498  H     
38   H        26.5653   12.5621   15.9277  H     
39   H        24.9141   12.1822   16.4414  H     
40   H        26.0991   12.7582   17.6296  H     
41   H        26.8495   14.8416    9.8931  H     
42   H        25.8715   13.4182   10.2634  H     
43   H        24.6543   15.6582    9.5891  H     
44   H        24.0034   14.6705   10.8924  H     
45   H        24.4116   15.3794   13.3741  H     
46   H        25.4074   16.8010   13.7336  H     
47   H        23.3099   17.6636   10.6266  H     
48   H        23.5524   18.0546   12.3378  H     
49   H        22.7586   16.5475   11.8781  H     
50   H        27.0166   17.1030   11.1225  H     
51   H        26.0296   18.4057   11.7871  H     
52   H        25.8068   17.8930   10.1025  H     
@<TRIPOS>BOND
     1    1    2 2
     2    1   13 1
     3    1   20 1
     4    2    3 1
     5    2    5 1
     6    3   19 1
     7    4   13 2
     8    5    7 am
     9    6    7 2
    10    7    8 1
    11    8    9 2
    12    8   12 1
    13    9   10 1
    14   10   11 2
    15   11   12 1
    16   13   14 am
    17   14   15 1
    18   14   17 1
    19   15   16 1
    20   17   18 1
    21   19   20 2
    22   19   21 1
    23   20   23 1
    24   21   22 1
    25   22   25 1
    26   23   25 1
    27   24   25 1
    28   25   26 1
    29    5   27 1
    30    9   28 1
    31   10   29 1
    32   11   30 1
    33   15   31 1
    34   15   32 1
    35   16   33 1
    36   16   34 1
    37   16   35 1
    38   17   36 1
    39   17   37 1
    40   18   38 1
    41   18   39 1
    42   18   40 1
    43   21   41 1
    44   21   42 1
    45   22   43 1
    46   22   44 1
    47   23   45 1
    48   23   46 1
    49   24   47 1
    50   24   48 1
    51   24   49 1
    52   26   50 1
    53   26   51 1
    54   26   52 1
@<TRIPOS>PROPERTY_DATA
  Total_Score	| 4.7416
  Crash		| -2.7790
  Polar		| 0.0000
  FragIndex	| 1
  FragRMSD	| 1.489

