@<TRIPOS>MOLECULE
BindingDB_16020
 67 69 0 0 0
SMALL
NO_CHARGES


@<TRIPOS>ATOM
1    C        27.9970   42.9337    0.7393  C     
2    C        28.9355   43.9020    1.1799  C     
3    C        30.2750   43.5810    1.5623  C     
4    C        30.6602   42.2223    1.4847  C     
5    C        29.7739   41.2217    1.0272  C     
6    C        28.4543   41.5957    0.6656  C     
7    N        26.6881   43.2898    0.3733  N     
8    C        25.8998   42.4294   -0.4787  C     
9    C        26.3956   46.2603    0.0658  C     
10   S        25.9596   44.7259    0.9071  S     
11   O        24.3557   44.6103    0.8784  O     
12   O        26.1795   44.9071    2.4663  O     
13   C        30.1960   39.9032    0.9313  C     
14   O        30.0143   39.2895   -0.1112  O     
15   C        31.1643   44.5800    1.9804  C     
16   O        30.7525   45.7236    2.1548  O     
17   N        30.7586   39.3256    1.9853  N     
18   C        31.3690   38.0259    2.0498  C     
19   C        30.4733   37.0876    2.9349  C     
20   C        29.2094   36.6040    2.1699  C     
21   N        28.2970   35.8249    3.0347  N     
22   C        27.1089   35.2951    2.3310  C     
23   C        26.2646   34.3135    3.1582  C     
24   C        25.7116   35.7035    2.8200  C     
25   O        31.1898   35.9317    3.3766  O     
26   C        32.8411   38.1787    2.5561  C     
27   C        33.7078   39.1889    1.8619  C     
28   C        33.5663   39.4636    0.4820  C     
29   C        34.7418   39.8550    2.5680  C     
30   C        35.5707   40.7937    1.9236  C     
31   C        35.3884   41.0816    0.5597  C     
32   C        34.3876   40.4111   -0.1624  C     
33   N        32.4584   44.3552    2.1763  N     
34   C        33.4063   45.3311    2.5962  C     
35   H        28.6505   44.8810    1.2105  H     
36   H        31.6117   41.9476    1.7321  H     
37   H        27.8111   40.8572    0.3717  H     
38   H        26.4596   42.1546   -1.3759  H     
39   H        24.9600   42.8930   -0.8181  H     
40   H        25.6354   41.5180    0.0630  H     
41   H        27.4771   46.3872    0.0920  H     
42   H        25.9205   47.1059    0.5678  H     
43   H        26.0622   46.2325   -0.9765  H     
44   H        30.7656   39.8383    2.8098  H     
45   H        31.4259   37.5711    1.0589  H     
46   H        30.1541   37.6271    3.8307  H     
47   H        28.6637   37.4685    1.7854  H     
48   H        29.5255   35.9856    1.3224  H     
49   H        28.8153   35.0376    3.4381  H     
50   H        27.9903   36.4367    3.7903  H     
51   H        27.1882   34.9987    1.2795  H     
52   H        25.8183   33.4839    2.6049  H     
53   H        26.5763   34.1581    4.1927  H     
54   H        25.6791   36.4218    3.6426  H     
55   H        24.9235   35.7208    2.0645  H     
56   H        31.7786   36.2428    4.0958  H     
57   H        32.8045   38.4006    3.6263  H     
58   H        33.3436   37.2157    2.4447  H     
59   H        32.8552   38.9907   -0.0775  H     
60   H        34.9035   39.6536    3.5545  H     
61   H        36.3084   41.2727    2.4394  H     
62   H        35.9874   41.7664    0.0913  H     
63   H        34.2541   40.6102   -1.1555  H     
64   H        32.8003   43.4643    2.0088  H     
65   H        33.4276   46.1635    1.8898  H     
66   H        34.3950   44.8781    2.6396  H     
67   H        33.1477   45.7078    3.5884  H     
@<TRIPOS>BOND
     1    1    2 1
     2    1    6 2
     3    1    7 1
     4    2    3 2
     5    3    4 1
     6    3   15 1
     7    4    5 2
     8    5    6 1
     9    5   13 1
    10    7    8 1
    11    7   10 1
    12    9   10 1
    13   10   11 2
    14   10   12 2
    15   13   14 2
    16   13   17 am
    17   15   16 2
    18   15   33 am
    19   17   18 1
    20   18   19 1
    21   18   26 1
    22   19   20 1
    23   19   25 1
    24   20   21 1
    25   21   22 1
    26   22   23 1
    27   22   24 1
    28   23   24 1
    29   26   27 1
    30   27   28 1
    31   27   29 2
    32   28   32 2
    33   29   30 1
    34   30   31 2
    35   31   32 1
    36   33   34 1
    37    2   35 1
    38    4   36 1
    39    6   37 1
    40    8   38 1
    41    8   39 1
    42    8   40 1
    43    9   41 1
    44    9   42 1
    45    9   43 1
    46   17   44 1
    47   18   45 1
    48   19   46 1
    49   20   47 1
    50   20   48 1
    51   21   49 1
    52   21   50 1
    53   22   51 1
    54   23   52 1
    55   23   53 1
    56   24   54 1
    57   24   55 1
    58   25   56 1
    59   26   57 1
    60   26   58 1
    61   28   59 1
    62   29   60 1
    63   30   61 1
    64   31   62 1
    65   32   63 1
    66   33   64 1
    67   34   65 1
    68   34   66 1
    69   34   67 1
@<TRIPOS>PROPERTY_DATA
  Total_Score	| 15.3231
  Crash		| -2.0741
  Polar		| 7.7883
  FragIndex	| 1
  FragRMSD	| 0.411

