@<TRIPOS>MOLECULE
BindingDB_16027
 73 76 0 0 0
SMALL
NO_CHARGES


@<TRIPOS>ATOM
1    C        28.2701   43.1043    0.5172  C     
2    C        29.2480   44.0712    0.8606  C     
3    C        30.5626   43.7007    1.2280  C     
4    C        30.9059   42.3314    1.2308  C     
5    C        29.9683   41.3392    0.8611  C     
6    C        28.6631   41.7428    0.4873  C     
7    N        26.9746   43.4946    0.2024  N     
8    C        26.2174   42.8183   -0.8261  C     
9    C        26.6268   46.4276    0.5117  C     
10   S        26.2046   44.7554    1.0437  S     
11   O        24.6246   44.5867    0.9370  O     
12   O        26.4520   44.6452    2.6102  O     
13   C        30.3423   40.0021    0.8462  C     
14   O        30.2033   39.3584   -0.1884  O     
15   C        31.5719   44.7333    1.6128  C     
16   N        30.8263   39.4451    1.9498  N     
17   C        31.4067   38.1388    2.0738  C     
18   C        30.4732   37.2247    2.9354  C     
19   C        29.2312   36.7423    2.1317  C     
20   N        28.3618   35.8687    2.9511  N     
21   C        27.2238   35.2918    2.2087  C     
22   C        26.3926   34.2932    3.0282  C     
23   C        25.7977   35.6534    2.6477  C     
24   O        31.1604   36.0514    3.3910  O     
25   C        32.8629   38.2823    2.6250  C     
26   C        33.7743   39.2218    1.8964  C     
27   C        33.6572   39.4649    0.5040  C     
28   C        34.8223   39.8706    2.5956  C     
29   C        35.7056   40.7442    1.9354  C     
30   C        35.5481   41.0003    0.5639  C     
31   C        34.5203   40.3632   -0.1495  C     
32   C        31.7424   44.9828    3.0746  C     
33   C        31.3150   44.4835    5.4488  C     
34   C        31.1330   44.1984    4.0845  C     
35   C        32.5445   46.0767    3.4893  C     
36   C        32.7170   46.3759    4.8568  C     
37   C        32.1050   45.5771    5.8374  C     
38   H        28.9938   45.0623    0.8681  H     
39   H        31.8518   42.0617    1.5188  H     
40   H        27.9749   41.0332    0.2362  H     
41   H        26.8323   42.6909   -1.7251  H     
42   H        25.3100   43.3610   -1.1300  H     
43   H        25.9118   41.8297   -0.4612  H     
44   H        27.6813   46.6301    0.7370  H     
45   H        25.9884   47.1459    1.0365  H     
46   H        26.4554   46.5114   -0.5642  H     
47   H        32.5450   44.4534    1.1929  H     
48   H        31.3071   45.6852    1.1392  H     
49   H        30.8355   40.0006    2.7435  H     
50   H        31.5041   37.6621    1.0945  H     
51   H        30.1293   37.7720    3.8249  H     
52   H        28.6448   37.6043    1.8035  H     
53   H        29.5725   36.1903    1.2507  H     
54   H        28.9184   35.1004    3.3380  H     
55   H        28.0011   36.4320    3.7221  H     
56   H        27.3553   34.9753    1.1701  H     
57   H        26.0069   33.4353    2.4748  H     
58   H        26.6735   34.1720    4.0743  H     
59   H        25.7122   36.3830    3.4570  H     
60   H        25.0422   35.6377    1.8588  H     
61   H        31.7300   36.3541    4.1255  H     
62   H        32.7921   38.5769    3.6780  H     
63   H        33.3438   37.3003    2.6073  H     
64   H        32.9278   39.0048   -0.0466  H     
65   H        34.9557   39.6966    3.5964  H     
66   H        36.4629   41.1945    2.4511  H     
67   H        36.1865   41.6358    0.0850  H     
68   H        34.4051   40.5467   -1.1484  H     
69   H        30.8675   43.8929    6.1605  H     
70   H        30.5457   43.4035    3.8367  H     
71   H        33.0079   46.6758    2.7955  H     
72   H        33.2844   47.1797    5.1381  H     
73   H        32.2343   45.7906    6.8311  H     
@<TRIPOS>BOND
     1    1    2 1
     2    1    6 2
     3    1    7 1
     4    2    3 2
     5    3    4 1
     6    3   15 1
     7    4    5 2
     8    5    6 1
     9    5   13 1
    10    7    8 1
    11    7   10 1
    12    9   10 1
    13   10   11 2
    14   10   12 2
    15   13   14 2
    16   13   16 am
    17   15   32 1
    18   16   17 1
    19   17   18 1
    20   17   25 1
    21   18   19 1
    22   18   24 1
    23   19   20 1
    24   20   21 1
    25   21   22 1
    26   21   23 1
    27   22   23 1
    28   25   26 1
    29   26   27 1
    30   26   28 2
    31   27   31 2
    32   28   29 1
    33   29   30 2
    34   30   31 1
    35   32   34 1
    36   32   35 2
    37   33   34 2
    38   33   37 1
    39   35   36 1
    40   36   37 2
    41    2   38 1
    42    4   39 1
    43    6   40 1
    44    8   41 1
    45    8   42 1
    46    8   43 1
    47    9   44 1
    48    9   45 1
    49    9   46 1
    50   15   47 1
    51   15   48 1
    52   16   49 1
    53   17   50 1
    54   18   51 1
    55   19   52 1
    56   19   53 1
    57   20   54 1
    58   20   55 1
    59   21   56 1
    60   22   57 1
    61   22   58 1
    62   23   59 1
    63   23   60 1
    64   24   61 1
    65   25   62 1
    66   25   63 1
    67   27   64 1
    68   28   65 1
    69   29   66 1
    70   30   67 1
    71   31   68 1
    72   33   69 1
    73   34   70 1
    74   35   71 1
    75   36   72 1
    76   37   73 1
@<TRIPOS>PROPERTY_DATA
  Total_Score	| 17.2508
  Crash		| -2.2831
  Polar		| 7.4637
  FragIndex	| 1
  FragRMSD	| 0.429

