@<TRIPOS>MOLECULE
BindingDB_16034
 80 83 0 0 0
SMALL
NO_CHARGES


@<TRIPOS>ATOM
1    C        32.1776   47.5732    6.6274  C     
2    C        31.3216   46.7759    7.4051  C     
3    C        31.0290   45.4640    6.9959  C     
4    C        31.5798   44.9547    5.8060  C     
5    C        32.7341   47.0607    5.4392  C     
6    C        32.4429   45.7434    5.0074  C     
7    C        33.0247   45.1955    3.7391  C     
8    C        34.3867   44.4956    3.9872  C     
9    N        32.1032   44.2791    3.1111  N     
10   C        31.2244   44.5516    2.1414  C     
11   O        31.1596   45.7012    1.7209  O     
12   C        30.3383   43.5936    1.6375  C     
13   C        28.1121   42.9848    0.6796  C     
14   C        29.0486   43.9448    1.1385  C     
15   C        30.7022   42.2249    1.5897  C     
16   C        29.8248   41.2303    1.0965  C     
17   C        28.5385   41.6286    0.6543  C     
18   N        26.8120   43.3393    0.2620  N     
19   C        26.0590   42.5269   -0.6670  C     
20   C        26.4781   46.2891    0.2113  C     
21   S        26.0108   44.6917    0.8978  S     
22   O        24.4255   44.5885    0.6470  O     
23   O        26.0493   44.7123    2.4837  O     
24   C        30.2387   39.9041    0.9961  C     
25   O        30.0619   39.3011   -0.0582  O     
26   N        30.8024   39.3167    2.0398  N     
27   C        31.3883   38.0092    2.0827  C     
28   C        30.4726   37.0631    2.9211  C     
29   C        29.2406   36.5775    2.1056  C     
30   N        28.2758   35.8306    2.9391  N     
31   C        27.1437   35.2621    2.1756  C     
32   C        26.2464   34.2974    2.9569  C     
33   C        25.7189   35.6840    2.5545  C     
34   O        31.1673   35.8936    3.3641  O     
35   C        32.8601   38.1294    2.5924  C     
36   C        33.7354   39.1155    1.8760  C     
37   C        34.7526   39.8196    2.5714  C     
38   C        35.5883   40.7356    1.9065  C     
39   C        35.4074   40.9799    0.5334  C     
40   C        34.3999   40.3025   -0.1726  C     
41   C        33.5914   39.3606    0.4860  C     
42   H        32.3851   48.5311    6.9172  H     
43   H        30.9188   47.1453    8.2686  H     
44   H        30.4013   44.8831    7.5533  H     
45   H        31.3415   44.0018    5.5232  H     
46   H        33.3536   47.6613    4.8873  H     
47   H        33.2382   46.0058    3.0343  H     
48   H        35.0783   45.1919    4.4651  H     
49   H        34.8243   44.1744    3.0385  H     
50   H        34.2684   43.6202    4.6305  H     
51   H        32.0498   43.3836    3.4930  H     
52   H        28.7803   44.9271    1.1146  H     
53   H        31.6530   41.9396    1.8763  H     
54   H        27.8846   40.9009    0.3424  H     
55   H        26.7064   42.1619   -1.4758  H     
56   H        25.2340   43.0684   -1.1438  H     
57   H        25.6318   41.6737   -0.1352  H     
58   H        27.5296   46.4730    0.4241  H     
59   H        25.8681   47.0810    0.6475  H     
60   H        26.3213   46.2654   -0.8716  H     
61   H        30.8304   39.8353    2.8681  H     
62   H        31.4579   37.5835    1.0821  H     
63   H        30.1152   37.5919    3.8157  H     
64   H        28.7192   37.4386    1.6737  H     
65   H        29.5974   35.9437    1.2785  H     
66   H        28.7599   35.0660    3.4161  H     
67   H        27.9175   36.4777    3.6482  H     
68   H        27.3012   34.9562    1.1380  H     
69   H        25.8698   33.4472    2.3900  H     
70   H        26.5243   34.1641    4.0029  H     
71   H        25.6324   36.4118    3.3615  H     
72   H        25.0069   35.7078    1.7286  H     
73   H        31.7372   36.2098    4.1030  H     
74   H        32.8277   38.3734    3.6599  H     
75   H        33.3476   37.1549    2.4991  H     
76   H        34.8908   39.6616    3.5708  H     
77   H        36.3193   41.2352    2.4162  H     
78   H        36.0068   41.6517    0.0460  H     
79   H        34.2498   40.4979   -1.1628  H     
80   H        32.8780   38.8770   -0.0608  H     
@<TRIPOS>BOND
     1    1    2 2
     2    1    5 1
     3    2    3 1
     4    3    4 2
     5    4    6 1
     6    5    6 2
     7    6    7 1
     8    7    8 1
     9    7    9 1
    10    9   10 am
    11   10   11 2
    12   10   12 1
    13   12   14 2
    14   12   15 1
    15   13   14 1
    16   13   17 2
    17   13   18 1
    18   15   16 2
    19   16   17 1
    20   16   24 1
    21   18   19 1
    22   18   21 1
    23   20   21 1
    24   21   22 2
    25   21   23 2
    26   24   25 2
    27   24   26 am
    28   26   27 1
    29   27   28 1
    30   27   35 1
    31   28   29 1
    32   28   34 1
    33   29   30 1
    34   30   31 1
    35   31   32 1
    36   31   33 1
    37   32   33 1
    38   35   36 1
    39   36   37 2
    40   36   41 1
    41   37   38 1
    42   38   39 2
    43   39   40 1
    44   40   41 2
    45    1   42 1
    46    2   43 1
    47    3   44 1
    48    4   45 1
    49    5   46 1
    50    7   47 1
    51    8   48 1
    52    8   49 1
    53    8   50 1
    54    9   51 1
    55   14   52 1
    56   15   53 1
    57   17   54 1
    58   19   55 1
    59   19   56 1
    60   19   57 1
    61   20   58 1
    62   20   59 1
    63   20   60 1
    64   26   61 1
    65   27   62 1
    66   28   63 1
    67   29   64 1
    68   29   65 1
    69   30   66 1
    70   30   67 1
    71   31   68 1
    72   32   69 1
    73   32   70 1
    74   33   71 1
    75   33   72 1
    76   34   73 1
    77   35   74 1
    78   35   75 1
    79   37   76 1
    80   38   77 1
    81   39   78 1
    82   40   79 1
    83   41   80 1
@<TRIPOS>PROPERTY_DATA
  Total_Score	| 20.0726
  Crash		| -2.1618
  Polar		| 8.8162
  FragIndex	| 1
  FragRMSD	| 0.434

