@<TRIPOS>MOLECULE
BindingDB_16408
 77 80 0 0 0
SMALL
NO_CHARGES


@<TRIPOS>ATOM
1    C        28.3527   43.2040    0.6620  C     
2    C        29.3044   44.1074    1.1998  C     
3    C        30.5730   43.6678    1.6759  C     
4    C        30.8437   42.2801    1.5994  C     
5    C        29.9189   41.3516    1.0752  C     
6    C        28.6804   41.8393    0.5833  C     
7    C        31.5200   44.5759    2.1846  C     
8    O        31.5355   45.7300    1.7637  O     
9    N        32.4216   44.2384    3.1051  N     
10   C        33.4255   45.0805    3.7009  C     
11   C        30.2305   39.9965    0.9771  C     
12   O        30.0179   39.4211   -0.0790  O     
13   N        30.8026   39.3763    2.0034  N     
14   C        31.3655   38.0541    2.0409  C     
15   C        29.2010   36.6330    2.0709  C     
16   C        32.8428   38.1822    2.5545  C     
17   C        30.4392   37.1278    2.8877  C     
18   O        31.1209   35.9590    3.4037  O     
19   N        27.1118   43.5868    0.2223  N     
20   C        26.4445   46.4817    0.4435  C     
21   S        26.1294   44.7646    0.9312  S     
22   O        24.6421   44.3931    0.5250  O     
23   O        26.1216   44.5896    2.5128  O     
24   C        34.7687   44.3178    3.7673  C     
25   C        33.7155   39.1626    1.8446  C     
26   C        34.7463   39.8482    2.5387  C     
27   C        35.6082   40.7368    1.8649  C     
28   C        35.4383   40.9839    0.4873  C     
29   C        34.4279   40.3052   -0.2247  C     
30   C        33.5831   39.4058    0.4461  C     
31   N        28.2728   35.8404    2.9009  N     
32   C        27.1393   35.2870    2.1325  C     
33   C        26.2727   34.2886    2.9029  C     
34   C        25.7206   35.6825    2.5461  C     
35   C        32.9722   45.5378    5.0466  C     
36   C        32.8943   46.9169    5.3639  C     
37   C        32.5936   44.6000    6.0388  C     
38   C        32.1426   45.0236    7.3014  C     
39   C        32.0643   46.3962    7.5986  C     
40   C        32.4415   47.3415    6.6302  C     
41   F        31.6304   46.7885    8.7659  F     
42   H        29.0887   45.1117    1.2082  H     
43   H        31.7512   41.9250    1.9093  H     
44   H        27.9813   41.1879    0.2217  H     
45   H        32.3405   43.3465    3.4709  H     
46   H        33.5944   45.9287    3.0300  H     
47   H        30.8462   39.8904    2.8147  H     
48   H        31.4324   37.6672    1.0382  H     
49   H        28.6602   37.4996    1.6536  H     
50   H        29.5770   36.0127    1.2297  H     
51   H        32.7992   38.4176    3.6250  H     
52   H        33.3214   37.2076    2.4523  H     
53   H        30.0496   37.7011    3.7464  H     
54   H        31.7134   36.3107    4.1153  H     
55   H        26.6908   43.0039   -0.4324  H     
56   H        27.4256   46.7826    0.8055  H     
57   H        25.6767   47.1192    0.8783  H     
58   H        26.4135   46.5515   -0.6430  H     
59   H        34.6769   43.4000    4.3472  H     
60   H        35.5392   44.9387    4.2225  H     
61   H        35.0937   44.0591    2.7627  H     
62   H        34.8890   39.6991    3.5326  H     
63   H        36.3793   41.1891    2.3741  H     
64   H        36.0713   41.6318    0.0005  H     
65   H        34.3310   40.4549   -1.2215  H     
66   H        32.8751   38.9064   -0.1004  H     
67   H        28.7900   35.0649    3.3252  H     
68   H        27.9226   36.4524    3.6434  H     
69   H        27.2870   34.9892    1.0975  H     
70   H        25.9225   33.4432    2.3138  H     
71   H        26.5472   34.1328    3.9423  H     
72   H        25.6560   36.3980    3.3684  H     
73   H        25.0012   35.7329    1.7250  H     
74   H        33.1527   47.6275    4.6739  H     
75   H        32.6263   43.5975    5.8412  H     
76   H        31.8683   44.3331    7.9986  H     
77   H        32.3885   48.3462    6.8402  H     
@<TRIPOS>BOND
     1    1    2 1
     2    1    6 2
     3    1   19 1
     4    2    3 2
     5    3    4 1
     6    3    7 1
     7    4    5 2
     8    5    6 1
     9    5   11 1
    10    7    8 2
    11    7    9 am
    12    9   10 1
    13   10   24 1
    14   10   35 1
    15   11   12 2
    16   11   13 am
    17   13   14 1
    18   14   16 1
    19   14   17 1
    20   15   17 1
    21   15   31 1
    22   16   25 1
    23   17   18 1
    24   19   21 1
    25   20   21 1
    26   21   22 2
    27   21   23 2
    28   25   26 2
    29   25   30 1
    30   26   27 1
    31   27   28 2
    32   28   29 1
    33   29   30 2
    34   31   32 1
    35   32   33 1
    36   32   34 1
    37   33   34 1
    38   35   36 1
    39   35   37 2
    40   36   40 2
    41   37   38 1
    42   38   39 2
    43   39   40 1
    44   39   41 1
    45    2   42 1
    46    4   43 1
    47    6   44 1
    48    9   45 1
    49   10   46 1
    50   13   47 1
    51   14   48 1
    52   15   49 1
    53   15   50 1
    54   16   51 1
    55   16   52 1
    56   17   53 1
    57   18   54 1
    58   19   55 1
    59   20   56 1
    60   20   57 1
    61   20   58 1
    62   24   59 1
    63   24   60 1
    64   24   61 1
    65   26   62 1
    66   27   63 1
    67   28   64 1
    68   29   65 1
    69   30   66 1
    70   31   67 1
    71   31   68 1
    72   32   69 1
    73   33   70 1
    74   33   71 1
    75   34   72 1
    76   34   73 1
    77   36   74 1
    78   37   75 1
    79   38   76 1
    80   40   77 1
@<TRIPOS>PROPERTY_DATA
  Total_Score	| 18.6636
  Crash		| -1.4985
  Polar		| 8.2407
  FragIndex	| 1
  FragRMSD	| 0.240

