@<TRIPOS>MOLECULE
BindingDB_16412
 85 87 0 0 0
SMALL
NO_CHARGES


@<TRIPOS>ATOM
1    C        28.0487   42.9545    0.7466  C     
2    C        28.9986   43.9246    1.1667  C     
3    C        30.3157   43.5815    1.6053  C     
4    C        30.6972   42.2164    1.5323  C     
5    C        29.8035   41.2231    1.0799  C     
6    C        28.4926   41.6062    0.7099  C     
7    C        31.2103   44.5541    2.0897  C     
8    O        31.1256   45.7071    1.6675  O     
9    N        32.1370   44.2778    3.0092  N     
10   C        33.0882   45.1790    3.5975  C     
11   C        30.2266   39.8969    0.9654  C     
12   O        30.0944   39.3223   -0.1093  O     
13   N        30.7470   39.2781    2.0212  N     
14   C        31.3328   37.9633    2.0525  C     
15   C        29.2984   36.2923    1.9822  C     
16   C        32.7987   38.0715    2.5756  C     
17   C        30.3923   36.9977    2.8652  C     
18   O        31.1113   35.9544    3.5369  O     
19   N        26.7377   43.2897    0.3671  N     
20   C        26.4147   46.1733    0.0347  C     
21   S        25.9531   44.6794    0.9314  S     
22   O        24.3541   44.5629    0.8152  O     
23   O        26.1526   44.8739    2.4942  O     
24   C        34.4804   44.4974    3.6311  C     
25   C        33.6792   39.0676    1.8820  C     
26   C        34.6298   39.8238    2.6103  C     
27   C        35.4881   40.7286    1.9651  C     
28   C        35.4117   40.9050    0.5713  C     
29   C        34.4674   40.1761   -0.1713  C     
30   C        33.6206   39.2537    0.4760  C     
31   C        32.6605   45.5912    4.9665  C     
32   C        32.7614   46.9382    5.3941  C     
33   C        32.1604   44.6327    5.8857  C     
34   C        31.7806   45.0075    7.1853  C     
35   C        31.8952   46.3494    7.5940  C     
36   C        32.3860   47.3137    6.6934  C     
37   F        31.5492   46.6951    8.8040  F     
38   N        27.8933   36.5414    2.4142  N     
39   C        26.9591   35.3980    2.6658  C     
40   C        27.0041   34.3017    1.5491  C     
41   C        27.2752   34.7716    4.0590  C     
42   C        25.5218   36.0023    2.6853  C     
43   C        25.9793   42.4703   -0.5552  C     
44   H        28.7304   44.9138    1.1551  H     
45   H        31.6533   41.9449    1.7684  H     
46   H        27.8369   40.8685    0.4399  H     
47   H        32.1198   43.3785    3.3733  H     
48   H        33.2011   46.0578    2.9472  H     
49   H        30.7490   39.7720    2.8608  H     
50   H        31.4221   37.5686    1.0369  H     
51   H        29.3546   36.6245    0.9457  H     
52   H        29.5186   35.2224    1.9496  H     
53   H        32.7622   38.2927    3.6421  H     
54   H        33.2707   37.0968    2.4576  H     
55   H        29.9154   37.5746    3.6675  H     
56   H        31.6852   36.3780    4.2075  H     
57   H        27.4830   46.3567    0.1720  H     
58   H        25.8435   47.0252    0.4137  H     
59   H        26.2007   46.0385   -1.0286  H     
60   H        34.4482   43.5593    4.1933  H     
61   H        35.2156   45.1566    4.0984  H     
62   H        34.8122   44.2804    2.6136  H     
63   H        34.7094   39.7047    3.6241  H     
64   H        36.1664   41.2666    2.5007  H     
65   H        36.0363   41.5578    0.0991  H     
66   H        34.3967   40.3100   -1.1817  H     
67   H        32.9492   38.7343   -0.0917  H     
68   H        33.1251   47.6564    4.7589  H     
69   H        32.0737   43.6502    5.6129  H     
70   H        31.4215   44.3033    7.8321  H     
71   H        32.4698   48.2926    6.9859  H     
72   H        27.9139   37.1005    3.2687  H     
73   H        27.4647   37.1228    1.6902  H     
74   H        26.8999   34.7669    0.5635  H     
75   H        26.1941   33.5790    1.6823  H     
76   H        27.9447   33.7462    1.5689  H     
77   H        28.2869   34.3762    4.0767  H     
78   H        26.5872   33.9533    4.2775  H     
79   H        27.1888   35.5169    4.8513  H     
80   H        25.4527   36.8283    3.3967  H     
81   H        24.7822   35.2485    2.9632  H     
82   H        25.2543   36.3887    1.6992  H     
83   H        26.5946   42.1823   -1.4045  H     
84   H        25.0832   42.9547   -0.9683  H     
85   H        25.6399   41.5702   -0.0401  H     
@<TRIPOS>BOND
     1    1    2 1
     2    1    6 2
     3    1   19 1
     4    2    3 2
     5    3    4 1
     6    3    7 1
     7    4    5 2
     8    5    6 1
     9    5   11 1
    10    7    8 2
    11    7    9 am
    12    9   10 1
    13   10   24 1
    14   10   31 1
    15   11   12 2
    16   11   13 am
    17   13   14 1
    18   14   16 1
    19   14   17 1
    20   15   17 1
    21   15   38 1
    22   16   25 1
    23   17   18 1
    24   19   21 1
    25   19   43 1
    26   20   21 1
    27   21   22 2
    28   21   23 2
    29   25   26 2
    30   25   30 1
    31   26   27 1
    32   27   28 2
    33   28   29 1
    34   29   30 2
    35   31   32 1
    36   31   33 2
    37   32   36 2
    38   33   34 1
    39   34   35 2
    40   35   36 1
    41   35   37 1
    42   38   39 1
    43   39   40 1
    44   39   41 1
    45   39   42 1
    46    2   44 1
    47    4   45 1
    48    6   46 1
    49    9   47 1
    50   10   48 1
    51   13   49 1
    52   14   50 1
    53   15   51 1
    54   15   52 1
    55   16   53 1
    56   16   54 1
    57   17   55 1
    58   18   56 1
    59   20   57 1
    60   20   58 1
    61   20   59 1
    62   24   60 1
    63   24   61 1
    64   24   62 1
    65   26   63 1
    66   27   64 1
    67   28   65 1
    68   29   66 1
    69   30   67 1
    70   32   68 1
    71   33   69 1
    72   34   70 1
    73   36   71 1
    74   38   72 1
    75   38   73 1
    76   40   74 1
    77   40   75 1
    78   40   76 1
    79   41   77 1
    80   41   78 1
    81   41   79 1
    82   42   80 1
    83   42   81 1
    84   42   82 1
    85   43   83 1
    86   43   84 1
    87   43   85 1
@<TRIPOS>PROPERTY_DATA
  Total_Score	| 19.2867
  Crash		| -2.8954
  Polar		| 7.7854
  FragIndex	| 1
  FragRMSD	| 0.520

