@<TRIPOS>MOLECULE
BindingDB_16033
 73 76 0 0 0
SMALL
NO_CHARGES


@<TRIPOS>ATOM
1    C        28.1874   43.1222    0.5562  C     
2    C        29.1355   44.0563    1.0430  C     
3    C        30.4132   43.6836    1.4944  C     
4    C        30.7405   42.3120    1.4827  C     
5    C        29.8635   41.3221    0.9937  C     
6    C        28.5863   41.7528    0.5418  C     
7    N        26.9485   43.5380    0.0663  N     
8    C        26.3044   42.8665   -1.0263  C     
9    C        26.4541   46.4636    0.3149  C     
10   S        26.0505   44.7785    0.7931  S     
11   O        24.4981   44.6094    0.4267  O     
12   O        26.0139   44.6355    2.3726  O     
13   C        30.2493   40.0076    0.9094  C     
14   O        29.7304   39.2488    0.0701  O     
15   N        30.9907   39.4421    1.8840  N     
16   C        31.5132   38.1165    1.9617  C     
17   C        30.5810   37.1880    2.8329  C     
18   C        29.3014   36.7084    2.0881  C     
19   N        28.3852   35.9060    2.9132  N     
20   C        27.1685   35.4823    2.1947  C     
21   C        26.9904   34.0160    1.7674  C     
22   C        26.2618   34.5477    3.0120  C     
23   O        31.2518   35.9980    3.2912  O     
24   C        32.9914   38.2072    2.4640  C     
25   C        33.8653   39.2147    1.7849  C     
26   C        34.8332   39.9418    2.5222  C     
27   C        33.7711   39.4699    0.3979  C     
28   C        34.5920   40.4273   -0.2265  C     
29   C        35.5678   41.1148    0.5149  C     
30   C        35.6866   40.8664    1.8951  C     
31   C        31.4447   44.6969    1.8777  C     
32   C        31.8385   44.7159    3.3828  C     
33   C        33.2763   44.1867    3.6646  C     
34   C        34.4725   45.1017    3.3212  C     
35   C        34.1112   44.8423    4.7810  C     
36   H        28.9044   45.0484    1.0430  H     
37   H        31.6745   42.0281    1.7816  H     
38   H        27.9262   41.0449    0.2000  H     
39   H        27.0324   42.4562   -1.7508  H     
40   H        25.6376   43.5318   -1.5931  H     
41   H        25.6900   42.0367   -0.6362  H     
42   H        27.4600   46.7193    0.6354  H     
43   H        25.7548   47.1582    0.7820  H     
44   H        26.3928   46.5761   -0.7703  H     
45   H        31.2555   40.0601    2.5990  H     
46   H        31.5636   37.6714    0.9555  H     
47   H        30.2548   37.7350    3.7337  H     
48   H        28.7681   37.5757    1.6928  H     
49   H        29.6410   36.0856    1.2287  H     
50   H        28.8939   35.0758    3.2527  H     
51   H        28.1108   36.4797    3.7025  H     
52   H        26.6026   36.2222    1.6203  H     
53   H        26.3699   33.8617    0.8845  H     
54   H        27.8529   33.3710    1.9357  H     
55   H        26.6495   34.2029    3.9760  H     
56   H        25.1898   34.7237    2.9060  H     
57   H        31.7577   36.2408    4.0847  H     
58   H        32.9651   38.4056    3.5437  H     
59   H        33.4647   37.2245    2.3406  H     
60   H        34.9456   39.7841    3.5270  H     
61   H        33.0804   38.9779   -0.1751  H     
62   H        34.4995   40.6139   -1.2340  H     
63   H        36.1863   41.7929    0.0564  H     
64   H        36.3999   41.3678    2.4334  H     
65   H        32.3440   44.5399    1.2710  H     
66   H        31.0936   45.6958    1.6156  H     
67   H        31.7672   45.7432    3.7625  H     
68   H        31.1347   44.1142    3.9668  H     
69   H        33.4785   43.1164    3.5265  H     
70   H        35.3712   44.5982    2.9557  H     
71   H        34.2385   46.1055    2.9498  H     
72   H        33.6765   45.6965    5.3081  H     
73   H        34.8020   44.1906    5.3170  H     
@<TRIPOS>BOND
     1    1    2 1
     2    1    6 2
     3    1    7 1
     4    2    3 2
     5    3    4 1
     6    3   31 1
     7    4    5 2
     8    5    6 1
     9    5   13 1
    10    7    8 1
    11    7   10 1
    12    9   10 1
    13   10   11 2
    14   10   12 2
    15   13   14 2
    16   13   15 am
    17   15   16 1
    18   16   17 1
    19   16   24 1
    20   17   18 1
    21   17   23 1
    22   18   19 1
    23   19   20 1
    24   20   21 1
    25   20   22 1
    26   21   22 1
    27   24   25 1
    28   25   26 1
    29   25   27 2
    30   26   30 2
    31   27   28 1
    32   28   29 2
    33   29   30 1
    34   31   32 1
    35   32   33 1
    36   33   34 1
    37   33   35 1
    38   34   35 1
    39    2   36 1
    40    4   37 1
    41    6   38 1
    42    8   39 1
    43    8   40 1
    44    8   41 1
    45    9   42 1
    46    9   43 1
    47    9   44 1
    48   15   45 1
    49   16   46 1
    50   17   47 1
    51   18   48 1
    52   18   49 1
    53   19   50 1
    54   19   51 1
    55   20   52 1
    56   21   53 1
    57   21   54 1
    58   22   55 1
    59   22   56 1
    60   23   57 1
    61   24   58 1
    62   24   59 1
    63   26   60 1
    64   27   61 1
    65   28   62 1
    66   29   63 1
    67   30   64 1
    68   31   65 1
    69   31   66 1
    70   32   67 1
    71   32   68 1
    72   33   69 1
    73   34   70 1
    74   34   71 1
    75   35   72 1
    76   35   73 1
@<TRIPOS>PROPERTY_DATA
  Total_Score	| 16.6175
  Crash		| -1.7106
  Polar		| 7.1492
  FragIndex	| 1
  FragRMSD	| 0.448

