@<TRIPOS>MOLECULE
BindingDB_16413
 86 89 0 0 0
SMALL
NO_CHARGES


@<TRIPOS>ATOM
1    C        28.0580   42.8979    0.8374  C     
2    C        28.9903   43.8133    1.3727  C     
3    C        30.3178   43.4958    1.7386  C     
4    C        30.7130   42.1530    1.6142  C     
5    C        29.8439   41.1697    1.0944  C     
6    C        28.5435   41.5697    0.6875  C     
7    C        31.1938   44.5032    2.1494  C     
8    O        31.0555   45.6193    1.6611  O     
9    N        32.1227   44.2775    3.0744  N     
10   C        33.0562   45.2326    3.6259  C     
11   C        30.2616   39.8532    0.9733  C     
12   O        30.0660   39.2478   -0.0784  O     
13   N        30.8130   39.2579    2.0267  N     
14   C        31.3928   37.9446    2.0922  C     
15   C        29.2578   36.4868    2.1560  C     
16   C        32.8711   38.0818    2.5915  C     
17   C        30.4711   37.0281    2.9713  C     
18   O        31.1701   35.8997    3.4965  O     
19   N        26.7512   43.2813    0.4338  N     
20   S        26.0599   44.7864    0.8293  S     
21   O        24.4723   44.8193    0.5417  O     
22   O        26.0010   44.9285    2.4062  O     
23   C        34.4838   44.6386    3.5721  C     
24   C        33.7342   39.0835    1.8796  C     
25   C        34.6893   39.8425    2.6014  C     
26   C        35.5097   40.7874    1.9579  C     
27   C        35.3831   41.0019    0.5737  C     
28   C        34.4538   40.2514   -0.1644  C     
29   C        33.6554   39.2888    0.4787  C     
30   C        32.6844   45.6347    5.0260  C     
31   C        32.7186   46.9945    5.4318  C     
32   C        32.3273   44.6646    5.9947  C     
33   C        32.0020   45.0387    7.3132  C     
34   C        32.0482   46.3898    7.6961  C     
35   C        32.4088   47.3698    6.7553  C     
36   N        28.2502   35.8048    2.9968  N     
37   C        26.8192   46.2669    0.0982  C     
38   C        27.0668   46.0489   -1.4107  C     
39   C        25.9950   47.5449    0.3661  C     
40   C        25.9459   42.4150   -0.4025  C     
41   C        27.0746   35.3339    2.2306  C     
42   C        27.0800   33.8950    1.6949  C     
43   C        26.2257   34.2556    2.9190  C     
44   H        28.7232   44.7722    1.5327  H     
45   H        31.6768   41.8926    1.8537  H     
46   H        27.9359   40.8457    0.3119  H     
47   H        32.1328   43.3821    3.4584  H     
48   H        33.0866   46.1356    3.0041  H     
49   H        30.8345   39.7717    2.8543  H     
50   H        31.4439   37.4846    1.1041  H     
51   H        28.7660   37.3201    1.6464  H     
52   H        29.6236   35.7880    1.3960  H     
53   H        32.8388   38.3237    3.6594  H     
54   H        33.3691   37.1117    2.5030  H     
55   H        30.0992   37.6007    3.8276  H     
56   H        31.7136   36.2532    4.2311  H     
57   H        34.5535   43.7226    4.1634  H     
58   H        35.2048   45.3612    3.9586  H     
59   H        34.7500   44.4102    2.5376  H     
60   H        34.8012   39.7027    3.6076  H     
61   H        36.1949   41.3243    2.4904  H     
62   H        35.9724   41.6912    0.1054  H     
63   H        34.3648   40.4036   -1.1693  H     
64   H        32.9940   38.7639   -0.0889  H     
65   H        32.9839   47.7296    4.7700  H     
66   H        32.2906   43.6727    5.7432  H     
67   H        31.7299   44.3256    7.9932  H     
68   H        31.8194   46.6579    8.6543  H     
69   H        32.4428   48.3542    7.0321  H     
70   H        28.6904   35.0097    3.4751  H     
71   H        27.9246   36.4708    3.6996  H     
72   H        27.7945   46.4412    0.5616  H     
73   H        27.7011   45.1729   -1.5678  H     
74   H        27.5741   46.9165   -1.8368  H     
75   H        26.1204   45.8988   -1.9333  H     
76   H        25.0153   47.4752   -0.1104  H     
77   H        26.5259   48.4102   -0.0357  H     
78   H        25.8671   47.6861    1.4421  H     
79   H        26.5222   42.0786   -1.2676  H     
80   H        25.0315   42.8680   -0.8005  H     
81   H        25.6214   41.5481    0.1738  H     
82   H        26.4885   36.0536    1.6529  H     
83   H        26.5368   33.7396    0.7610  H     
84   H        27.9875   33.3228    1.8883  H     
85   H        26.5949   33.9054    3.8851  H     
86   H        25.1497   34.3229    2.7502  H     
@<TRIPOS>BOND
     1    1    2 1
     2    1    6 2
     3    1   19 1
     4    2    3 2
     5    3    4 1
     6    3    7 1
     7    4    5 2
     8    5    6 1
     9    5   11 1
    10    7    8 2
    11    7    9 am
    12    9   10 1
    13   10   23 1
    14   10   30 1
    15   11   12 2
    16   11   13 am
    17   13   14 1
    18   14   16 1
    19   14   17 1
    20   15   17 1
    21   15   36 1
    22   16   24 1
    23   17   18 1
    24   19   20 1
    25   19   40 1
    26   20   21 2
    27   20   22 2
    28   20   37 1
    29   24   25 2
    30   24   29 1
    31   25   26 1
    32   26   27 2
    33   27   28 1
    34   28   29 2
    35   30   31 1
    36   30   32 2
    37   31   35 2
    38   32   33 1
    39   33   34 2
    40   34   35 1
    41   36   41 1
    42   37   38 1
    43   37   39 1
    44   41   42 1
    45   41   43 1
    46   42   43 1
    47    2   44 1
    48    4   45 1
    49    6   46 1
    50    9   47 1
    51   10   48 1
    52   13   49 1
    53   14   50 1
    54   15   51 1
    55   15   52 1
    56   16   53 1
    57   16   54 1
    58   17   55 1
    59   18   56 1
    60   23   57 1
    61   23   58 1
    62   23   59 1
    63   25   60 1
    64   26   61 1
    65   27   62 1
    66   28   63 1
    67   29   64 1
    68   31   65 1
    69   32   66 1
    70   33   67 1
    71   34   68 1
    72   35   69 1
    73   36   70 1
    74   36   71 1
    75   37   72 1
    76   38   73 1
    77   38   74 1
    78   38   75 1
    79   39   76 1
    80   39   77 1
    81   39   78 1
    82   40   79 1
    83   40   80 1
    84   40   81 1
    85   41   82 1
    86   42   83 1
    87   42   84 1
    88   43   85 1
    89   43   86 1
@<TRIPOS>PROPERTY_DATA
  Total_Score	| 20.3883
  Crash		| -2.2813
  Polar		| 9.0605
  FragIndex	| 1
  FragRMSD	| 0.447

