@<TRIPOS>MOLECULE
BindingDB_16414
 85 88 0 0 0
SMALL
NO_CHARGES


@<TRIPOS>ATOM
1    C        27.9425   42.9304    0.8505  C     
2    C        28.8553   43.8870    1.3690  C     
3    C        30.1801   43.5702    1.7704  C     
4    C        30.5951   42.2297    1.6350  C     
5    C        29.7452   41.2303    1.1177  C     
6    C        28.4375   41.6043    0.7198  C     
7    C        31.0450   44.5663    2.2318  C     
8    O        30.8992   45.7149    1.8323  O     
9    N        31.9928   44.3034    3.1337  N     
10   C        32.9307   45.2328    3.7280  C     
11   C        30.2005   39.9297    0.9606  C     
12   O        29.9814   39.3374   -0.0899  O     
13   N        30.8264   39.3278    1.9680  N     
14   C        31.4418   38.0244    1.9582  C     
15   C        29.2865   36.5837    2.0520  C     
16   C        32.9337   38.1529    2.4156  C     
17   C        30.5695   37.0360    2.8102  C     
18   O        31.2924   35.8576    3.1689  O     
19   N        26.6277   43.2813    0.4405  N     
20   S        25.9093   44.7633    0.8573  S     
21   O        24.3255   44.8467    0.5733  O     
22   O        26.0086   44.8447    2.4408  O     
23   C        34.3545   44.6166    3.7302  C     
24   C        33.7719   39.1777    1.7106  C     
25   C        34.6949   39.9726    2.4354  C     
26   C        35.5145   40.9157    1.7852  C     
27   C        35.4277   41.0825    0.3930  C     
28   C        34.5303   40.2974   -0.3477  C     
29   C        33.7238   39.3432    0.3042  C     
30   C        32.5309   45.6501    5.1133  C     
31   C        31.9676   44.7315    6.0348  C     
32   C        32.7339   46.9850    5.5512  C     
33   C        32.3742   47.3897    6.8509  C     
34   C        31.7986   46.4661    7.7413  C     
35   C        31.5999   45.1359    7.3344  C     
36   N        28.4005   35.7491    2.8959  N     
37   C        26.4064   47.3994    0.6913  C     
38   C        27.1583   45.9661   -1.1881  C     
39   C        25.8397   42.3845   -0.3807  C     
40   C        27.2244   35.1973    2.1835  C     
41   C        26.3298   34.2771    3.0315  C     
42   C        25.8273   35.6659    2.6215  C     
43   N        26.6760   46.0926    0.1595  N     
44   H        28.5693   44.8545    1.4862  H     
45   H        31.5625   41.9815    1.8773  H     
46   H        27.8374   40.8727    0.3468  H     
47   H        32.0090   43.3953    3.4886  H     
48   H        32.9961   46.1260    3.0989  H     
49   H        30.8722   39.8123    2.8111  H     
50   H        31.4702   37.6169    0.9464  H     
51   H        28.7160   37.4617    1.7354  H     
52   H        29.5783   36.0195    1.1586  H     
53   H        32.9408   38.3463    3.4926  H     
54   H        33.4297   37.1911    2.2639  H     
55   H        30.2707   37.5238    3.7421  H     
56   H        31.8606   36.1337    3.9233  H     
57   H        34.3889   43.7009    4.3270  H     
58   H        35.0723   45.3294    4.1438  H     
59   H        34.6630   44.3818    2.7082  H     
60   H        34.7877   39.8637    3.4459  H     
61   H        36.1753   41.4832    2.3215  H     
62   H        36.0183   41.7713   -0.0820  H     
63   H        34.4689   40.4149   -1.3616  H     
64   H        33.0889   38.7875   -0.2658  H     
65   H        31.8174   43.7569    5.7648  H     
66   H        33.1601   47.6770    4.9291  H     
67   H        32.5274   48.3582    7.1520  H     
68   H        31.5305   46.7573    8.6843  H     
69   H        31.1884   44.4597    7.9805  H     
70   H        28.9367   34.9678    3.2851  H     
71   H        28.0708   36.3361    3.6659  H     
72   H        25.4335   47.7452    0.3394  H     
73   H        27.1640   48.1240    0.3847  H     
74   H        26.3972   47.3920    1.7833  H     
75   H        27.7173   45.0390   -1.3226  H     
76   H        27.8360   46.7807   -1.4561  H     
77   H        26.3168   45.9663   -1.8833  H     
78   H        26.4097   42.0818   -1.2597  H     
79   H        24.9019   42.8051   -0.7487  H     
80   H        25.5741   41.4984    0.1943  H     
81   H        27.3243   34.8442    1.1525  H     
82   H        25.8671   33.4391    2.5049  H     
83   H        26.6233   34.1535    4.0759  H     
84   H        25.8064   36.4262    3.4047  H     
85   H        25.0730   35.6875    1.8330  H     
@<TRIPOS>BOND
     1    1    2 1
     2    1    6 2
     3    1   19 1
     4    2    3 2
     5    3    4 1
     6    3    7 1
     7    4    5 2
     8    5    6 1
     9    5   11 1
    10    7    8 2
    11    7    9 am
    12    9   10 1
    13   10   23 1
    14   10   30 1
    15   11   12 2
    16   11   13 am
    17   13   14 1
    18   14   16 1
    19   14   17 1
    20   15   17 1
    21   15   36 1
    22   16   24 1
    23   17   18 1
    24   19   20 1
    25   19   39 1
    26   20   21 2
    27   20   22 2
    28   20   43 1
    29   24   25 2
    30   24   29 1
    31   25   26 1
    32   26   27 2
    33   27   28 1
    34   28   29 2
    35   30   31 1
    36   30   32 2
    37   31   35 2
    38   32   33 1
    39   33   34 2
    40   34   35 1
    41   36   40 1
    42   37   43 1
    43   38   43 1
    44   40   41 1
    45   40   42 1
    46   41   42 1
    47    2   44 1
    48    4   45 1
    49    6   46 1
    50    9   47 1
    51   10   48 1
    52   13   49 1
    53   14   50 1
    54   15   51 1
    55   15   52 1
    56   16   53 1
    57   16   54 1
    58   17   55 1
    59   18   56 1
    60   23   57 1
    61   23   58 1
    62   23   59 1
    63   25   60 1
    64   26   61 1
    65   27   62 1
    66   28   63 1
    67   29   64 1
    68   31   65 1
    69   32   66 1
    70   33   67 1
    71   34   68 1
    72   35   69 1
    73   36   70 1
    74   36   71 1
    75   37   72 1
    76   37   73 1
    77   37   74 1
    78   38   75 1
    79   38   76 1
    80   38   77 1
    81   39   78 1
    82   39   79 1
    83   39   80 1
    84   40   81 1
    85   41   82 1
    86   41   83 1
    87   42   84 1
    88   42   85 1
@<TRIPOS>PROPERTY_DATA
  Total_Score	| 20.9330
  Crash		| -2.2274
  Polar		| 8.8280
  FragIndex	| 1
  FragRMSD	| 0.505

