@<TRIPOS>MOLECULE
BindingDB_16411
 79 81 0 0 0
SMALL
NO_CHARGES


@<TRIPOS>ATOM
1    C        28.0478   42.9358    0.7452  C     
2    C        28.9774   43.8805    1.2620  C     
3    C        30.2705   43.5178    1.7163  C     
4    C        30.6439   42.1529    1.6172  C     
5    C        29.7749   41.1789    1.0632  C     
6    C        28.4890   41.5859    0.6457  C     
7    C        31.1667   44.4720    2.2211  C     
8    O        31.0062   45.6559    1.9266  O     
9    N        32.1464   44.1561    3.0691  N     
10   C        33.1298   45.0370    3.6532  C     
11   C        30.1840   39.8576    0.9451  C     
12   O        29.9950   39.2631   -0.1107  O     
13   N        30.7543   39.2663    1.9864  N     
14   C        31.3450   37.9552    2.0531  C     
15   C        29.1707   36.5061    2.1315  C     
16   C        32.8004   38.1010    2.6000  C     
17   C        30.4095   37.0475    2.9262  C     
18   O        31.0677   35.8909    3.4702  O     
19   N        26.7582   43.3136    0.3191  N     
20   C        26.4376   46.2703    0.1447  C     
21   S        25.9614   44.7019    0.9102  S     
22   O        24.3835   44.5712    0.6878  O     
23   O        26.0451   44.7933    2.4978  O     
24   C        34.4948   44.3117    3.7461  C     
25   C        33.6653   39.0877    1.8933  C     
26   C        33.5230   39.3434    0.5082  C     
27   C        34.3349   40.2867   -0.1485  C     
28   C        35.3414   40.9630    0.5655  C     
29   C        35.5129   40.7056    1.9388  C     
30   C        34.6683   39.7973    2.6004  C     
31   C        32.6545   45.5030    4.9877  C     
32   C        31.9322   44.6365    5.8528  C     
33   C        32.9023   46.8277    5.4269  C     
34   C        32.4309   47.2798    6.6666  C     
35   C        31.7039   46.4146    7.5076  C     
36   C        31.4598   45.0919    7.0909  C     
37   F        31.2580   46.8321    8.6570  F     
38   N        28.2366   35.8066    3.0566  N     
39   C        26.9495   35.3188    2.4950  C     
40   C        25.8862   36.4392    2.3965  C     
41   C        25.9971   42.5088   -0.6154  C     
42   H        28.7060   44.8633    1.3189  H     
43   H        31.5891   41.8660    1.8867  H     
44   H        27.8471   40.8684    0.2934  H     
45   H        32.1445   43.2362    3.3938  H     
46   H        33.2982   45.8949    2.9898  H     
47   H        30.7759   39.7841    2.8073  H     
48   H        31.4307   37.5182    1.0552  H     
49   H        28.6685   37.3435    1.6140  H     
50   H        29.5276   35.7764    1.3729  H     
51   H        32.7398   38.3617    3.6584  H     
52   H        33.2925   37.1297    2.5398  H     
53   H        30.0315   37.6286    3.7784  H     
54   H        31.6588   36.2535    4.1666  H     
55   H        27.4922   46.4626    0.3210  H     
56   H        25.8423   47.0770    0.5724  H     
57   H        26.2544   46.2177   -0.9278  H     
58   H        34.4153   43.4142    4.3659  H     
59   H        35.2477   44.9683    4.1860  H     
60   H        34.8333   44.0206    2.7492  H     
61   H        32.8251   38.8496   -0.0378  H     
62   H        34.2066   40.4692   -1.1455  H     
63   H        35.9526   41.6354    0.0829  H     
64   H        36.2490   41.1899    2.4472  H     
65   H        34.8038   39.6488    3.5999  H     
66   H        31.7345   43.6733    5.5701  H     
67   H        33.4295   47.4782    4.8342  H     
68   H        32.6092   48.2446    6.9603  H     
69   H        30.9285   44.4588    7.6935  H     
70   H        28.7468   35.0054    3.4489  H     
71   H        28.0103   36.4378    3.8230  H     
72   H        27.1140   34.8549    1.5157  H     
73   H        26.5794   34.5450    3.1734  H     
74   H        25.7614   36.9177    3.3779  H     
75   H        24.9303   36.0088    2.0697  H     
76   H        26.1997   37.1887    1.6631  H     
77   H        26.6406   42.1205   -1.4107  H     
78   H        25.1874   43.0680   -1.0969  H     
79   H        25.5449   41.6755   -0.0744  H     
@<TRIPOS>BOND
     1    1    2 1
     2    1    6 2
     3    1   19 1
     4    2    3 2
     5    3    4 1
     6    3    7 1
     7    4    5 2
     8    5    6 1
     9    5   11 1
    10    7    8 2
    11    7    9 am
    12    9   10 1
    13   10   24 1
    14   10   31 1
    15   11   12 2
    16   11   13 am
    17   13   14 1
    18   14   16 1
    19   14   17 1
    20   15   17 1
    21   15   38 1
    22   16   25 1
    23   17   18 1
    24   19   21 1
    25   19   41 1
    26   20   21 1
    27   21   22 2
    28   21   23 2
    29   25   26 2
    30   25   30 1
    31   26   27 1
    32   27   28 2
    33   28   29 1
    34   29   30 2
    35   31   32 1
    36   31   33 2
    37   32   36 2
    38   33   34 1
    39   34   35 2
    40   35   36 1
    41   35   37 1
    42   38   39 1
    43   39   40 1
    44    2   42 1
    45    4   43 1
    46    6   44 1
    47    9   45 1
    48   10   46 1
    49   13   47 1
    50   14   48 1
    51   15   49 1
    52   15   50 1
    53   16   51 1
    54   16   52 1
    55   17   53 1
    56   18   54 1
    57   20   55 1
    58   20   56 1
    59   20   57 1
    60   24   58 1
    61   24   59 1
    62   24   60 1
    63   26   61 1
    64   27   62 1
    65   28   63 1
    66   29   64 1
    67   30   65 1
    68   32   66 1
    69   33   67 1
    70   34   68 1
    71   36   69 1
    72   38   70 1
    73   38   71 1
    74   39   72 1
    75   39   73 1
    76   40   74 1
    77   40   75 1
    78   40   76 1
    79   41   77 1
    80   41   78 1
    81   41   79 1
@<TRIPOS>PROPERTY_DATA
  Total_Score	| 18.5664
  Crash		| -2.0440
  Polar		| 8.7356
  FragIndex	| 1
  FragRMSD	| 0.386

