@<TRIPOS>MOLECULE
BindingDB_16028
 78 81 0 0 0
SMALL
NO_CHARGES


@<TRIPOS>ATOM
1    C        27.8746   42.9270    0.5221  C     
2    C        28.8437   43.9464    0.7207  C     
3    C        30.1991   43.6972    1.0570  C     
4    C        30.5812   42.3336    1.1654  C     
5    C        29.6900   41.2741    0.8915  C     
6    C        28.3480   41.5905    0.5842  C     
7    N        26.5372   43.2311    0.2362  N     
8    C        25.7281   42.3561   -0.5834  C     
9    C        26.1325   46.1502   -0.0763  C     
10   S        25.7652   44.6277    0.8329  S     
11   O        24.1804   44.4554    0.8561  O     
12   O        26.0918   44.8259    2.3767  O     
13   C        30.1393   39.9546    0.8682  C     
14   O        30.0046   39.3090   -0.1647  O     
15   C        31.1034   44.7753    1.2410  C     
16   N        30.7037   39.4192    1.9450  N     
17   C        31.3380   38.1243    2.0309  C     
18   C        30.4324   37.1540    2.8638  C     
19   C        29.1813   36.6866    2.0685  C     
20   N        28.2906   35.8493    2.9033  N     
21   C        27.1654   35.2500    2.1591  C     
22   C        26.2856   34.2975    2.9812  C     
23   C        25.7415   35.6702    2.5532  C     
24   O        31.1510   35.9870    3.2714  O     
25   C        32.7766   38.2781    2.6140  C     
26   C        33.6620   39.2380    1.8887  C     
27   C        33.5677   39.3978    0.4864  C     
28   C        34.6202   40.0070    2.5898  C     
29   C        35.4564   40.9092    1.9065  C     
30   C        35.3429   41.0637    0.5160  C     
31   C        34.3945   40.3117   -0.1940  C     
32   C        32.2179   44.7785    2.1969  C     
33   C        33.7517   45.4317    4.6929  C     
34   C        34.1452   46.0377    3.3239  C     
35   C        32.9234   46.1609    2.3762  C     
36   C        31.7595   44.2569    3.5929  C     
37   C        32.9617   44.1069    4.5596  C     
38   O        30.8978   45.8228    0.6334  O     
39   H        28.5396   44.9174    0.6102  H     
40   H        31.5445   42.0873    1.3854  H     
41   H        27.6957   40.8201    0.4327  H     
42   H        26.2911   42.0141   -1.4553  H     
43   H        24.8181   42.8276   -0.9668  H     
44   H        25.4288   41.4817    0.0029  H     
45   H        27.2074   46.3418   -0.0746  H     
46   H        25.6155   46.9857    0.4024  H     
47   H        25.7853   46.0506   -1.1042  H     
48   H        30.7074   39.9570    2.7566  H     
49   H        31.4556   37.6831    1.0383  H     
50   H        30.0986   37.6625    3.7749  H     
51   H        28.6146   37.5599    1.7326  H     
52   H        29.5066   36.1231    1.1888  H     
53   H        28.8401   35.0974    3.3281  H     
54   H        27.9278   36.4502    3.6441  H     
55   H        27.3133   34.9041    1.1330  H     
56   H        25.8757   33.4409    2.4406  H     
57   H        26.5612   34.1840    4.0293  H     
58   H        25.6746   36.4324    3.3300  H     
59   H        25.0180   35.6687    1.7378  H     
60   H        31.7250   36.2734    4.0158  H     
61   H        32.6927   38.5628    3.6673  H     
62   H        33.2701   37.3027    2.5894  H     
63   H        32.8866   38.8616   -0.0511  H     
64   H        34.7177   39.9139    3.6048  H     
65   H        36.1454   41.4577    2.4251  H     
66   H        35.9515   41.7236    0.0237  H     
67   H        34.3019   40.4297   -1.2037  H     
68   H        32.9981   44.1220    1.8002  H     
69   H        34.6593   45.2439    5.2641  H     
70   H        33.1444   46.1579    5.2420  H     
71   H        34.5717   47.0295    3.4784  H     
72   H        34.9110   45.4172    2.8517  H     
73   H        33.2604   46.5300    1.4017  H     
74   H        32.2219   46.8946    2.7870  H     
75   H        31.0364   44.9506    4.0244  H     
76   H        31.2572   43.2942    3.4961  H     
77   H        33.6237   43.3216    4.1950  H     
78   H        32.5981   43.8014    5.5403  H     
@<TRIPOS>BOND
     1    1    2 1
     2    1    6 2
     3    1    7 1
     4    2    3 2
     5    3    4 1
     6    3   15 1
     7    4    5 2
     8    5    6 1
     9    5   13 1
    10    7    8 1
    11    7   10 1
    12    9   10 1
    13   10   11 2
    14   10   12 2
    15   13   14 2
    16   13   16 am
    17   15   32 1
    18   15   38 2
    19   16   17 1
    20   17   18 1
    21   17   25 1
    22   18   19 1
    23   18   24 1
    24   19   20 1
    25   20   21 1
    26   21   22 1
    27   21   23 1
    28   22   23 1
    29   25   26 1
    30   26   27 1
    31   26   28 2
    32   27   31 2
    33   28   29 1
    34   29   30 2
    35   30   31 1
    36   32   35 1
    37   32   36 1
    38   33   34 1
    39   33   37 1
    40   34   35 1
    41   36   37 1
    42    2   39 1
    43    4   40 1
    44    6   41 1
    45    8   42 1
    46    8   43 1
    47    8   44 1
    48    9   45 1
    49    9   46 1
    50    9   47 1
    51   16   48 1
    52   17   49 1
    53   18   50 1
    54   19   51 1
    55   19   52 1
    56   20   53 1
    57   20   54 1
    58   21   55 1
    59   22   56 1
    60   22   57 1
    61   23   58 1
    62   23   59 1
    63   24   60 1
    64   25   61 1
    65   25   62 1
    66   27   63 1
    67   28   64 1
    68   29   65 1
    69   30   66 1
    70   31   67 1
    71   32   68 1
    72   33   69 1
    73   33   70 1
    74   34   71 1
    75   34   72 1
    76   35   73 1
    77   35   74 1
    78   36   75 1
    79   36   76 1
    80   37   77 1
    81   37   78 1
@<TRIPOS>PROPERTY_DATA
  Total_Score	| 17.8764
  Crash		| -3.0263
  Polar		| 8.2067
  FragIndex	| 1
  FragRMSD	| 0.583

