@<TRIPOS>MOLECULE
BindingDB_16021
 68 70 0 0 0
SMALL
NO_CHARGES


@<TRIPOS>ATOM
1    C        27.9123   42.9815    0.5721  C     
2    C        28.8473   44.0028    0.8688  C     
3    C        30.1749   43.7336    1.2920  C     
4    C        30.5853   42.3755    1.3674  C     
5    C        29.7174   41.3194    0.9886  C     
6    C        28.3868   41.6420    0.6163  C     
7    N        26.5874   43.2732    0.2466  N     
8    C        25.8018   42.4061   -0.5993  C     
9    C        26.2032   46.1665   -0.0564  C     
10   S        25.8090   44.6574    0.8473  S     
11   O        24.2186   44.4994    0.8024  O     
12   O        26.0765   44.8369    2.4088  O     
13   C        30.1698   40.0053    0.9333  C     
14   O        30.0021   39.3740   -0.1104  O     
15   C        31.0374   44.7865    1.6307  C     
16   O        31.0228   45.7976    0.9392  O     
17   N        30.7474   39.4331    1.9894  N     
18   C        31.3286   38.1176    2.0250  C     
19   C        30.4409   37.1593    2.8914  C     
20   C        29.2100   36.6363    2.0955  C     
21   N        28.2960   35.8303    2.9362  N     
22   C        27.1639   35.2444    2.1860  C     
23   C        25.7473   35.6759    2.6017  C     
24   C        26.2688   34.2842    2.9868  C     
25   O        31.1770   36.0153    3.3422  O     
26   C        32.8059   38.2274    2.5210  C     
27   C        33.7055   39.1980    1.8257  C     
28   C        34.7288   39.8489    2.5606  C     
29   C        33.6300   39.4483    0.4328  C     
30   C        34.5108   40.3519   -0.1930  C     
31   C        35.5073   40.9982    0.5555  C     
32   C        35.6190   40.7402    1.9322  C     
33   C        32.6946   46.0383    3.1335  C     
34   C        31.8393   44.7773    2.8502  C     
35   H        28.5426   44.9846    0.7732  H     
36   H        31.5457   42.1479    1.6346  H     
37   H        27.7441   40.8743    0.3941  H     
38   H        26.4022   42.0302   -1.4330  H     
39   H        24.9250   42.8984   -1.0362  H     
40   H        25.4352   41.5586   -0.0150  H     
41   H        27.2739   46.3662    0.0531  H     
42   H        25.6152   46.9994    0.3437  H     
43   H        25.9530   46.0258   -1.1144  H     
44   H        30.7829   39.9585    2.8059  H     
45   H        31.3839   37.6787    1.0247  H     
46   H        30.0881   37.6961    3.7792  H     
47   H        28.6493   37.4853    1.6977  H     
48   H        29.5644   36.0271    1.2586  H     
49   H        28.8185   35.0724    3.3878  H     
50   H        27.9251   36.4455    3.6617  H     
51   H        27.2918   34.9375    1.1441  H     
52   H        25.6948   36.4146    3.4036  H     
53   H        25.0206   35.7132    1.7889  H     
54   H        25.8352   33.4531    2.4264  H     
55   H        26.5264   34.1442    4.0380  H     
56   H        31.7317   36.3351    4.0846  H     
57   H        32.7735   38.4639    3.5897  H     
58   H        33.2851   37.2469    2.4276  H     
59   H        34.8370   39.6705    3.5614  H     
60   H        32.9292   38.9813   -0.1442  H     
61   H        34.4292   40.5393   -1.1949  H     
62   H        36.1517   41.6469    0.0991  H     
63   H        36.3535   41.2035    2.4742  H     
64   H        33.4415   46.1679    2.3455  H     
65   H        33.2133   45.9275    4.0925  H     
66   H        32.0637   46.9265    3.1808  H     
67   H        31.1663   44.6361    3.7040  H     
68   H        32.5283   43.9253    2.8160  H     
@<TRIPOS>BOND
     1    1    2 1
     2    1    6 2
     3    1    7 1
     4    2    3 2
     5    3    4 1
     6    3   15 1
     7    4    5 2
     8    5    6 1
     9    5   13 1
    10    7    8 1
    11    7   10 1
    12    9   10 1
    13   10   11 2
    14   10   12 2
    15   13   14 2
    16   13   17 am
    17   15   16 2
    18   15   34 1
    19   17   18 1
    20   18   19 1
    21   18   26 1
    22   19   20 1
    23   19   25 1
    24   20   21 1
    25   21   22 1
    26   22   23 1
    27   22   24 1
    28   23   24 1
    29   26   27 1
    30   27   28 1
    31   27   29 2
    32   28   32 2
    33   29   30 1
    34   30   31 2
    35   31   32 1
    36   33   34 1
    37    2   35 1
    38    4   36 1
    39    6   37 1
    40    8   38 1
    41    8   39 1
    42    8   40 1
    43    9   41 1
    44    9   42 1
    45    9   43 1
    46   17   44 1
    47   18   45 1
    48   19   46 1
    49   20   47 1
    50   20   48 1
    51   21   49 1
    52   21   50 1
    53   22   51 1
    54   23   52 1
    55   23   53 1
    56   24   54 1
    57   24   55 1
    58   25   56 1
    59   26   57 1
    60   26   58 1
    61   28   59 1
    62   29   60 1
    63   30   61 1
    64   31   62 1
    65   32   63 1
    66   33   64 1
    67   33   65 1
    68   33   66 1
    69   34   67 1
    70   34   68 1
@<TRIPOS>PROPERTY_DATA
  Total_Score	| 16.3405
  Crash		| -1.6490
  Polar		| 8.1112
  FragIndex	| 1
  FragRMSD	| 0.504

