@<TRIPOS>MOLECULE
BindingDB_16022
 75 78 0 0 0
SMALL
NO_CHARGES


@<TRIPOS>ATOM
1    C        28.1711   43.1603    0.4849  C     
2    C        28.3807   41.7603    0.5054  C     
3    C        29.6077   41.2026    0.9393  C     
4    C        30.6422   42.0798    1.3267  C     
5    C        30.4794   43.4811    1.3026  C     
6    C        29.2371   44.0047    0.8725  C     
7    N        26.9591   43.6885    0.1063  N     
8    C        26.3107   43.2191   -1.0868  C     
9    C        26.6638   46.5425    0.5783  C     
10   S        26.2031   44.8672    1.0622  S     
11   O        24.6217   44.7159    0.9768  O     
12   O        26.5152   44.6569    2.6108  O     
13   C        31.4911   44.3082    1.7651  C     
14   O        31.6409   45.4571    1.3580  O     
15   C        29.7991   39.8213    0.9562  C     
16   O        29.9041   39.2469   -0.1210  O     
17   N        32.1490   43.9155    2.8464  N     
18   C        33.0336   44.6469    3.7070  C     
19   C        32.7148   46.1838    3.7280  C     
20   C        32.8979   46.8873    5.0921  C     
21   N        31.7445   46.7097    5.9950  N     
22   C        31.6760   47.7440    7.0452  C     
23   C        31.1162   47.2897    8.4006  C     
24   C        32.6055   47.6364    8.2705  C     
25   O        33.5376   46.9260    2.8179  O     
26   C        34.5193   44.2307    3.4463  C     
27   C        34.6883   42.8063    3.0238  C     
28   C        35.4351   42.4645    1.8690  C     
29   C        34.0151   41.7638    3.7096  C     
30   C        34.0841   40.4256    3.2640  C     
31   C        34.8400   40.1132    2.1219  C     
32   C        35.5139   41.1295    1.4220  C     
33   C        30.1198   39.0936    2.1835  C     
34   C        29.6496   37.6789    2.1856  C     
35   C        28.2713   37.3751    2.0877  C     
36   C        27.8231   36.0419    2.0723  C     
37   C        28.7509   34.9900    2.1610  C     
38   C        30.1239   35.2713    2.2666  C     
39   C        30.5657   36.6072    2.2949  C     
40   H        27.6113   41.1409    0.2505  H     
41   H        31.5453   41.6791    1.6106  H     
42   H        29.0907   45.0227    0.8733  H     
43   H        26.9781   43.3450   -1.9413  H     
44   H        25.3988   43.7656   -1.3109  H     
45   H        26.0476   42.1642   -1.0000  H     
46   H        27.7400   46.6741    0.7015  H     
47   H        26.1352   47.2683    1.1965  H     
48   H        26.3972   46.6978   -0.4698  H     
49   H        31.8893   43.0468    3.1876  H     
50   H        32.7739   44.2663    4.7004  H     
51   H        31.6504   46.2961    3.3824  H     
52   H        33.7916   46.5096    5.5758  H     
53   H        33.0231   47.9643    4.9124  H     
54   H        30.8965   46.7704    5.4276  H     
55   H        31.7773   45.7821    6.4257  H     
56   H        31.4108   48.7650    6.7537  H     
57   H        30.4960   48.0210    8.9265  H     
58   H        30.9053   46.2279    8.4942  H     
59   H        33.2719   46.7757    8.3099  H     
60   H        32.9047   48.5819    8.7285  H     
61   H        33.2949   46.6331    1.9197  H     
62   H        34.9543   44.8896    2.6840  H     
63   H        35.1023   44.3960    4.3557  H     
64   H        35.9145   43.1815    1.3278  H     
65   H        33.4552   41.9778    4.5425  H     
66   H        33.5939   39.6919    3.7771  H     
67   H        34.8994   39.1480    1.7977  H     
68   H        36.0654   40.8997    0.5814  H     
69   H        31.2031   39.1397    2.3151  H     
70   H        29.6624   39.5962    3.0415  H     
71   H        27.5825   38.1278    1.9929  H     
72   H        26.8280   35.8370    1.9808  H     
73   H        28.4314   34.0200    2.1369  H     
74   H        30.8023   34.5085    2.3158  H     
75   H        31.5731   36.7911    2.3725  H     
@<TRIPOS>BOND
     1    1    2 1
     2    1    6 2
     3    1    7 1
     4    2    3 2
     5    3    4 1
     6    3   15 1
     7    4    5 2
     8    5    6 1
     9    5   13 1
    10    7    8 1
    11    7   10 1
    12    9   10 1
    13   10   11 2
    14   10   12 2
    15   13   14 2
    16   13   17 am
    17   15   16 2
    18   15   33 1
    19   17   18 1
    20   18   19 1
    21   18   26 1
    22   19   20 1
    23   19   25 1
    24   20   21 1
    25   21   22 1
    26   22   23 1
    27   22   24 1
    28   23   24 1
    29   26   27 1
    30   27   28 1
    31   27   29 2
    32   28   32 2
    33   29   30 1
    34   30   31 2
    35   31   32 1
    36   33   34 1
    37   34   35 2
    38   34   39 1
    39   35   36 1
    40   36   37 2
    41   37   38 1
    42   38   39 2
    43    2   40 1
    44    4   41 1
    45    6   42 1
    46    8   43 1
    47    8   44 1
    48    8   45 1
    49    9   46 1
    50    9   47 1
    51    9   48 1
    52   17   49 1
    53   18   50 1
    54   19   51 1
    55   20   52 1
    56   20   53 1
    57   21   54 1
    58   21   55 1
    59   22   56 1
    60   23   57 1
    61   23   58 1
    62   24   59 1
    63   24   60 1
    64   25   61 1
    65   26   62 1
    66   26   63 1
    67   28   64 1
    68   29   65 1
    69   30   66 1
    70   31   67 1
    71   32   68 1
    72   33   69 1
    73   33   70 1
    74   35   71 1
    75   36   72 1
    76   37   73 1
    77   38   74 1
    78   39   75 1
@<TRIPOS>PROPERTY_DATA
  Total_Score	| 12.8221
  Crash		| -3.5857
  Polar		| 5.5408
  FragIndex	| 1
  FragRMSD	| 0.560

