@<TRIPOS>MOLECULE
BindingDB_16410
 73 75 0 0 0
SMALL
NO_CHARGES


@<TRIPOS>ATOM
1    C        28.3850   43.2358    0.5390  C     
2    C        29.3214   44.1188    1.1193  C     
3    C        30.5606   43.6837    1.6638  C     
4    C        30.8470   42.2890    1.5938  C     
5    C        29.9639   41.3625    0.9984  C     
6    C        28.7431   41.8624    0.4715  C     
7    C        31.4604   44.6035    2.2486  C     
8    O        31.1321   45.7808    2.3353  O     
9    N        32.6504   44.2385    2.7268  N     
10   C        33.5988   45.0715    3.4094  C     
11   C        30.2875   40.0182    0.9319  C     
12   O        30.1008   39.4073   -0.1124  O     
13   N        30.7841   39.4043    1.9930  N     
14   C        31.3473   38.0858    2.0383  C     
15   C        29.1807   36.6604    2.1533  C     
16   C        32.8202   38.1817    2.5548  C     
17   C        30.4459   37.1624    2.9075  C     
18   O        31.1823   36.0055    3.3189  O     
19   N        27.1726   43.6787    0.0329  N     
20   C        26.5604   46.4866    0.4599  C     
21   S        26.2292   44.7774    0.9077  S     
22   O        24.6795   44.4997    0.6706  O     
23   O        26.4266   44.6185    2.4729  O     
24   C        34.9663   44.3415    3.4637  C     
25   C        33.6998   39.1712    1.8530  C     
26   C        34.6978   39.8719    2.5729  C     
27   C        35.5819   40.7427    1.9240  C     
28   C        35.4557   40.9741    0.5406  C     
29   C        34.4540   40.3078   -0.1893  C     
30   C        33.5995   39.3980    0.4524  C     
31   N        28.3278   35.8289    3.0165  N     
32   C        33.1128   45.4591    4.7780  C     
33   C        32.9772   46.8173    5.1558  C     
34   C        32.7370   44.4602    5.7153  C     
35   C        32.2508   44.8111    6.9861  C     
36   C        32.1227   46.1657    7.3418  C     
37   C        32.4867   47.1690    6.4249  C     
38   F        31.6714   46.4904    8.5282  F     
39   C        26.6419   43.1930   -1.2109  C     
40   H        29.0934   45.1162    1.1233  H     
41   H        31.7255   41.9426    1.9710  H     
42   H        28.0734   41.1880    0.0602  H     
43   H        32.8936   43.3144    2.6240  H     
44   H        33.7677   45.9692    2.7952  H     
45   H        30.8279   39.9199    2.8222  H     
46   H        31.3962   37.6483    1.0521  H     
47   H        28.5778   37.5048    1.8091  H     
48   H        29.4802   36.0704    1.2809  H     
49   H        32.8013   38.3962    3.6307  H     
50   H        33.3000   37.2054    2.4429  H     
51   H        30.1234   37.6972    3.8100  H     
52   H        31.7647   36.3327    4.0613  H     
53   H        27.6128   46.7237    0.7047  H     
54   H        25.8913   47.1596    1.0193  H     
55   H        26.4001   46.6326   -0.6189  H     
56   H        34.9084   43.4173    4.0445  H     
57   H        35.7302   44.9831    3.9101  H     
58   H        35.2863   44.0898    2.4498  H     
59   H        34.7991   39.7248    3.5780  H     
60   H        36.3137   41.2130    2.4452  H     
61   H        36.0945   41.6263    0.0667  H     
62   H        34.3680   40.4789   -1.1942  H     
63   H        32.9036   38.9058   -0.1049  H     
64   H        28.8874   35.1071    3.4723  H     
65   H        27.5969   35.3901    2.4526  H     
66   H        27.8977   36.4270    3.7172  H     
67   H        33.2270   47.5610    4.5015  H     
68   H        32.8099   43.4723    5.4739  H     
69   H        31.9890   44.0794    7.6478  H     
70   H        32.3871   48.1559    6.6783  H     
71   H        27.4383   43.1316   -1.9652  H     
72   H        25.8473   43.8280   -1.6246  H     
73   H        26.2189   42.1923   -1.0632  H     
@<TRIPOS>BOND
     1    1    2 1
     2    1    6 2
     3    1   19 1
     4    2    3 2
     5    3    4 1
     6    3    7 1
     7    4    5 2
     8    5    6 1
     9    5   11 1
    10    7    8 2
    11    7    9 am
    12    9   10 1
    13   10   24 1
    14   10   32 1
    15   11   12 2
    16   11   13 am
    17   13   14 1
    18   14   16 1
    19   14   17 1
    20   15   17 1
    21   15   31 1
    22   16   25 1
    23   17   18 1
    24   19   21 1
    25   19   39 1
    26   20   21 1
    27   21   22 2
    28   21   23 2
    29   25   26 2
    30   25   30 1
    31   26   27 1
    32   27   28 2
    33   28   29 1
    34   29   30 2
    35   32   33 1
    36   32   34 2
    37   33   37 2
    38   34   35 1
    39   35   36 2
    40   36   37 1
    41   36   38 1
    42    2   40 1
    43    4   41 1
    44    6   42 1
    45    9   43 1
    46   10   44 1
    47   13   45 1
    48   14   46 1
    49   15   47 1
    50   15   48 1
    51   16   49 1
    52   16   50 1
    53   17   51 1
    54   18   52 1
    55   20   53 1
    56   20   54 1
    57   20   55 1
    58   24   56 1
    59   24   57 1
    60   24   58 1
    61   26   59 1
    62   27   60 1
    63   28   61 1
    64   29   62 1
    65   30   63 1
    66   31   64 1
    67   31   65 1
    68   31   66 1
    69   33   67 1
    70   34   68 1
    71   35   69 1
    72   37   70 1
    73   39   71 1
    74   39   72 1
    75   39   73 1
@<TRIPOS>PROPERTY_DATA
  Total_Score	| 16.5688
  Crash		| -1.5820
  Polar		| 7.2453
  FragIndex	| 1
  FragRMSD	| 0.165

