@<TRIPOS>MOLECULE
BindingDB_16029
 71 73 0 0 0
SMALL
NO_CHARGES


@<TRIPOS>ATOM
1    C        27.9037   43.0404    0.5175  C     
2    C        28.2369   41.6678    0.5112  C     
3    C        29.4665   41.1971    1.0151  C     
4    C        30.3677   42.1444    1.5546  C     
5    C        30.1146   43.5435    1.5291  C     
6    C        28.8671   43.9555    0.9965  C     
7    N        26.6782   43.4751    0.0603  N     
8    C        26.0098   42.8352   -1.0423  C     
9    C        26.4280   46.3853    0.3434  C     
10   S        25.8636   44.7452    0.8406  S     
11   O        24.2976   44.6455    0.5762  O     
12   O        25.9685   44.6232    2.4262  O     
13   C        31.0772   44.4865    1.9312  C     
14   O        31.1437   45.5678    1.3515  O     
15   C        29.7947   39.8418    0.9661  C     
16   N        31.9286   44.2464    2.9220  N     
17   C        33.1039   44.9893    3.2990  C     
18   C        34.1779   43.9920    3.8810  C     
19   C        35.3051   43.6209    2.8741  C     
20   N        34.9222   42.8538    1.6675  N     
21   C        34.4130   41.5026    1.9475  C     
22   C        34.6903   40.3847    0.9341  C     
23   C        35.4128   40.3922    2.2884  C     
24   O        34.8335   44.4922    5.0478  O     
25   C        32.8236   46.2425    4.2008  C     
26   C        32.3900   46.0826    5.6209  C     
27   C        31.7564   44.9200    6.1265  C     
28   C        32.6264   47.1498    6.5215  C     
29   C        32.3054   47.0409    7.8831  C     
30   C        31.6895   45.8727    8.3639  C     
31   C        31.3868   44.8303    7.4787  C     
32   C        30.0515   39.0307    2.1633  C     
33   C        29.1606   37.7554    2.1766  C     
34   C        31.5564   38.6558    2.2851  C     
35   O        29.8798   39.2999   -0.1316  O     
36   H        27.5468   40.9965    0.1656  H     
37   H        31.2447   41.7939    1.9296  H     
38   H        28.6536   44.9546    0.9386  H     
39   H        26.6986   42.2395   -1.6546  H     
40   H        25.5536   43.5826   -1.7022  H     
41   H        25.2245   42.1719   -0.6648  H     
42   H        27.4832   46.5113    0.5881  H     
43   H        25.8456   47.1408    0.8677  H     
44   H        26.2914   46.5063   -0.7315  H     
45   H        31.7669   43.4395    3.4249  H     
46   H        33.5105   45.3996    2.3697  H     
47   H        33.7058   43.0497    4.2028  H     
48   H        35.7551   44.5514    2.5244  H     
49   H        36.0776   43.0549    3.4039  H     
50   H        34.1891   43.3649    1.1611  H     
51   H        35.7474   42.7747    1.0592  H     
52   H        33.4405   41.4449    2.4260  H     
53   H        33.8995   39.6385    0.8335  H     
54   H        35.3108   40.6471    0.0707  H     
55   H        36.4718   40.6686    2.2589  H     
56   H        35.0678   39.6511    3.0197  H     
57   H        35.3440   45.2731    4.7470  H     
58   H        33.7544   46.8221    4.2075  H     
59   H        32.0881   46.8856    3.7150  H     
60   H        31.5406   44.1292    5.5245  H     
61   H        33.0572   48.0145    6.1918  H     
62   H        32.5256   47.8034    8.5243  H     
63   H        31.4616   45.7947    9.3601  H     
64   H        30.9164   43.9908    7.8151  H     
65   H        29.7845   39.6060    3.0586  H     
66   H        28.1040   38.0217    2.0549  H     
67   H        29.2709   37.2314    3.1318  H     
68   H        29.4460   37.0747    1.3696  H     
69   H        31.8870   38.0648    1.4241  H     
70   H        31.7227   38.0707    3.1967  H     
71   H        32.1688   39.5586    2.3429  H     
@<TRIPOS>BOND
     1    1    2 1
     2    1    6 2
     3    1    7 1
     4    2    3 2
     5    3    4 1
     6    3   15 1
     7    4    5 2
     8    5    6 1
     9    5   13 1
    10    7    8 1
    11    7   10 1
    12    9   10 1
    13   10   11 2
    14   10   12 2
    15   13   14 2
    16   13   16 am
    17   15   32 1
    18   15   35 2
    19   16   17 1
    20   17   18 1
    21   17   25 1
    22   18   19 1
    23   18   24 1
    24   19   20 1
    25   20   21 1
    26   21   22 1
    27   21   23 1
    28   22   23 1
    29   25   26 1
    30   26   27 1
    31   26   28 2
    32   27   31 2
    33   28   29 1
    34   29   30 2
    35   30   31 1
    36   32   33 1
    37   32   34 1
    38    2   36 1
    39    4   37 1
    40    6   38 1
    41    8   39 1
    42    8   40 1
    43    8   41 1
    44    9   42 1
    45    9   43 1
    46    9   44 1
    47   16   45 1
    48   17   46 1
    49   18   47 1
    50   19   48 1
    51   19   49 1
    52   20   50 1
    53   20   51 1
    54   21   52 1
    55   22   53 1
    56   22   54 1
    57   23   55 1
    58   23   56 1
    59   24   57 1
    60   25   58 1
    61   25   59 1
    62   27   60 1
    63   28   61 1
    64   29   62 1
    65   30   63 1
    66   31   64 1
    67   32   65 1
    68   33   66 1
    69   33   67 1
    70   33   68 1
    71   34   69 1
    72   34   70 1
    73   34   71 1
@<TRIPOS>PROPERTY_DATA
  Total_Score	| 12.7533
  Crash		| -2.6943
  Polar		| 5.1846
  FragIndex	| 1
  FragRMSD	| 0.590

