@<TRIPOS>MOLECULE
BindingDB_16409
 80 83 0 0 0
SMALL
NO_CHARGES


@<TRIPOS>ATOM
1    C        28.4014   43.2108    0.5568  C     
2    C        29.3062   44.1018    1.1831  C     
3    C        30.5446   43.6753    1.7349  C     
4    C        30.8535   42.2938    1.6357  C     
5    C        29.9742   41.3616    1.0263  C     
6    C        28.7622   41.8452    0.4792  C     
7    C        31.4292   44.5938    2.3358  C     
8    O        31.1259   45.7800    2.3708  O     
9    N        32.6024   44.2390    2.8673  N     
10   C        33.5519   45.1128    3.5088  C     
11   C        30.3210   40.0106    0.9508  C     
12   O        30.1083   39.3996   -0.0941  O     
13   N        30.8682   39.3992    1.9947  N     
14   C        31.4305   38.0789    2.0428  C     
15   C        29.2743   36.6495    2.0936  C     
16   C        32.8991   38.1772    2.5596  C     
17   C        30.5135   37.1378    2.8927  C     
18   O        31.2239   35.9748    3.3305  O     
19   N        27.2222   43.6724   -0.0053  N     
20   C        26.5456   46.5185    0.3481  C     
21   S        26.2430   44.7993    0.7959  S     
22   O        24.7110   44.4595    0.5177  O     
23   O        26.3535   44.6534    2.3784  O     
24   C        34.9463   44.4341    3.5978  C     
25   C        33.7745   39.1686    1.8554  C     
26   C        34.7768   39.8801    2.5644  C     
27   C        35.6280   40.7872    1.9046  C     
28   C        35.4888   41.0100    0.5250  C     
29   C        34.5094   40.3129   -0.1979  C     
30   C        33.6723   39.3872    0.4561  C     
31   N        28.3475   35.8629    2.9373  N     
32   C        27.1935   35.3155    2.1924  C     
33   C        26.3340   34.3204    2.9917  C     
34   C        25.7755   35.7021    2.6386  C     
35   C        33.0788   45.5352    4.8632  C     
36   C        32.7304   44.5804    5.8497  C     
37   C        32.9659   46.9071    5.1945  C     
38   C        32.5326   47.3117    6.4698  C     
39   C        32.2012   46.3491    7.4422  C     
40   C        32.3002   44.9824    7.1291  C     
41   F        31.8041   46.7237    8.6293  F     
42   C        26.8237   43.2365   -1.3209  C     
43   H        29.0657   45.0921    1.2090  H     
44   H        31.7487   41.9497    1.9894  H     
45   H        28.1116   41.1873    0.0426  H     
46   H        32.8501   43.3042    2.8128  H     
47   H        33.6985   45.9835    2.8619  H     
48   H        30.9309   39.9132    2.8188  H     
49   H        31.4806   37.6467    1.0407  H     
50   H        28.7292   37.5098    1.6944  H     
51   H        29.6178   36.0357    1.2536  H     
52   H        32.8770   38.3977    3.6348  H     
53   H        33.3780   37.2015    2.4476  H     
54   H        30.1670   37.6715    3.7884  H     
55   H        31.7968   36.2844    4.0679  H     
56   H        27.5543   46.7997    0.6482  H     
57   H        25.8264   47.1626    0.8535  H     
58   H        26.4430   46.6404   -0.7306  H     
59   H        34.9076   43.5159    4.1915  H     
60   H        35.6702   45.1159    4.0561  H     
61   H        35.3026   44.1854    2.5937  H     
62   H        34.8948   39.7332    3.5714  H     
63   H        36.3496   41.2861    2.4277  H     
64   H        36.1032   41.6720    0.0479  H     
65   H        34.4014   40.4737   -1.2013  H     
66   H        32.9786   38.8831   -0.0960  H     
67   H        28.8581   35.0850    3.3670  H     
68   H        28.0044   36.4804    3.6730  H     
69   H        27.3156   35.0232    1.1440  H     
70   H        25.9219   33.4833    2.4217  H     
71   H        26.6124   34.1697    4.0373  H     
72   H        25.7032   36.4112    3.4636  H     
73   H        25.0222   35.7203    1.8504  H     
74   H        32.7866   43.5797    5.6437  H     
75   H        33.2018   47.6281    4.5074  H     
76   H        32.4587   48.3094    6.6917  H     
77   H        32.0632   44.2758    7.8319  H     
78   H        27.6632   43.3198   -2.0157  H     
79   H        26.0023   43.8321   -1.7359  H     
80   H        26.4937   42.1953   -1.2900  H     
@<TRIPOS>BOND
     1    1    2 1
     2    1    6 2
     3    1   19 1
     4    2    3 2
     5    3    4 1
     6    3    7 1
     7    4    5 2
     8    5    6 1
     9    5   11 1
    10    7    8 2
    11    7    9 am
    12    9   10 1
    13   10   24 1
    14   10   35 1
    15   11   12 2
    16   11   13 am
    17   13   14 1
    18   14   16 1
    19   14   17 1
    20   15   17 1
    21   15   31 1
    22   16   25 1
    23   17   18 1
    24   19   21 1
    25   19   42 1
    26   20   21 1
    27   21   22 2
    28   21   23 2
    29   25   26 2
    30   25   30 1
    31   26   27 1
    32   27   28 2
    33   28   29 1
    34   29   30 2
    35   31   32 1
    36   32   33 1
    37   32   34 1
    38   33   34 1
    39   35   36 1
    40   35   37 2
    41   36   40 2
    42   37   38 1
    43   38   39 2
    44   39   40 1
    45   39   41 1
    46    2   43 1
    47    4   44 1
    48    6   45 1
    49    9   46 1
    50   10   47 1
    51   13   48 1
    52   14   49 1
    53   15   50 1
    54   15   51 1
    55   16   52 1
    56   16   53 1
    57   17   54 1
    58   18   55 1
    59   20   56 1
    60   20   57 1
    61   20   58 1
    62   24   59 1
    63   24   60 1
    64   24   61 1
    65   26   62 1
    66   27   63 1
    67   28   64 1
    68   29   65 1
    69   30   66 1
    70   31   67 1
    71   31   68 1
    72   32   69 1
    73   33   70 1
    74   33   71 1
    75   34   72 1
    76   34   73 1
    77   36   74 1
    78   37   75 1
    79   38   76 1
    80   40   77 1
    81   42   78 1
    82   42   79 1
    83   42   80 1
@<TRIPOS>PROPERTY_DATA
  Total_Score	| 17.8646
  Crash		| -1.9175
  Polar		| 7.5487
  FragIndex	| 1
  FragRMSD	| 0.143

