@<TRIPOS>MOLECULE
BindingDB_6023
 48 51 0 0 0
SMALL
NO_CHARGES


@<TRIPOS>ATOM
1    C       120.0595  -86.3521   93.3177  C     
2    C       119.4499  -84.7193   91.7004  C     
3    C       118.4391  -84.6655   93.8349  C     
4    C       119.1620  -85.7892   94.2252  C     
5    O       120.7476  -87.3198   93.5984  O     
6    N       118.5929  -84.1339   92.5809  N     
7    N       120.1588  -85.8217   92.0953  N     
8    C       118.7170  -86.0786   95.5178  C     
9    N       117.7996  -85.1430   95.8377  N     
10   N       117.6340  -84.3039   94.8568  N     
11   C       116.7203  -83.2827   94.8835  C     
12   C       117.0749  -81.9769   94.4551  C     
13   C       114.4393  -82.4738   95.3363  C     
14   C       114.7991  -81.1896   94.9002  C     
15   C       116.1182  -80.9399   94.4732  C     
16   C       115.3954  -83.5118   95.3489  C     
17   Cl      118.6569  -81.5647   93.9928  Cl    
18   Cl      113.6517  -79.9388   94.9092  Cl    
19   Cl      114.8713  -85.0159   95.9352  Cl    
20   C       117.8276  -88.1507   96.5770  C     
21   C       119.6325  -84.1572   90.3495  C     
22   C       119.0517  -87.2275   96.3866  C     
23   C       120.6535  -83.0829   90.3752  C     
24   C       122.0303  -83.4154   90.3257  C     
25   C       120.2980  -81.7138   90.5095  C     
26   C       121.2828  -80.7174   90.6155  C     
27   C       122.6654  -81.0547   90.5541  C     
28   O       120.8726  -79.4376   90.7703  O     
29   C       123.0099  -82.4111   90.4104  C     
30   O       123.7152  -80.1831   90.6879  O     
31   C       123.4673  -78.7664   90.6320  C     
32   H       120.7679  -86.2427   91.4738  H     
33   H       113.4824  -82.6527   95.6519  H     
34   H       116.3837  -79.9982   94.1774  H     
35   H       117.0201  -87.6139   97.0739  H     
36   H       118.1115  -89.0075   97.1939  H     
37   H       117.4721  -88.5213   95.6118  H     
38   H       119.9385  -84.9527   89.6658  H     
39   H       118.6871  -83.7699   89.9677  H     
40   H       119.8679  -87.8075   95.9564  H     
41   H       119.3852  -86.8490   97.3531  H     
42   H       122.3241  -84.3943   90.2517  H     
43   H       119.3033  -81.4535   90.5479  H     
44   H       120.8415  -79.2972   91.7393  H     
45   H       123.9944  -82.6859   90.3709  H     
46   H       122.8126  -78.4961   89.7929  H     
47   H       124.4262  -78.2608   90.5083  H     
48   H       123.0555  -78.4105   91.5800  H     
@<TRIPOS>BOND
     1    1    4 1
     2    1    5 2
     3    1    7 1
     4    2    6 2
     5    2    7 1
     6    2   21 1
     7    3    4 2
     8    3    6 1
     9    3   10 1
    10    4    8 1
    11    8    9 2
    12    8   22 1
    13    9   10 1
    14   10   11 1
    15   11   12 2
    16   11   16 1
    17   12   15 1
    18   12   17 1
    19   13   14 1
    20   13   16 2
    21   14   15 2
    22   14   18 1
    23   16   19 1
    24   20   22 1
    25   21   23 1
    26   23   24 1
    27   23   25 2
    28   24   29 2
    29   25   26 1
    30   26   27 2
    31   26   28 1
    32   27   29 1
    33   27   30 1
    34   30   31 1
    35    7   32 1
    36   13   33 1
    37   15   34 1
    38   20   35 1
    39   20   36 1
    40   20   37 1
    41   21   38 1
    42   21   39 1
    43   22   40 1
    44   22   41 1
    45   24   42 1
    46   25   43 1
    47   28   44 1
    48   29   45 1
    49   31   46 1
    50   31   47 1
    51   31   48 1
@<TRIPOS>PROPERTY_DATA
  Total_Score	| 8.5245
  Crash		| -1.4454
  Polar		| 4.0788
  FragIndex	| 1
  FragRMSD	| 0.150

