@<TRIPOS>MOLECULE
BindingDB_6024
 47 50 0 0 0
SMALL
NO_CHARGES


@<TRIPOS>ATOM
1    C       120.0452  -86.3179   93.3295  C     
2    C       119.4446  -84.7775   91.6289  C     
3    C       118.4103  -84.6355   93.7623  C     
4    C       119.1513  -85.7338   94.2066  C     
5    O       120.7665  -87.2460   93.6522  O     
6    N       118.5676  -84.1757   92.4816  N     
7    N       120.1534  -85.8439   92.0826  N     
8    C       118.7295  -85.9743   95.5010  C     
9    N       117.8361  -85.0170   95.8034  N     
10   N       117.6297  -84.2332   94.7874  N     
11   C       116.7117  -83.2124   94.8202  C     
12   C       115.3656  -83.4591   95.2288  C     
13   C       116.0996  -80.8663   94.4399  C     
14   C       114.7765  -81.1416   94.7965  C     
15   C       114.4126  -82.4265   95.1996  C     
16   C       117.0782  -81.8795   94.4802  C     
17   Cl      114.8057  -84.9573   95.7992  Cl    
18   Cl      113.6305  -79.8927   94.8248  Cl    
19   Cl      118.6879  -81.3617   94.2822  Cl    
20   C       117.8572  -87.9541   96.7201  C     
21   C       119.6652  -84.2239   90.2821  C     
22   C       119.0851  -87.0652   96.4181  C     
23   C       120.7102  -83.1756   90.3298  C     
24   C       122.0825  -83.5029   90.2538  C     
25   C       120.3493  -81.8196   90.4979  C     
26   C       121.3293  -80.8164   90.5750  C     
27   C       122.7006  -81.1422   90.4547  C     
28   O       120.9138  -79.5341   90.7598  O     
29   C       123.0627  -82.4996   90.3050  C     
30   C       123.7326  -80.0816   90.4793  C     
31   H       120.7850  -86.2695   91.4778  H     
32   H       116.3598  -79.9083   94.1952  H     
33   H       113.4440  -82.6111   95.5031  H     
34   H       117.0829  -87.3812   97.2292  H     
35   H       118.1592  -88.7806   97.3652  H     
36   H       117.4437  -88.3745   95.8011  H     
37   H       119.9571  -85.0185   89.5939  H     
38   H       118.7222  -83.8278   89.8971  H     
39   H       119.8730  -87.6859   95.9954  H     
40   H       119.4654  -86.6293   97.3399  H     
41   H       122.3799  -84.4767   90.1663  H     
42   H       119.3621  -81.5566   90.5870  H     
43   H       120.9462  -79.3962   91.7320  H     
44   H       124.0518  -82.7689   90.2338  H     
45   H       123.5542  -79.3842   89.6640  H     
46   H       124.7400  -80.4853   90.3603  H     
47   H       123.6918  -79.5439   91.4248  H     
@<TRIPOS>BOND
     1    1    4 1
     2    1    5 2
     3    1    7 1
     4    2    6 2
     5    2    7 1
     6    2   21 1
     7    3    4 2
     8    3    6 1
     9    3   10 1
    10    4    8 1
    11    8    9 2
    12    8   22 1
    13    9   10 1
    14   10   11 1
    15   11   12 2
    16   11   16 1
    17   12   15 1
    18   12   17 1
    19   13   14 1
    20   13   16 2
    21   14   15 2
    22   14   18 1
    23   16   19 1
    24   20   22 1
    25   21   23 1
    26   23   24 1
    27   23   25 2
    28   24   29 2
    29   25   26 1
    30   26   27 2
    31   26   28 1
    32   27   29 1
    33   27   30 1
    34    7   31 1
    35   13   32 1
    36   15   33 1
    37   20   34 1
    38   20   35 1
    39   20   36 1
    40   21   37 1
    41   21   38 1
    42   22   39 1
    43   22   40 1
    44   24   41 1
    45   25   42 1
    46   28   43 1
    47   29   44 1
    48   30   45 1
    49   30   46 1
    50   30   47 1
@<TRIPOS>PROPERTY_DATA
  Total_Score	| 9.0951
  Crash		| -1.2732
  Polar		| 4.0159
  FragIndex	| 1
  FragRMSD	| 0.152

