@<TRIPOS>MOLECULE
BindingDB_6021
 45 48 0 0 0
SMALL
NO_CHARGES


@<TRIPOS>ATOM
1    C       120.1127  -86.4075   93.4156  C     
2    C       119.5296  -84.7040   91.8796  C     
3    C       118.4839  -84.7439   93.9937  C     
4    C       119.2042  -85.8832   94.3348  C     
5    O       120.7997  -87.3914   93.6462  O     
6    N       118.6466  -84.1625   92.7700  N     
7    N       120.2290  -85.8232   92.2194  N     
8    C       118.7230  -86.2626   95.5874  C     
9    N       117.8131  -85.3387   95.9440  N     
10   N       117.6721  -84.4317   95.0230  N     
11   C       116.7710  -83.3952   95.0850  C     
12   C       115.4149  -83.6216   95.4647  C     
13   C       116.2074  -81.0285   94.7234  C     
14   C       114.8505  -81.2845   95.0187  C     
15   C       114.4619  -82.5887   95.3902  C     
16   C       117.1548  -82.0681   94.7413  C     
17   Cl      114.8559  -85.1175   96.0241  Cl    
18   Cl      113.6979  -80.0413   94.9414  Cl    
19   Cl      118.7622  -81.6218   94.4238  Cl    
20   C       117.7232  -88.3398   96.5238  C     
21   C       119.7084  -84.0628   90.5500  C     
22   C       119.0038  -87.4863   96.3530  C     
23   C       120.7897  -83.0372   90.4477  C     
24   C       123.1329  -82.3299   90.3431  C     
25   C       122.1756  -83.3540   90.4166  C     
26   C       120.4019  -81.6764   90.3789  C     
27   C       121.3651  -80.6462   90.3063  C     
28   C       122.7487  -80.9823   90.3130  C     
29   O       123.7110  -80.0227   90.2335  O     
30   O       120.9892  -79.3514   90.2972  O     
31   H       120.8740  -86.1902   91.5789  H     
32   H       116.4775  -80.0679   94.4867  H     
33   H       113.4662  -82.7749   95.6136  H     
34   H       117.0128  -87.8040   97.1736  H     
35   H       117.9789  -89.3019   96.9986  H     
36   H       117.2395  -88.5513   95.5532  H     
37   H       119.9099  -84.8418   89.8021  H     
38   H       118.7337  -83.6187   90.2712  H     
39   H       119.7600  -88.0963   95.8685  H     
40   H       119.3682  -87.2172   97.3414  H     
41   H       124.1195  -82.5759   90.3027  H     
42   H       122.4915  -84.3283   90.4483  H     
43   H       119.4177  -81.4078   90.3732  H     
44   H       124.0557  -79.9765   91.1507  H     
45   H       121.1095  -79.0304   91.2193  H     
@<TRIPOS>BOND
     1    1    4 1
     2    1    5 2
     3    1    7 1
     4    2    6 2
     5    2    7 1
     6    2   21 1
     7    3    4 2
     8    3    6 1
     9    3   10 1
    10    4    8 1
    11    8    9 2
    12    8   22 1
    13    9   10 1
    14   10   11 1
    15   11   12 2
    16   11   16 1
    17   12   15 1
    18   12   17 1
    19   13   14 1
    20   13   16 2
    21   14   15 2
    22   14   18 1
    23   16   19 1
    24   20   22 1
    25   21   23 1
    26   23   25 1
    27   23   26 2
    28   24   25 2
    29   24   28 1
    30   26   27 1
    31   27   28 2
    32   27   30 1
    33   28   29 1
    34    7   31 1
    35   13   32 1
    36   15   33 1
    37   20   34 1
    38   20   35 1
    39   20   36 1
    40   21   37 1
    41   21   38 1
    42   22   39 1
    43   22   40 1
    44   24   41 1
    45   25   42 1
    46   26   43 1
    47   29   44 1
    48   30   45 1
@<TRIPOS>PROPERTY_DATA
  Total_Score	| 8.3187
  Crash		| -1.0651
  Polar		| 3.5584
  FragIndex	| 1
  FragRMSD	| 0.307

