@<TRIPOS>MOLECULE
BindingDB_6001
 44 47 0 0 0
SMALL
NO_CHARGES


@<TRIPOS>ATOM
1    C       120.0264  -86.3716   93.3563  C     
2    C       119.3636  -84.6734   91.8364  C     
3    C       118.4121  -84.7305   93.9977  C     
4    C       119.1539  -85.8617   94.3199  C     
5    O       120.7359  -87.3475   93.5874  O     
6    N       118.5014  -84.1680   92.7608  N     
7    N       120.1051  -85.7819   92.1599  N     
8    C       118.7215  -86.2203   95.5876  C     
9    N       117.8203  -85.2905   95.9785  N     
10   N       117.6482  -84.3977   95.0524  N     
11   C       116.7762  -83.3439   95.0935  C     
12   C       115.4197  -83.5470   95.4656  C     
13   C       116.2662  -80.9952   94.6337  C     
14   C       114.9148  -81.2155   94.9615  C     
15   C       114.4935  -82.4897   95.3853  C     
16   C       117.2058  -82.0449   94.7085  C     
17   Cl      114.8360  -85.0565   95.9688  Cl    
18   Cl      113.7827  -79.9670   94.8249  Cl    
19   Cl      118.8315  -81.6875   94.3545  Cl    
20   C       117.7737  -88.2676   96.6088  C     
21   C       119.4577  -84.0213   90.5115  C     
22   C       119.0376  -87.4128   96.3958  C     
23   C       120.4937  -82.9435   90.4652  C     
24   C       122.7907  -82.2765   89.8973  C     
25   C       122.5296  -80.9626   90.3251  C     
26   C       121.2509  -80.6340   90.8093  C     
27   C       120.2266  -81.5999   90.8658  C     
28   C       121.7865  -83.2560   89.9681  C     
29   O       118.9952  -81.1954   91.2893  O     
30   H       120.7199  -86.1532   91.5003  H     
31   H       116.5675  -80.0605   94.3315  H     
32   H       113.5097  -82.6484   95.6192  H     
33   H       117.0054  -87.6957   97.1227  H     
34   H       118.0066  -89.1341   97.2199  H     
35   H       117.3829  -88.6068   95.6514  H     
36   H       119.6544  -84.8006   89.7731  H     
37   H       118.4924  -83.5882   90.2467  H     
38   H       119.7904  -88.0215   95.8988  H     
39   H       119.4429  -87.1037   97.3631  H     
40   H       123.7140  -82.5188   89.5261  H     
41   H       123.2609  -80.2477   90.2605  H     
42   H       121.0580  -79.6738   91.1059  H     
43   H       121.9937  -84.2087   89.6671  H     
44   H       118.4126  -81.2508   90.4876  H     
@<TRIPOS>BOND
     1    1    4 1
     2    1    5 2
     3    1    7 1
     4    2    6 2
     5    2    7 1
     6    2   21 1
     7    3    4 2
     8    3    6 1
     9    3   10 1
    10    4    8 1
    11    8    9 2
    12    8   22 1
    13    9   10 1
    14   10   11 1
    15   11   12 2
    16   11   16 1
    17   12   15 1
    18   12   17 1
    19   13   14 1
    20   13   16 2
    21   14   15 2
    22   14   18 1
    23   16   19 1
    24   20   22 1
    25   21   23 1
    26   23   27 2
    27   23   28 1
    28   24   25 1
    29   24   28 2
    30   25   26 2
    31   26   27 1
    32   27   29 1
    33    7   30 1
    34   13   31 1
    35   15   32 1
    36   20   33 1
    37   20   34 1
    38   20   35 1
    39   21   36 1
    40   21   37 1
    41   22   38 1
    42   22   39 1
    43   24   40 1
    44   25   41 1
    45   26   42 1
    46   28   43 1
    47   29   44 1
@<TRIPOS>PROPERTY_DATA
  Total_Score	| 8.6173
  Crash		| -1.3137
  Polar		| 4.3731
  FragIndex	| 1
  FragRMSD	| 0.338

