@<TRIPOS>MOLECULE
BindingDB_6012
 47 50 0 0 0
SMALL
NO_CHARGES


@<TRIPOS>ATOM
1    C       120.0477  -86.2977   93.2897  C     
2    C       119.4024  -84.6852   91.6727  C     
3    C       118.4509  -84.5987   93.8319  C     
4    C       119.1881  -85.7148   94.2209  C     
5    O       120.7364  -87.2697   93.5477  O     
6    N       118.5662  -84.0890   92.5718  N     
7    N       120.1283  -85.7772   92.0584  N     
8    C       118.7902  -85.9895   95.5269  C     
9    N       117.8814  -85.0524   95.8520  N     
10   N       117.6764  -84.2282   94.8690  N     
11   C       116.7483  -83.2275   94.8902  C     
12   C       117.0773  -81.9071   94.4749  C     
13   C       114.4455  -82.4698   95.3096  C     
14   C       114.7826  -81.1734   94.8847  C     
15   C       116.0988  -80.8959   94.4731  C     
16   C       115.4238  -83.4860   95.3363  C     
17   Cl      118.6543  -81.4452   94.0453  Cl    
18   Cl      113.6215  -79.9403   94.8881  Cl    
19   Cl      114.9163  -84.9909   95.9286  Cl    
20   C       117.9158  -88.0632   96.5665  C     
21   C       119.5916  -84.1098   90.3239  C     
22   C       119.1302  -87.1175   96.4090  C     
23   C       120.6308  -83.0405   90.3573  C     
24   C       122.9695  -82.3593   90.4335  C     
25   C       122.0027  -83.3642   90.3009  C     
26   C       120.2535  -81.6813   90.5120  C     
27   C       121.2327  -80.6732   90.6543  C     
28   C       122.6091  -81.0160   90.6244  C     
29   O       123.6748  -80.1419   90.8143  O     
30   C       123.5130  -78.7094   90.8231  C     
31   H       120.7285  -86.1892   91.4125  H     
32   H       113.4815  -82.6635   95.6107  H     
33   H       116.3424  -79.9408   94.1886  H     
34   H       117.0837  -87.5439   97.0536  H     
35   H       118.1942  -88.9224   97.1794  H     
36   H       117.5813  -88.4268   95.5903  H     
37   H       119.8653  -84.8970   89.5904  H     
38   H       118.6409  -83.6926   89.9756  H     
39   H       119.9725  -87.6867   96.0133  H     
40   H       119.4205  -86.7267   97.3876  H     
41   H       123.9596  -82.6181   90.4137  H     
42   H       122.3121  -84.3440   90.1788  H     
43   H       119.2720  -81.4633   90.5273  H     
44   H       120.9521  -79.7084   90.7970  H     
45   H       122.9514  -78.3695   89.9310  H     
46   H       124.4946  -78.2450   90.8452  H     
47   H       122.9612  -78.4021   91.7260  H     
@<TRIPOS>BOND
     1    1    4 1
     2    1    5 2
     3    1    7 1
     4    2    6 2
     5    2    7 1
     6    2   21 1
     7    3    4 2
     8    3    6 1
     9    3   10 1
    10    4    8 1
    11    8    9 2
    12    8   22 1
    13    9   10 1
    14   10   11 1
    15   11   12 2
    16   11   16 1
    17   12   15 1
    18   12   17 1
    19   13   14 1
    20   13   16 2
    21   14   15 2
    22   14   18 1
    23   16   19 1
    24   20   22 1
    25   21   23 1
    26   23   25 1
    27   23   26 2
    28   24   25 2
    29   24   28 1
    30   26   27 1
    31   27   28 2
    32   28   29 1
    33   29   30 1
    34    7   31 1
    35   13   32 1
    36   15   33 1
    37   20   34 1
    38   20   35 1
    39   20   36 1
    40   21   37 1
    41   21   38 1
    42   22   39 1
    43   22   40 1
    44   24   41 1
    45   25   42 1
    46   26   43 1
    47   27   44 1
    48   30   45 1
    49   30   46 1
    50   30   47 1
@<TRIPOS>PROPERTY_DATA
  Total_Score	| 8.2390
  Crash		| -1.1993
  Polar		| 2.9669
  FragIndex	| 1
  FragRMSD	| 0.185

