@<TRIPOS>MOLECULE
BindingDB_6013
 44 47 0 0 0
SMALL
NO_CHARGES


@<TRIPOS>ATOM
1    C       120.0592  -86.3518   93.3527  C     
2    C       119.3740  -84.7216   91.7714  C     
3    C       118.4623  -84.6741   93.9505  C     
4    C       119.2122  -85.7990   94.2996  C     
5    O       120.7686  -87.3220   93.5823  O     
6    N       118.5312  -84.1501   92.6900  N     
7    N       120.1204  -85.8091   92.1360  N     
8    C       118.7936  -86.1150   95.5854  C     
9    N       117.8860  -85.1877   95.9628  N     
10   N       117.6983  -84.3196   95.0084  N     
11   C       116.8033  -83.2902   95.0608  C     
12   C       117.1790  -81.9611   94.7160  C     
13   C       114.4850  -82.4970   95.3719  C     
14   C       114.8678  -81.1971   94.9749  C     
15   C       116.2115  -80.9306   94.6771  C     
16   C       115.4458  -83.5314   95.4342  C     
17   Cl      118.7928  -81.5349   94.3876  Cl    
18   Cl      113.7119  -79.9603   94.8787  Cl    
19   Cl      114.8996  -85.0535   95.9469  Cl    
20   C       117.8605  -88.1911   96.5467  C     
21   C       119.5538  -84.1226   90.4322  C     
22   C       119.1190  -87.2990   96.4006  C     
23   C       120.6240  -83.1072   90.4803  C     
24   C       123.0031  -82.4776   90.4145  C     
25   C       121.9915  -83.4566   90.3603  C     
26   C       120.2839  -81.7432   90.6434  C     
27   C       121.2933  -80.7653   90.7293  C     
28   C       122.6588  -81.1246   90.5922  C     
29   O       123.6321  -80.1901   90.6576  O     
30   H       120.7153  -86.2024   91.4721  H     
31   H       113.5076  -82.6905   95.5963  H     
32   H       116.4912  -79.9826   94.4120  H     
33   H       117.0582  -87.6499   97.0658  H     
34   H       118.1037  -89.0944   97.1304  H     
35   H       117.4902  -88.5032   95.5570  H     
36   H       119.7887  -84.9221   89.7085  H     
37   H       118.6100  -83.6811   90.1118  H     
38   H       119.9100  -87.8931   95.9533  H     
39   H       119.4541  -86.9782   97.3771  H     
40   H       123.9882  -82.7645   90.3758  H     
41   H       122.2618  -84.4410   90.2570  H     
42   H       119.3078  -81.4731   90.7570  H     
43   H       121.0257  -79.7856   90.8970  H     
44   H       123.4454  -79.6471   91.4604  H     
@<TRIPOS>BOND
     1    1    4 1
     2    1    5 2
     3    1    7 1
     4    2    6 2
     5    2    7 1
     6    2   21 1
     7    3    4 2
     8    3    6 1
     9    3   10 1
    10    4    8 1
    11    8    9 2
    12    8   22 1
    13    9   10 1
    14   10   11 1
    15   11   12 2
    16   11   16 1
    17   12   15 1
    18   12   17 1
    19   13   14 1
    20   13   16 2
    21   14   15 2
    22   14   18 1
    23   16   19 1
    24   20   22 1
    25   21   23 1
    26   23   25 1
    27   23   26 2
    28   24   25 2
    29   24   28 1
    30   26   27 1
    31   27   28 2
    32   28   29 1
    33    7   30 1
    34   13   31 1
    35   15   32 1
    36   20   33 1
    37   20   34 1
    38   20   35 1
    39   21   36 1
    40   21   37 1
    41   22   38 1
    42   22   39 1
    43   24   40 1
    44   25   41 1
    45   26   42 1
    46   27   43 1
    47   29   44 1
@<TRIPOS>PROPERTY_DATA
  Total_Score	| 8.0122
  Crash		| -1.3581
  Polar		| 3.0545
  FragIndex	| 1
  FragRMSD	| 0.240

