@<TRIPOS>MOLECULE
BindingDB_6019
 48 51 0 0 0
SMALL
NO_CHARGES


@<TRIPOS>ATOM
1    C       120.0304  -86.3726   93.2839  C     
2    C       119.3442  -84.8221   91.6251  C     
3    C       118.4660  -84.6349   93.8164  C     
4    C       119.2044  -85.7462   94.2138  C     
5    O       120.6932  -87.3610   93.5636  O     
6    N       118.5430  -84.1699   92.5303  N     
7    N       120.0685  -85.9012   92.0340  N     
8    C       118.8218  -85.9889   95.5315  C     
9    N       117.9119  -85.0527   95.8581  N     
10   N       117.7013  -84.2492   94.8603  N     
11   C       116.7784  -83.2385   94.8860  C     
12   C       117.1276  -81.9278   94.4607  C     
13   C       114.4868  -82.4506   95.3135  C     
14   C       114.8323  -81.1647   94.8543  C     
15   C       116.1502  -80.9123   94.4265  C     
16   C       115.4491  -83.4810   95.3407  C     
17   Cl      118.7284  -81.5025   94.0603  Cl    
18   Cl      113.6739  -79.9269   94.8305  Cl    
19   Cl      114.9382  -84.9896   95.9190  Cl    
20   C       117.9501  -88.0739   96.5709  C     
21   C       119.4669  -84.3140   90.2408  C     
22   C       119.1609  -87.1239   96.4054  C     
23   C       120.4140  -83.1716   90.2421  C     
24   C       122.6506  -82.2682   90.6906  C     
25   C       121.7909  -83.3681   90.5169  C     
26   C       119.9328  -81.8459   90.0935  C     
27   C       120.7770  -80.7374   90.3064  C     
28   C       122.1419  -80.9592   90.6040  C     
29   O       122.9766  -79.9182   90.8518  O     
30   O       120.3426  -79.4373   90.1929  O     
31   C       119.2380  -79.0456   91.0448  C     
32   H       120.6523  -86.3453   91.4004  H     
33   H       113.5267  -82.6295   95.6319  H     
34   H       116.4068  -79.9702   94.1168  H     
35   H       117.1304  -87.5647   97.0907  H     
36   H       118.2366  -88.9492   97.1577  H     
37   H       117.5906  -88.4185   95.5956  H     
38   H       119.8110  -85.1027   89.5681  H     
39   H       118.4785  -84.0078   89.8935  H     
40   H       119.9925  -87.6972   95.9930  H     
41   H       119.4626  -86.7486   97.3888  H     
42   H       123.6419  -82.4306   90.9089  H     
43   H       122.1670  -84.3138   90.6148  H     
44   H       118.9496  -81.6686   89.8634  H     
45   H       122.6065  -79.4989   91.6599  H     
46   H       118.3157  -79.5698   90.7670  H     
47   H       119.0807  -77.9680   90.9439  H     
48   H       119.4570  -79.2702   92.0928  H     
@<TRIPOS>BOND
     1    1    4 1
     2    1    5 2
     3    1    7 1
     4    2    6 2
     5    2    7 1
     6    2   21 1
     7    3    4 2
     8    3    6 1
     9    3   10 1
    10    4    8 1
    11    8    9 2
    12    8   22 1
    13    9   10 1
    14   10   11 1
    15   11   12 2
    16   11   16 1
    17   12   15 1
    18   12   17 1
    19   13   14 1
    20   13   16 2
    21   14   15 2
    22   14   18 1
    23   16   19 1
    24   20   22 1
    25   21   23 1
    26   23   25 1
    27   23   26 2
    28   24   25 2
    29   24   28 1
    30   26   27 1
    31   27   28 2
    32   27   30 1
    33   28   29 1
    34   30   31 1
    35    7   32 1
    36   13   33 1
    37   15   34 1
    38   20   35 1
    39   20   36 1
    40   20   37 1
    41   21   38 1
    42   21   39 1
    43   22   40 1
    44   22   41 1
    45   24   42 1
    46   25   43 1
    47   26   44 1
    48   29   45 1
    49   31   46 1
    50   31   47 1
    51   31   48 1
@<TRIPOS>PROPERTY_DATA
  Total_Score	| 8.1433
  Crash		| -1.4526
  Polar		| 3.6268
  FragIndex	| 1
  FragRMSD	| 0.339

