@<TRIPOS>MOLECULE
BindingDB_6022
 45 48 0 0 0
SMALL
NO_CHARGES


@<TRIPOS>ATOM
1    C       119.9888  -86.3721   93.3321  C     
2    C       119.2605  -84.7316   91.7926  C     
3    C       118.3877  -84.7282   93.9746  C     
4    C       119.1384  -85.8528   94.3007  C     
5    O       120.6841  -87.3421   93.5519  O     
6    N       118.4399  -84.1990   92.7299  N     
7    N       120.0260  -85.8175   92.1189  N     
8    C       118.7401  -86.1780   95.5978  C     
9    N       117.8566  -85.2296   95.9842  N     
10   N       117.6590  -84.3563   95.0400  N     
11   C       116.7888  -83.3000   95.0767  C     
12   C       117.2042  -82.0029   94.6694  C     
13   C       114.5052  -82.4460   95.3385  C     
14   C       114.9193  -81.1728   94.9132  C     
15   C       116.2685  -80.9463   94.5993  C     
16   C       115.4341  -83.5035   95.4438  C     
17   Cl      118.8259  -81.6303   94.2885  Cl    
18   Cl      113.7866  -79.9290   94.7880  Cl    
19   Cl      114.8424  -84.9951   95.9806  Cl    
20   C       117.8252  -88.2425   96.6514  C     
21   C       119.2888  -84.1119   90.4467  C     
22   C       119.0700  -87.3570   96.4229  C     
23   C       120.2581  -82.9765   90.3416  C     
24   C       119.9024  -81.6423   90.6961  C     
25   C       121.5612  -83.2199   89.8563  C     
26   C       122.4978  -82.1803   89.7262  C     
27   C       122.1416  -80.8727   90.1054  C     
28   O       123.7334  -82.4287   89.2298  O     
29   C       120.8517  -80.5999   90.5893  C     
30   O       120.5218  -79.3228   90.9090  O     
31   H       120.6149  -86.1910   91.4438  H     
32   H       113.5199  -82.6038   95.5712  H     
33   H       116.5733  -80.0118   94.3145  H     
34   H       117.0584  -87.6904   97.1959  H     
35   H       118.0901  -89.1251   97.2326  H     
36   H       117.4147  -88.5761   95.6953  H     
37   H       119.5077  -84.9002   89.7157  H     
38   H       118.2906  -83.7400   90.1990  H     
39   H       119.8455  -87.9586   95.9451  H     
40   H       119.4644  -87.0139   97.3843  H     
41   H       118.9610  -81.4009   91.0430  H     
42   H       121.8319  -84.1666   89.5885  H     
43   H       122.8171  -80.1144   90.0076  H     
44   H       123.6000  -83.0522   88.4817  H     
45   H       120.5625  -79.2564   91.8850  H     
@<TRIPOS>BOND
     1    1    4 1
     2    1    5 2
     3    1    7 1
     4    2    6 2
     5    2    7 1
     6    2   21 1
     7    3    4 2
     8    3    6 1
     9    3   10 1
    10    4    8 1
    11    8    9 2
    12    8   22 1
    13    9   10 1
    14   10   11 1
    15   11   12 2
    16   11   16 1
    17   12   15 1
    18   12   17 1
    19   13   14 1
    20   13   16 2
    21   14   15 2
    22   14   18 1
    23   16   19 1
    24   20   22 1
    25   21   23 1
    26   23   24 1
    27   23   25 2
    28   24   29 2
    29   25   26 1
    30   26   27 2
    31   26   28 1
    32   27   29 1
    33   29   30 1
    34    7   31 1
    35   13   32 1
    36   15   33 1
    37   20   34 1
    38   20   35 1
    39   20   36 1
    40   21   37 1
    41   21   38 1
    42   22   39 1
    43   22   40 1
    44   24   41 1
    45   25   42 1
    46   27   43 1
    47   28   44 1
    48   30   45 1
@<TRIPOS>PROPERTY_DATA
  Total_Score	| 8.7334
  Crash		| -1.4670
  Polar		| 4.9636
  FragIndex	| 1
  FragRMSD	| 0.423

