@<TRIPOS>MOLECULE
BindingDB_6025
 44 47 0 0 0
SMALL
NO_CHARGES


@<TRIPOS>ATOM
1    C       120.0402  -86.3119   93.3178  C     
2    C       119.4602  -84.7360   91.6423  C     
3    C       118.4449  -84.5990   93.7767  C     
4    C       119.1650  -85.7054   94.2089  C     
5    O       120.7115  -87.2823   93.6247  O     
6    N       118.5841  -84.1336   92.5026  N     
7    N       120.1611  -85.8188   92.0861  N     
8    C       118.7334  -85.9397   95.5075  C     
9    N       117.8410  -84.9779   95.8120  N     
10   N       117.6603  -84.1805   94.7946  N     
11   C       116.7431  -83.1613   94.7990  C     
12   C       117.1001  -81.8390   94.4029  C     
13   C       114.4446  -82.3645   95.2166  C     
14   C       114.8111  -81.0687   94.8217  C     
15   C       116.1327  -80.8123   94.4111  C     
16   C       115.4038  -83.4017   95.2278  C     
17   Cl      118.6837  -81.3616   94.0231  Cl    
18   Cl      113.6757  -79.8113   94.8735  Cl    
19   Cl      114.8654  -84.9235   95.7550  Cl    
20   C       117.8467  -87.9791   96.6332  C     
21   C       119.6685  -84.1830   90.2931  C     
22   C       119.0664  -87.0573   96.4161  C     
23   C       120.7177  -83.1305   90.3398  C     
24   C       122.0917  -83.4724   90.2748  C     
25   C       120.3663  -81.7701   90.5016  C     
26   C       121.3583  -80.7752   90.6008  C     
27   C       122.7182  -81.1313   90.5329  C     
28   O       121.0025  -79.4799   90.7689  O     
29   C       123.0816  -82.4775   90.3643  C     
30   H       120.7841  -86.2423   91.4821  H     
31   H       113.4754  -82.5445   95.5107  H     
32   H       116.4038  -79.8634   94.1309  H     
33   H       117.0373  -87.4319   97.1223  H     
34   H       118.1361  -88.8193   97.2676  H     
35   H       117.4930  -88.3702   95.6750  H     
36   H       119.9585  -84.9768   89.6020  H     
37   H       118.7265  -83.7731   89.9175  H     
38   H       119.8880  -87.6506   96.0042  H     
39   H       119.3995  -86.6454   97.3731  H     
40   H       122.3792  -84.4467   90.1562  H     
41   H       119.3785  -81.4965   90.5599  H     
42   H       123.4390  -80.4146   90.6118  H     
43   H       120.9279  -79.3754   91.7379  H     
44   H       124.0726  -82.7368   90.3108  H     
@<TRIPOS>BOND
     1    1    4 1
     2    1    5 2
     3    1    7 1
     4    2    6 2
     5    2    7 1
     6    2   21 1
     7    3    4 2
     8    3    6 1
     9    3   10 1
    10    4    8 1
    11    8    9 2
    12    8   22 1
    13    9   10 1
    14   10   11 1
    15   11   12 2
    16   11   16 1
    17   12   15 1
    18   12   17 1
    19   13   14 1
    20   13   16 2
    21   14   15 2
    22   14   18 1
    23   16   19 1
    24   20   22 1
    25   21   23 1
    26   23   24 1
    27   23   25 2
    28   24   29 2
    29   25   26 1
    30   26   27 2
    31   26   28 1
    32   27   29 1
    33    7   30 1
    34   13   31 1
    35   15   32 1
    36   20   33 1
    37   20   34 1
    38   20   35 1
    39   21   36 1
    40   21   37 1
    41   22   38 1
    42   22   39 1
    43   24   40 1
    44   25   41 1
    45   27   42 1
    46   28   43 1
    47   29   44 1
@<TRIPOS>PROPERTY_DATA
  Total_Score	| 8.4260
  Crash		| -1.1267
  Polar		| 3.9834
  FragIndex	| 1
  FragRMSD	| 0.164

