@<TRIPOS>MOLECULE
BindingDB_6007
 47 50 0 0 0
SMALL
NO_CHARGES


@<TRIPOS>ATOM
1    C       120.1218  -86.3150   93.3789  C     
2    C       119.5584  -84.6143   91.8296  C     
3    C       118.5235  -84.6266   93.9485  C     
4    C       119.2273  -85.7751   94.2965  C     
5    O       120.7676  -87.3232   93.6163  O     
6    N       118.6856  -84.0571   92.7194  N     
7    N       120.2542  -85.7324   92.1864  N     
8    C       118.7698  -86.1094   95.5706  C     
9    N       117.8493  -85.1881   95.9131  N     
10   N       117.7046  -84.3024   94.9698  N     
11   C       116.7760  -83.2886   94.9929  C     
12   C       117.1146  -81.9670   94.5911  C     
13   C       114.4616  -82.5415   95.3664  C     
14   C       114.8033  -81.2442   94.9416  C     
15   C       116.1292  -80.9579   94.5700  C     
16   C       115.4399  -83.5540   95.4079  C     
17   Cl      118.6991  -81.5104   94.1823  Cl    
18   Cl      113.6340  -80.0200   94.9061  Cl    
19   Cl      114.9292  -85.0843   95.9331  Cl    
20   C       117.7787  -88.1877   96.5160  C     
21   C       119.7361  -84.0188   90.4919  C     
22   C       119.0505  -87.3206   96.3661  C     
23   C       120.8297  -83.0129   90.4814  C     
24   C       123.1990  -82.4617   90.1552  C     
25   C       122.8974  -81.0886   90.2206  C     
26   C       121.5709  -80.6487   90.4812  C     
27   C       122.1761  -83.4150   90.2945  C     
28   C       120.5542  -81.6226   90.6036  C     
29   C       122.1216  -78.3004   90.8510  C     
30   O       121.1669  -79.3295   90.5324  O     
31   H       120.8761  -86.1202   91.5486  H     
32   H       113.4920  -82.7473   95.6385  H     
33   H       116.3753  -80.0053   94.2810  H     
34   H       117.0034  -87.6326   97.0537  H     
35   H       118.0109  -89.0931   97.0809  H     
36   H       117.3955  -88.4759   95.5315  H     
37   H       119.9371  -84.8213   89.7744  H     
38   H       118.8037  -83.5485   90.1676  H     
39   H       119.8400  -87.9085   95.8899  H     
40   H       119.4066  -87.0306   97.3575  H     
41   H       124.1621  -82.7679   89.9887  H     
42   H       123.6543  -80.4211   90.0749  H     
43   H       122.4086  -84.4060   90.2275  H     
44   H       119.5877  -81.3104   90.7509  H     
45   H       122.7485  -78.5924   91.6939  H     
46   H       121.5695  -77.3966   91.1278  H     
47   H       122.7528  -78.0685   89.9895  H     
@<TRIPOS>BOND
     1    1    4 1
     2    1    5 2
     3    1    7 1
     4    2    6 2
     5    2    7 1
     6    2   21 1
     7    3    4 2
     8    3    6 1
     9    3   10 1
    10    4    8 1
    11    8    9 2
    12    8   22 1
    13    9   10 1
    14   10   11 1
    15   11   12 2
    16   11   16 1
    17   12   15 1
    18   12   17 1
    19   13   14 1
    20   13   16 2
    21   14   15 2
    22   14   18 1
    23   16   19 1
    24   20   22 1
    25   21   23 1
    26   23   27 1
    27   23   28 2
    28   24   25 1
    29   24   27 2
    30   25   26 2
    31   26   28 1
    32   26   30 1
    33   29   30 1
    34    7   31 1
    35   13   32 1
    36   15   33 1
    37   20   34 1
    38   20   35 1
    39   20   36 1
    40   21   37 1
    41   21   38 1
    42   22   39 1
    43   22   40 1
    44   24   41 1
    45   25   42 1
    46   27   43 1
    47   28   44 1
    48   29   45 1
    49   29   46 1
    50   29   47 1
@<TRIPOS>PROPERTY_DATA
  Total_Score	| 7.9556
  Crash		| -1.1167
  Polar		| 3.0353
  FragIndex	| 1
  FragRMSD	| 0.240

