@<TRIPOS>MOLECULE
BindingDB_6017
 50 53 0 0 0
SMALL
NO_CHARGES


@<TRIPOS>ATOM
1    C       120.0299  -86.3194   93.3331  C     
2    C       119.3764  -84.6852   91.7434  C     
3    C       118.4454  -84.6166   93.9062  C     
4    C       119.1669  -85.7498   94.2669  C     
5    O       120.7165  -87.2978   93.5850  O     
6    N       118.5484  -84.0996   92.6522  N     
7    N       120.1048  -85.7823   92.1138  N     
8    C       118.7465  -86.0521   95.5572  C     
9    N       117.8438  -85.1159   95.9046  N     
10   N       117.6684  -84.2613   94.9420  N     
11   C       116.7573  -83.2436   94.9708  C     
12   C       115.4268  -83.4825   95.3998  C     
13   C       116.1408  -80.9030   94.5577  C     
14   C       114.8185  -81.1606   94.9556  C     
15   C       114.4630  -82.4542   95.3731  C     
16   C       117.1041  -81.9332   94.5519  C     
17   Cl      114.9120  -85.0058   95.9282  Cl    
18   Cl      113.6628  -79.9280   94.9294  Cl    
19   Cl      118.6829  -81.5209   94.0829  Cl    
20   C       117.8404  -88.1173   96.6178  C     
21   C       119.5033  -84.1160   90.3894  C     
22   C       119.0774  -87.2139   96.4038  C     
23   C       120.4317  -82.9545   90.4011  C     
24   C       120.8403  -80.5592   90.6625  C     
25   C       119.9509  -81.6451   90.6354  C     
26   C       121.8225  -83.1471   90.2225  C     
27   C       122.7184  -82.0524   90.1995  C     
28   C       122.2219  -80.7421   90.4363  C     
29   C       123.1001  -79.5450   90.4705  C     
30   O       124.0765  -82.2284   90.0502  O     
31   C       124.5288  -83.0021   88.9151  C     
32   H       120.6982  -86.1927   91.4633  H     
33   H       116.4050  -79.9569   94.2701  H     
34   H       113.4940  -82.6514   95.6550  H     
35   H       117.0408  -87.5643   97.1211  H     
36   H       118.1110  -88.9750   97.2349  H     
37   H       117.4626  -88.4887   95.6571  H     
38   H       119.8696  -84.8847   89.7052  H     
39   H       118.5187  -83.8277   90.0144  H     
40   H       119.8686  -87.8093   95.9496  H     
41   H       119.4388  -86.8553   97.3645  H     
42   H       120.4706  -79.6266   90.8448  H     
43   H       118.9538  -81.4808   90.8038  H     
44   H       122.1940  -84.0973   90.0962  H     
45   H       122.7728  -78.8212   89.7197  H     
46   H       124.1464  -79.7725   90.2788  H     
47   H       123.0300  -79.0813   91.4561  H     
48   H       124.3168  -84.0691   89.0733  H     
49   H       125.6099  -82.8779   88.8305  H     
50   H       124.0610  -82.6763   87.9732  H     
@<TRIPOS>BOND
     1    1    4 1
     2    1    5 2
     3    1    7 1
     4    2    6 2
     5    2    7 1
     6    2   21 1
     7    3    4 2
     8    3    6 1
     9    3   10 1
    10    4    8 1
    11    8    9 2
    12    8   22 1
    13    9   10 1
    14   10   11 1
    15   11   12 2
    16   11   16 1
    17   12   15 1
    18   12   17 1
    19   13   14 1
    20   13   16 2
    21   14   15 2
    22   14   18 1
    23   16   19 1
    24   20   22 1
    25   21   23 1
    26   23   25 1
    27   23   26 2
    28   24   25 2
    29   24   28 1
    30   26   27 1
    31   27   28 2
    32   27   30 1
    33   28   29 1
    34   30   31 1
    35    7   32 1
    36   13   33 1
    37   15   34 1
    38   20   35 1
    39   20   36 1
    40   20   37 1
    41   21   38 1
    42   21   39 1
    43   22   40 1
    44   22   41 1
    45   24   42 1
    46   25   43 1
    47   26   44 1
    48   29   45 1
    49   29   46 1
    50   29   47 1
    51   31   48 1
    52   31   49 1
    53   31   50 1
@<TRIPOS>PROPERTY_DATA
  Total_Score	| 8.5526
  Crash		| -1.0983
  Polar		| 3.0139
  FragIndex	| 1
  FragRMSD	| 1.223

