@<TRIPOS>MOLECULE
BindingDB_5998
 43 46 0 0 0
SMALL
NO_CHARGES


@<TRIPOS>ATOM
1    C       119.9997  -86.4123   93.3327  C     
2    C       119.4730  -84.7158   91.7723  C     
3    C       118.5202  -84.6302   93.9306  C     
4    C       119.1983  -85.7906   94.2784  C     
5    O       120.6354  -87.4325   93.5714  O     
6    N       118.6584  -84.0987   92.6779  N     
7    N       120.0651  -85.9115   92.1037  N     
8    C       118.7805  -86.0968   95.5702  C     
9    N       117.8861  -85.1501   95.9256  N     
10   N       117.7268  -84.2879   94.9716  N     
11   C       116.7807  -83.2896   95.0048  C     
12   C       117.1137  -81.9704   94.6172  C     
13   C       114.4566  -82.5554   95.3622  C     
14   C       114.7969  -81.2608   94.9425  C     
15   C       116.1225  -80.9635   94.5824  C     
16   C       115.4503  -83.5586   95.4226  C     
17   Cl      118.7014  -81.5031   94.2373  Cl    
18   Cl      113.6186  -80.0397   94.9332  Cl    
19   Cl      114.9496  -85.0716   96.0007  Cl    
20   C       117.7963  -88.1478   96.5467  C     
21   C       119.6633  -84.1657   90.4155  C     
22   C       119.0748  -87.2934   96.3893  C     
23   C       120.7219  -83.1336   90.3216  C     
24   C       121.3897  -80.8461   89.6898  C     
25   C       122.7508  -81.1613   89.9095  C     
26   C       123.0934  -82.4718   90.3201  C     
27   C       122.0999  -83.4332   90.5415  C     
28   C       120.3980  -81.8176   89.8848  C     
29   H       120.5969  -86.3603   91.4360  H     
30   H       113.4873  -82.7657   95.6396  H     
31   H       116.3714  -80.0098   94.3090  H     
32   H       117.0362  -87.6022   97.1147  H     
33   H       118.0380  -89.0689   97.0836  H     
34   H       117.3860  -88.4156   95.5641  H     
35   H       119.9379  -84.9712   89.7231  H     
36   H       118.6954  -83.7675   90.0855  H     
37   H       119.8503  -87.8949   95.9198  H     
38   H       119.4323  -86.9758   97.3649  H     
39   H       121.1301  -79.9059   89.3854  H     
40   H       123.4741  -80.4680   89.7467  H     
41   H       124.0838  -82.7074   90.4589  H     
42   H       122.3916  -84.3710   90.8487  H     
43   H       119.4230  -81.5756   89.7007  H     
@<TRIPOS>BOND
     1    1    4 1
     2    1    5 2
     3    1    7 1
     4    2    6 2
     5    2    7 1
     6    2   21 1
     7    3    4 2
     8    3    6 1
     9    3   10 1
    10    4    8 1
    11    8    9 2
    12    8   22 1
    13    9   10 1
    14   10   11 1
    15   11   12 2
    16   11   16 1
    17   12   15 1
    18   12   17 1
    19   13   14 1
    20   13   16 2
    21   14   15 2
    22   14   18 1
    23   16   19 1
    24   20   22 1
    25   21   23 1
    26   23   27 2
    27   23   28 1
    28   24   25 1
    29   24   28 2
    30   25   26 2
    31   26   27 1
    32    7   29 1
    33   13   30 1
    34   15   31 1
    35   20   32 1
    36   20   33 1
    37   20   34 1
    38   21   35 1
    39   21   36 1
    40   22   37 1
    41   22   38 1
    42   24   39 1
    43   25   40 1
    44   26   41 1
    45   27   42 1
    46   28   43 1
@<TRIPOS>PROPERTY_DATA
  Total_Score	| 7.8873
  Crash		| -1.0247
  Polar		| 3.0646
  FragIndex	| 1
  FragRMSD	| 0.308

