@<TRIPOS>MOLECULE
BindingDB_6011
 45 48 0 0 0
SMALL
NO_CHARGES


@<TRIPOS>ATOM
1    C       120.0147  -86.3807   93.3379  C     
2    C       119.3656  -84.7732   91.7198  C     
3    C       118.4475  -84.6466   93.8982  C     
4    C       119.1826  -85.7749   94.2714  C     
5    O       120.6836  -87.3717   93.5949  O     
6    N       118.5343  -84.1625   92.6229  N     
7    N       120.0874  -85.8675   92.1152  N     
8    C       118.8063  -86.0536   95.5791  C     
9    N       117.8997  -85.1075   95.9253  N     
10   N       117.6981  -84.2610   94.9467  N     
11   C       116.7641  -83.2423   94.9529  C     
12   C       117.0792  -81.9213   94.5044  C     
13   C       114.4541  -82.4714   95.3831  C     
14   C       114.7809  -81.1768   94.9437  C     
15   C       116.0927  -80.9066   94.5162  C     
16   C       115.4331  -83.4904   95.4030  C     
17   Cl      118.6475  -81.4566   93.9633  Cl    
18   Cl      113.5942  -79.9644   94.9620  Cl    
19   Cl      114.8982  -85.0101   95.9394  Cl    
20   C       117.8631  -88.2208   96.4994  C     
21   C       119.5765  -84.2850   90.3367  C     
22   C       119.0883  -87.3042   96.3221  C     
23   C       120.6218  -83.2370   90.1838  C     
24   C       122.9321  -82.4827   90.4935  C     
25   C       121.9661  -83.5063   90.5387  C     
26   C       120.2977  -81.9408   89.7053  C     
27   C       121.2720  -80.9270   89.6374  C     
28   C       122.5867  -81.1833   90.0643  C     
29   N       123.4883  -80.1861   90.1218  N     
30   H       120.6535  -86.3024   91.4612  H     
31   H       113.4875  -82.6694   95.6727  H     
32   H       116.3306  -79.9542   94.2176  H     
33   H       117.1040  -87.7217   97.1088  H     
34   H       118.1699  -89.1441   97.0070  H     
35   H       117.4353  -88.4856   95.5285  H     
36   H       119.8556  -85.1445   89.7167  H     
37   H       118.6132  -83.9183   89.9625  H     
38   H       119.8646  -87.8494   95.7813  H     
39   H       119.4737  -87.0776   97.3194  H     
40   H       123.8758  -82.6718   90.8349  H     
41   H       122.2293  -84.4229   90.9213  H     
42   H       119.3431  -81.7171   89.4251  H     
43   H       121.0052  -79.9906   89.3267  H     
44   H       123.2347  -79.2819   89.8686  H     
45   H       124.3831  -80.3504   90.4678  H     
@<TRIPOS>BOND
     1    1    4 1
     2    1    5 2
     3    1    7 1
     4    2    6 2
     5    2    7 1
     6    2   21 1
     7    3    4 2
     8    3    6 1
     9    3   10 1
    10    4    8 1
    11    8    9 2
    12    8   22 1
    13    9   10 1
    14   10   11 1
    15   11   12 2
    16   11   16 1
    17   12   15 1
    18   12   17 1
    19   13   14 1
    20   13   16 2
    21   14   15 2
    22   14   18 1
    23   16   19 1
    24   20   22 1
    25   21   23 1
    26   23   25 1
    27   23   26 2
    28   24   25 2
    29   24   28 1
    30   26   27 1
    31   27   28 2
    32   28   29 1
    33    7   30 1
    34   13   31 1
    35   15   32 1
    36   20   33 1
    37   20   34 1
    38   20   35 1
    39   21   36 1
    40   21   37 1
    41   22   38 1
    42   22   39 1
    43   24   40 1
    44   25   41 1
    45   26   42 1
    46   27   43 1
    47   29   44 1
    48   29   45 1
@<TRIPOS>PROPERTY_DATA
  Total_Score	| 8.1523
  Crash		| -1.0993
  Polar		| 3.0345
  FragIndex	| 1
  FragRMSD	| 0.311

