@<TRIPOS>MOLECULE
BindingDB_6018
 47 50 0 0 0
SMALL
NO_CHARGES


@<TRIPOS>ATOM
1    C       120.0515  -86.3616   93.3126  C     
2    C       119.3966  -84.8016   91.6547  C     
3    C       118.4604  -84.6573   93.8275  C     
4    C       119.2079  -85.7637   94.2381  C     
5    O       120.7445  -87.3255   93.6010  O     
6    N       118.5613  -84.1904   92.5540  N     
7    N       120.1199  -85.8811   92.0688  N     
8    C       118.8027  -86.0039   95.5471  C     
9    N       117.8940  -85.0575   95.8609  N     
10   N       117.6939  -84.2566   94.8575  N     
11   C       116.7732  -83.2404   94.8610  C     
12   C       117.1305  -81.9235   94.4531  C     
13   C       114.4780  -82.4447   95.2614  C     
14   C       114.8403  -81.1518   94.8352  C     
15   C       116.1636  -80.8975   94.4334  C     
16   C       115.4358  -83.4790   95.2803  C     
17   Cl      118.7278  -81.4781   94.0788  Cl    
18   Cl      113.6880  -79.9147   94.8308  Cl    
19   Cl      114.8950  -84.9999   95.8002  Cl    
20   C       117.9122  -88.0597   96.6305  C     
21   C       119.5376  -84.2527   90.2907  C     
22   C       119.1292  -87.1192   96.4516  C     
23   C       120.3818  -83.0320   90.3407  C     
24   C       120.6537  -80.6779   90.9511  C     
25   C       119.8278  -81.7979   90.7603  C     
26   C       121.7687  -83.0969   90.0864  C     
27   C       122.6097  -81.9748   90.2507  C     
28   C       122.0379  -80.7602   90.7037  C     
29   C       124.0566  -82.1222   89.9691  C     
30   O       122.8046  -79.6639   90.9500  O     
31   H       120.7140  -86.3150   91.4368  H     
32   H       113.5104  -82.6253   95.5610  H     
33   H       116.4237  -79.9533   94.1378  H     
34   H       117.1055  -87.5371   97.1524  H     
35   H       118.2026  -88.9324   97.2208  H     
36   H       117.5510  -88.4039   95.6591  H     
37   H       119.9900  -85.0005   89.6335  H     
38   H       118.5521  -84.0278   89.8753  H     
39   H       119.9705  -87.7006   96.0587  H     
40   H       119.4297  -86.7156   97.4269  H     
41   H       120.2434  -79.8086   91.2933  H     
42   H       118.8274  -81.7197   90.9586  H     
43   H       122.1767  -83.9912   89.8000  H     
44   H       124.4766  -82.8809   90.6303  H     
45   H       124.6112  -81.1960   90.1212  H     
46   H       124.1970  -82.4440   88.9356  H     
47   H       122.4329  -79.2941   91.7752  H     
@<TRIPOS>BOND
     1    1    4 1
     2    1    5 2
     3    1    7 1
     4    2    6 2
     5    2    7 1
     6    2   21 1
     7    3    4 2
     8    3    6 1
     9    3   10 1
    10    4    8 1
    11    8    9 2
    12    8   22 1
    13    9   10 1
    14   10   11 1
    15   11   12 2
    16   11   16 1
    17   12   15 1
    18   12   17 1
    19   13   14 1
    20   13   16 2
    21   14   15 2
    22   14   18 1
    23   16   19 1
    24   20   22 1
    25   21   23 1
    26   23   25 1
    27   23   26 2
    28   24   25 2
    29   24   28 1
    30   26   27 1
    31   27   28 2
    32   27   29 1
    33   28   30 1
    34    7   31 1
    35   13   32 1
    36   15   33 1
    37   20   34 1
    38   20   35 1
    39   20   36 1
    40   21   37 1
    41   21   38 1
    42   22   39 1
    43   22   40 1
    44   24   41 1
    45   25   42 1
    46   26   43 1
    47   29   44 1
    48   29   45 1
    49   29   46 1
    50   30   47 1
@<TRIPOS>PROPERTY_DATA
  Total_Score	| 7.9400
  Crash		| -1.6300
  Polar		| 3.7488
  FragIndex	| 1
  FragRMSD	| 0.409

