@<TRIPOS>MOLECULE
BindingDB_6020
 51 54 0 0 0
SMALL
NO_CHARGES


@<TRIPOS>ATOM
1    C       120.0046  -86.3002   93.2478  C     
2    C       119.3926  -84.6860   91.6272  C     
3    C       118.4373  -84.5750   93.7876  C     
4    C       119.1733  -85.6983   94.1835  C     
5    O       120.6697  -87.2919   93.5182  O     
6    N       118.5557  -84.0767   92.5257  N     
7    N       120.0881  -85.7943   92.0182  N     
8    C       118.7847  -85.9492   95.4939  C     
9    N       117.8851  -84.9982   95.8251  N     
10   N       117.6780  -84.1884   94.8300  N     
11   C       116.7328  -83.1942   94.8605  C     
12   C       117.0290  -81.8726   94.4305  C     
13   C       114.4287  -82.4713   95.3549  C     
14   C       114.7353  -81.1653   94.9258  C     
15   C       116.0297  -80.8704   94.4611  C     
16   C       115.4219  -83.4691   95.3436  C     
17   Cl      118.5836  -81.3857   93.9531  Cl    
18   Cl      113.5537  -79.9494   94.9761  Cl    
19   Cl      114.9386  -84.9892   95.9171  Cl    
20   C       117.9209  -88.0369   96.5456  C     
21   C       119.5823  -84.1138   90.2759  C     
22   C       119.1278  -87.0753   96.3844  C     
23   C       120.5316  -82.9710   90.3170  C     
24   C       120.9919  -80.5687   90.5004  C     
25   C       120.0688  -81.6515   90.3680  C     
26   C       121.9292  -83.2099   90.3315  C     
27   C       122.8378  -82.1359   90.4355  C     
28   C       122.3736  -80.8112   90.5605  C     
29   O       123.3454  -79.8399   90.7590  O     
30   C       122.9658  -78.4620   90.8894  C     
31   O       124.1762  -82.4011   90.4655  O     
32   C       124.6591  -82.9708   89.2289  C     
33   H       120.6805  -86.2247   91.3814  H     
34   H       113.4773  -82.6721   95.6745  H     
35   H       116.2593  -79.9125   94.1578  H     
36   H       117.0864  -87.5233   97.0431  H     
37   H       118.2163  -88.8957   97.1553  H     
38   H       117.5846  -88.4032   95.5671  H     
39   H       119.9695  -84.8710   89.5815  H     
40   H       118.6048  -83.8085   89.8883  H     
41   H       119.9773  -87.6412   95.9918  H     
42   H       119.4119  -86.6790   97.3642  H     
43   H       120.6066  -79.6389   90.5749  H     
44   H       119.0744  -81.4316   90.3537  H     
45   H       122.2790  -84.1597   90.2770  H     
46   H       122.3240  -78.1433   90.0687  H     
47   H       123.8834  -77.8471   90.8570  H     
48   H       122.4804  -78.2789   91.8458  H     
49   H       124.1553  -83.9220   89.0071  H     
50   H       125.7297  -83.1696   89.3374  H     
51   H       124.5227  -82.2779   88.3861  H     
@<TRIPOS>BOND
     1    1    4 1
     2    1    5 2
     3    1    7 1
     4    2    6 2
     5    2    7 1
     6    2   21 1
     7    3    4 2
     8    3    6 1
     9    3   10 1
    10    4    8 1
    11    8    9 2
    12    8   22 1
    13    9   10 1
    14   10   11 1
    15   11   12 2
    16   11   16 1
    17   12   15 1
    18   12   17 1
    19   13   14 1
    20   13   16 2
    21   14   15 2
    22   14   18 1
    23   16   19 1
    24   20   22 1
    25   21   23 1
    26   23   25 1
    27   23   26 2
    28   24   25 2
    29   24   28 1
    30   26   27 1
    31   27   28 2
    32   27   31 1
    33   28   29 1
    34   29   30 1
    35   31   32 1
    36    7   33 1
    37   13   34 1
    38   15   35 1
    39   20   36 1
    40   20   37 1
    41   20   38 1
    42   21   39 1
    43   21   40 1
    44   22   41 1
    45   22   42 1
    46   24   43 1
    47   25   44 1
    48   26   45 1
    49   30   46 1
    50   30   47 1
    51   30   48 1
    52   32   49 1
    53   32   50 1
    54   32   51 1
@<TRIPOS>PROPERTY_DATA
  Total_Score	| 8.2631
  Crash		| -1.2347
  Polar		| 2.9669
  FragIndex	| 1
  FragRMSD	| 1.210

