@<TRIPOS>MOLECULE
BindingDB_50200393
 48 51 0 0 0
SMALL
NO_CHARGES


@<TRIPOS>ATOM
1    N        -4.8778   31.4634   -7.1494  N     
2    C        -3.9942   32.1752   -7.9125  C     
3    C        -0.9796   35.7568   -3.8180  C     
4    C        -9.9631   27.7040   -2.8710  C     
5    C       -11.3244   27.5365   -2.4055  C     
6    C        -5.7557   30.5543   -7.6586  C     
7    N        -9.5989   28.8895   -3.3429  N     
8    C       -11.8279   26.2384   -1.7399  C     
9    C       -11.4730   27.4517   -0.8707  C     
10   C        -1.6445   34.5054   -4.2861  C     
11   N        -3.0583   33.0198   -7.4065  N     
12   N        -4.0166   31.9848   -9.2596  N     
13   N        -6.6098   29.8093   -6.9119  N     
14   C        -8.3377   29.2308   -3.7274  C     
15   C        -5.7788   30.3800   -9.0602  C     
16   C        -1.9974   34.3261   -5.6556  C     
17   O        -9.2030   26.7398   -2.8442  O     
18   C        -8.0709   29.5090   -5.0872  C     
19   C        -6.7461   29.6414   -5.5624  C     
20   C        -2.6943   33.1747   -6.0950  C     
21   F        -0.7525   35.8182   -2.4574  F     
22   F         0.2460   35.9110   -4.4280  F     
23   F        -1.7776   36.8364   -4.1176  F     
24   C        -4.8803   31.1177   -9.8493  C     
25   C        -1.9404   33.4630   -3.3707  C     
26   C        -2.5593   32.2851   -3.8036  C     
27   C        -5.9565   29.3289   -3.2541  C     
28   C        -7.2769   29.2387   -2.7941  C     
29   C        -5.6857   29.4681   -4.6245  C     
30   C        -2.9388   32.1575   -5.1473  C     
31   H       -12.1067   28.1253   -2.8836  H     
32   H       -10.3151   29.5218   -3.5210  H     
33   H       -12.8980   26.0343   -1.8167  H     
34   H       -11.1300   25.4065   -1.6505  H     
35   H       -10.5615   27.3296   -0.2802  H     
36   H       -12.3155   27.9950   -0.4406  H     
37   H        -2.5487   33.5325   -8.0489  H     
38   H        -7.2512   29.3062   -7.4377  H     
39   H        -6.4202   29.7130   -9.5033  H     
40   H        -1.7704   35.0589   -6.3305  H     
41   H        -8.8525   29.5489   -5.7523  H     
42   H        -4.8520   31.0015  -10.8618  H     
43   H        -1.6958   33.5361   -2.3792  H     
44   H        -2.7466   31.5216   -3.1483  H     
45   H        -5.1820   29.2375   -2.5895  H     
46   H        -7.4597   29.1253   -1.7906  H     
47   H        -4.7093   29.3524   -4.9144  H     
48   H        -3.3561   31.2899   -5.4474  H     
@<TRIPOS>BOND
     1    1    2 2
     2    1    6 1
     3    2   11 1
     4    2   12 1
     5    3   10 1
     6    3   21 1
     7    3   22 1
     8    3   23 1
     9    4    5 1
    10    4    7 am
    11    4   17 2
    12    5    8 1
    13    5    9 1
    14    6   13 1
    15    6   15 2
    16    7   14 1
    17    8    9 1
    18   10   16 2
    19   10   25 1
    20   11   20 1
    21   12   24 2
    22   13   19 1
    23   14   18 2
    24   14   28 1
    25   15   24 1
    26   16   20 1
    27   18   19 1
    28   19   29 2
    29   20   30 2
    30   25   26 2
    31   26   30 1
    32   27   28 2
    33   27   29 1
    34    5   31 1
    35    7   32 1
    36    8   33 1
    37    8   34 1
    38    9   35 1
    39    9   36 1
    40   11   37 1
    41   13   38 1
    42   15   39 1
    43   16   40 1
    44   18   41 1
    45   24   42 1
    46   25   43 1
    47   26   44 1
    48   27   45 1
    49   28   46 1
    50   29   47 1
    51   30   48 1
@<TRIPOS>PROPERTY_DATA
  Total_Score	| 6.1677
  Crash		| -1.7203
  Polar		| 2.3197
  FragIndex	| 1
  FragRMSD	| 0.702

