@<TRIPOS>MOLECULE
BindingDB_92809
 37 39 0 0 0
SMALL
NO_CHARGES


@<TRIPOS>ATOM
1    C        -5.6955   30.3755   -9.3645  C     
2    C        -4.7467   31.1701  -10.0276  C     
3    N        -3.9050   31.9505   -9.3038  N     
4    C        -3.9366   32.0045   -7.9458  C     
5    N        -4.8593   31.2372   -7.3092  N     
6    C        -5.7347   30.4193   -7.9552  C     
7    N        -6.6600   29.6772   -7.2988  N     
8    N        -3.0364   32.8109   -7.3330  N     
9    C        -2.8103   33.0660   -6.0030  C     
10   C        -2.0522   34.2275   -5.6943  C     
11   C        -3.2882   32.2790   -4.9234  C     
12   C        -3.0184   32.6401   -3.5899  C     
13   C        -2.2690   33.7957   -3.3000  C     
14   C        -1.7814   34.5836   -4.3568  C     
15   C        -6.8582   29.5953   -5.9465  C     
16   C        -8.1735   29.6453   -5.3991  C     
17   C        -5.7527   29.4042   -5.0858  C     
18   C        -5.9155   29.3376   -3.6966  C     
19   C        -7.1994   29.4337   -3.1492  C     
20   C        -8.3163   29.5782   -3.9886  C     
21   C        -9.3809   29.8046   -6.2746  C     
22   F       -10.5878   29.8030   -5.6183  F     
23   F        -9.3012   31.0016   -6.9430  F     
24   F        -9.4628   28.7803   -7.1935  F     
25   H        -6.3326   29.7771   -9.8991  H     
26   H        -4.6763   31.1518  -11.0457  H     
27   H        -7.3065   29.2198   -7.8608  H     
28   H        -2.4385   33.2779   -7.9404  H     
29   H        -1.6916   34.8313   -6.4431  H     
30   H        -3.8458   31.4402   -5.0781  H     
31   H        -3.3726   32.0591   -2.8247  H     
32   H        -2.0748   34.0576   -2.3276  H     
33   H        -1.2284   35.4205   -4.1490  H     
34   H        -4.8102   29.3065   -5.4686  H     
35   H        -5.1001   29.2201   -3.0910  H     
36   H        -7.3261   29.3720   -2.1386  H     
37   H        -9.2399   29.6341   -3.5548  H     
@<TRIPOS>BOND
     1    1    2 1
     2    1    6 2
     3    2    3 2
     4    3    4 1
     5    4    5 2
     6    4    8 1
     7    5    6 1
     8    6    7 1
     9    7   15 1
    10    8    9 1
    11    9   10 2
    12    9   11 1
    13   10   14 1
    14   11   12 2
    15   12   13 1
    16   13   14 2
    17   15   16 2
    18   15   17 1
    19   16   20 1
    20   16   21 1
    21   17   18 2
    22   18   19 1
    23   19   20 2
    24   21   22 1
    25   21   23 1
    26   21   24 1
    27    1   25 1
    28    2   26 1
    29    7   27 1
    30    8   28 1
    31   10   29 1
    32   11   30 1
    33   12   31 1
    34   13   32 1
    35   14   33 1
    36   17   34 1
    37   18   35 1
    38   19   36 1
    39   20   37 1
@<TRIPOS>PROPERTY_DATA
  Total_Score	| 5.4632
  Crash		| -0.9791
  Polar		| 1.1299
  FragIndex	| 1
  FragRMSD	| 0.729

