@<TRIPOS>MOLECULE
BindingDB_50218737
 43 46 0 0 0
SMALL
NO_CHARGES


@<TRIPOS>ATOM
1    C        14.8822   -4.6446   10.4716  C     
2    C        15.5173   -5.7636   11.0397  C     
3    C        16.9113   -5.8943   10.8517  C     
4    C        15.6159   -3.7023    9.7408  C     
5    N        18.9860   -5.2722   10.0680  N     
6    C        17.6711   -4.9509   10.1248  C     
7    C        17.0225   -3.8230    9.5446  C     
8    C        17.6812   -2.8439    8.7892  C     
9    N        18.9588   -2.7154    8.5042  N     
10   C        20.0584   -3.4516    8.7980  C     
11   C        20.0680   -4.6615    9.5282  C     
12   C        21.2981   -5.3270    9.7452  C     
13   C        22.5038   -4.7950    9.2577  C     
14   C        22.4949   -3.5864    8.5433  C     
15   C        21.2780   -2.9222    8.3135  C     
16   O        17.0385   -1.9253    8.3036  O     
17   C        14.7763   -6.7383   11.7799  C     
18   C        14.9921   -8.1197   11.5712  C     
19   C        14.2953   -9.0823   12.3251  C     
20   C        13.3508   -8.6744   13.2842  C     
21   C        13.0971   -7.3017   13.4833  C     
22   C        13.8288   -6.3452   12.7523  C     
23   O        12.2141   -6.9073   14.4558  O     
24   C        10.8641   -6.6678   14.0102  C     
25   C        10.6492   -5.2564   13.4178  C     
26   H        13.8712   -4.5121   10.5683  H     
27   H        17.3901   -6.6985   11.2750  H     
28   H        15.0892   -2.9200    9.3404  H     
29   H        19.2013   -6.1071   10.5129  H     
30   H        19.1632   -1.9169    7.9918  H     
31   H        21.3269   -6.2100   10.2610  H     
32   H        23.3835   -5.2866    9.4211  H     
33   H        23.3690   -3.1917    8.1936  H     
34   H        21.2941   -2.0393    7.7947  H     
35   H        15.6514   -8.4416   10.8607  H     
36   H        14.4747  -10.0778   12.1769  H     
37   H        12.8540   -9.3733   13.8396  H     
38   H        13.6787   -5.3523   12.9564  H     
39   H        10.5297   -7.4297   13.3018  H     
40   H        10.2280   -6.7477   14.8944  H     
41   H        10.9661   -4.5036   14.1406  H     
42   H         9.5939   -5.1053   13.1852  H     
43   H        11.2250   -5.1292   12.4963  H     
@<TRIPOS>BOND
     1    1    2 2
     2    1    4 1
     3    2    3 1
     4    2   17 1
     5    3    6 2
     6    4    7 2
     7    5    6 1
     8    5   11 1
     9    6    7 1
    10    7    8 1
    11    8    9 1
    12    8   16 2
    13    9   10 1
    14   10   11 2
    15   10   15 1
    16   11   12 1
    17   12   13 2
    18   13   14 1
    19   14   15 2
    20   17   18 2
    21   17   22 1
    22   18   19 1
    23   19   20 2
    24   20   21 1
    25   21   22 2
    26   21   23 1
    27   23   24 1
    28   24   25 1
    29    1   26 1
    30    3   27 1
    31    4   28 1
    32    5   29 1
    33    9   30 1
    34   12   31 1
    35   13   32 1
    36   14   33 1
    37   15   34 1
    38   18   35 1
    39   19   36 1
    40   20   37 1
    41   22   38 1
    42   24   39 1
    43   24   40 1
    44   25   41 1
    45   25   42 1
    46   25   43 1
@<TRIPOS>PROPERTY_DATA
  Total_Score	| 6.8230
  Crash		| -1.1762
  Polar		| 1.1504
  FragIndex	| 1
  FragRMSD	| 0.248

