@<TRIPOS>MOLECULE
BindingDB_50218721
 40 43 0 0 0
SMALL
NO_CHARGES


@<TRIPOS>ATOM
1    C        14.6836   -4.7620   10.3605  C     
2    C        15.3443   -5.7135   11.1671  C     
3    C        16.7588   -5.6951   11.1576  C     
4    C        15.4111   -3.8364    9.6057  C     
5    N        18.8560   -5.0226   10.4278  N     
6    C        17.5177   -4.8030   10.3625  C     
7    C        16.8352   -3.8240    9.5855  C     
8    C        17.4837   -2.8511    8.8190  C     
9    N        18.7642   -2.7021    8.5375  N     
10   C        19.8665   -3.4178    8.8446  C     
11   C        19.9132   -4.5034    9.7541  C     
12   C        21.1642   -5.1092   10.0123  C     
13   C        22.3425   -4.6657    9.3782  C     
14   C        22.2861   -3.5972    8.4700  C     
15   C        21.0560   -2.9750    8.2101  C     
16   O        16.8259   -1.9414    8.3312  O     
17   C        14.6062   -6.7101   11.8786  C     
18   C        14.9093   -8.0814   11.7130  C     
19   C        14.1558   -9.0751   12.3615  C     
20   C        13.0596   -8.7225   13.1734  C     
21   C        12.7227   -7.3626   13.3641  C     
22   C        13.5161   -6.3705   12.7202  C     
23   O        11.5829   -7.1164   14.1137  O     
24   C        10.7796   -5.9409   13.8630  C     
25   Cl       12.1512   -9.9761   13.8823  Cl    
26   H        13.6618   -4.7570   10.2768  H     
27   H        17.2573   -6.3836   11.7255  H     
28   H        14.8615   -3.1816    9.0395  H     
29   H        19.1077   -5.7293   11.0428  H     
30   H        18.9554   -1.9185    7.9995  H     
31   H        21.2415   -5.8901   10.6661  H     
32   H        23.2367   -5.1213    9.5686  H     
33   H        23.1322   -3.2722    7.9983  H     
34   H        21.0335   -2.1862    7.5505  H     
35   H        15.6574   -8.3681   11.0845  H     
36   H        14.3971  -10.0554   12.1993  H     
37   H        13.2812   -5.3865   12.8816  H     
38   H        11.3806   -5.0312   14.0094  H     
39   H         9.9429   -5.9276   14.5721  H     
40   H        10.3807   -5.9558   12.8442  H     
@<TRIPOS>BOND
     1    1    2 2
     2    1    4 1
     3    2    3 1
     4    2   17 1
     5    3    6 2
     6    4    7 2
     7    5    6 1
     8    5   11 1
     9    6    7 1
    10    7    8 1
    11    8    9 1
    12    8   16 2
    13    9   10 1
    14   10   11 2
    15   10   15 1
    16   11   12 1
    17   12   13 2
    18   13   14 1
    19   14   15 2
    20   17   18 2
    21   17   22 1
    22   18   19 1
    23   19   20 2
    24   20   21 1
    25   20   25 1
    26   21   22 2
    27   21   23 1
    28   23   24 1
    29    1   26 1
    30    3   27 1
    31    4   28 1
    32    5   29 1
    33    9   30 1
    34   12   31 1
    35   13   32 1
    36   14   33 1
    37   15   34 1
    38   18   35 1
    39   19   36 1
    40   22   37 1
    41   24   38 1
    42   24   39 1
    43   24   40 1
@<TRIPOS>PROPERTY_DATA
  Total_Score	| 6.5195
  Crash		| -0.9144
  Polar		| 1.0358
  FragIndex	| 1
  FragRMSD	| 0.333

