@<TRIPOS>MOLECULE
BindingDB_50218722
 42 45 0 0 0
SMALL
NO_CHARGES


@<TRIPOS>ATOM
1    C        14.8489   -4.6491   10.2902  C     
2    C        15.4554   -5.5928   11.1397  C     
3    C        16.8649   -5.6260   11.1711  C     
4    C        15.6252   -3.7631    9.5289  C     
5    N        18.9918   -5.0321   10.5009  N     
6    C        17.6664   -4.7724   10.3796  C     
7    C        17.0482   -3.7974    9.5507  C     
8    C        17.7468   -2.8584    8.7760  C     
9    N        19.0375   -2.7669    8.5284  N     
10   C        20.1020   -3.5139    8.9004  C     
11   C        20.0848   -4.5666    9.8458  C     
12   C        21.2986   -5.2193   10.1657  C     
13   C        22.5068   -4.8439    9.5531  C     
14   C        22.5184   -3.8085    8.6083  C     
15   C        21.3228   -3.1440    8.2921  C     
16   O        17.1394   -1.9494    8.2247  O     
17   C        14.6690   -6.5342   11.8744  C     
18   C        15.0145   -7.8970   11.9015  C     
19   C        14.1972   -8.8429   12.5356  C     
20   C        12.9610   -8.4761   13.1231  C     
21   C        12.5932   -7.0953   13.0997  C     
22   C        13.4722   -6.1493   12.5154  C     
23   O        11.3357   -6.7630   13.5706  O     
24   C        10.8382   -5.4103   13.5669  C     
25   N        12.1774   -9.4550   13.6824  N     
26   O        11.1190   -9.2488   14.2079  O     
27   O        12.5287  -10.7157   13.6745  O     
28   H        13.8270   -4.6142   10.1993  H     
29   H        17.3241   -6.3037   11.7826  H     
30   H        15.1131   -3.1011    8.9351  H     
31   H        19.1921   -5.7258   11.1472  H     
32   H        19.2719   -2.0149    7.9629  H     
33   H        21.3150   -5.9733   10.8579  H     
34   H        23.3748   -5.3289    9.7890  H     
35   H        23.3940   -3.5274    8.1625  H     
36   H        21.3564   -2.3772    7.6120  H     
37   H        15.8554   -8.2222   11.4248  H     
38   H        14.5147   -9.8109   12.5249  H     
39   H        13.2160   -5.1582   12.5519  H     
40   H        11.4548   -4.7909   14.2341  H     
41   H         9.8031   -5.4036   13.9193  H     
42   H        10.8679   -4.9944   12.5469  H     
@<TRIPOS>BOND
     1    1    2 2
     2    1    4 1
     3    2    3 1
     4    2   17 1
     5    3    6 2
     6    4    7 2
     7    5    6 1
     8    5   11 1
     9    6    7 1
    10    7    8 1
    11    8    9 1
    12    8   16 2
    13    9   10 1
    14   10   11 2
    15   10   15 1
    16   11   12 1
    17   12   13 2
    18   13   14 1
    19   14   15 2
    20   17   18 2
    21   17   22 1
    22   18   19 1
    23   19   20 2
    24   20   21 1
    25   20   25 am
    26   21   22 2
    27   21   23 1
    28   23   24 1
    29   25   26 2
    30   25   27 1
    31    1   28 1
    32    3   29 1
    33    4   30 1
    34    5   31 1
    35    9   32 1
    36   12   33 1
    37   13   34 1
    38   14   35 1
    39   15   36 1
    40   18   37 1
    41   19   38 1
    42   22   39 1
    43   24   40 1
    44   24   41 1
    45   24   42 1
@<TRIPOS>PROPERTY_DATA
  Total_Score	| 7.1057
  Crash		| -0.9872
  Polar		| 2.7620
  FragIndex	| 1
  FragRMSD	| 0.322

