@<TRIPOS>MOLECULE
BindingDB_91951
 54 58 0 0 0
SMALL
NO_CHARGES


@<TRIPOS>ATOM
1    C        10.7992   -5.4638   13.5996  C     
2    O        11.3260   -6.8067   13.7201  O     
3    C        12.5545   -7.1444   13.1826  C     
4    C        12.9034   -8.5289   13.1619  C     
5    N        12.1009   -9.5149   13.6788  N     
6    O        12.4228  -10.7752   13.6131  O     
7    O        11.0377   -9.3202   14.2112  O     
8    C        14.1234   -8.8990   12.5282  C     
9    C        14.9495   -7.9517   11.9054  C     
10   C        14.6221   -6.5764   11.9263  C     
11   C        15.4057   -5.6385   11.1853  C     
12   C        16.8196   -5.6822   11.1553  C     
13   C        17.5945   -4.8081   10.3503  C     
14   C        16.9398   -3.8196    9.5607  C     
15   C        17.6001   -2.8566    8.7947  C     
16   N        18.8796   -2.7333    8.5138  N     
17   C        19.9699   -3.4584    8.8376  C     
18   C        20.0015   -4.5325    9.7618  C     
19   N        18.9300   -5.0514   10.4164  N     
20   C        21.2503   -5.1246   10.0573  C     
21   C        22.4382   -4.6730    9.4581  C     
22   C        22.4168   -3.6075    8.5259  C     
23   C        23.6202   -3.1043    7.9546  C     
24   C        24.7210   -2.7402    8.7764  C     
25   C        25.8789   -2.1714    8.2204  C     
26   N        26.9029   -1.8017    9.0142  N     
27   C        25.9679   -1.9673    6.8320  C     
28   C        24.8923   -2.3361    6.0000  C     
29   C        23.7302   -2.8948    6.5558  C     
30   C        21.1667   -3.0253    8.2192  C     
31   O        16.9662   -1.9306    8.3109  O     
32   C        15.5170   -3.7920    9.5864  C     
33   C        14.7701   -4.6643   10.3803  C     
34   C        13.4360   -6.1953   12.6048  C     
35   H        11.3914   -4.7735   14.2165  H     
36   H        10.8097   -5.1297   12.5574  H     
37   H         9.7680   -5.4371   13.9766  H     
38   H        14.4041   -9.8799   12.4718  H     
39   H        15.7866   -8.2828   11.4084  H     
40   H        17.3001   -6.3849   11.7229  H     
41   H        19.0831   -1.9488    7.9788  H     
42   H        19.1604   -5.7643   11.0316  H     
43   H        21.3078   -5.8894   10.7330  H     
44   H        23.3224   -5.1228    9.7088  H     
45   H        24.6693   -2.8668    9.7899  H     
46   H        27.6975   -1.3982    8.6303  H     
47   H        26.8440   -1.9286    9.9785  H     
48   H        26.8041   -1.5515    6.4168  H     
49   H        24.9545   -2.1870    4.9908  H     
50   H        22.9630   -3.1554    5.9322  H     
51   H        21.1369   -2.2394    7.5617  H     
52   H        14.9808   -3.1305    9.0052  H     
53   H        13.7487   -4.6110   10.3277  H     
54   H        13.1847   -5.2009   12.6699  H     
@<TRIPOS>BOND
     1    1    2 1
     2    2    3 1
     3    3    4 ar
     4    4    5 am
     5    5    6 1
     6    5    7 2
     7    4    8 ar
     8    8    9 ar
     9    9   10 ar
    10   10   11 1
    11   11   12 ar
    12   12   13 ar
    13   13   14 ar
    14   14   15 1
    15   15   16 1
    16   16   17 1
    17   17   18 ar
    18   18   19 1
    19   13   19 1
    20   18   20 ar
    21   20   21 ar
    22   21   22 ar
    23   22   23 1
    24   23   24 ar
    25   24   25 ar
    26   25   26 1
    27   25   27 ar
    28   27   28 ar
    29   28   29 ar
    30   23   29 ar
    31   22   30 ar
    32   17   30 ar
    33   15   31 2
    34   14   32 ar
    35   32   33 ar
    36   11   33 ar
    37   10   34 ar
    38    3   34 ar
    39    1   35 1
    40    1   36 1
    41    1   37 1
    42    8   38 1
    43    9   39 1
    44   12   40 1
    45   16   41 1
    46   19   42 1
    47   20   43 1
    48   21   44 1
    49   24   45 1
    50   26   46 1
    51   26   47 1
    52   27   48 1
    53   28   49 1
    54   29   50 1
    55   30   51 1
    56   32   52 1
    57   33   53 1
    58   34   54 1
@<TRIPOS>PROPERTY_DATA
  Total_Score	| 7.9387
  Crash		| -1.1943
  Polar		| 2.7458
  FragIndex	| 1
  FragRMSD	| 0.224

