@<TRIPOS>MOLECULE
BindingDB_50218717
 45 48 0 0 0
SMALL
NO_CHARGES


@<TRIPOS>ATOM
1    C        14.8434   -4.9173   10.5540  C     
2    C        15.4943   -5.8716   11.3521  C     
3    C        16.9012   -5.9562   11.2905  C     
4    C        15.5876   -4.0486    9.7417  C     
5    N        19.0031   -5.3111   10.5683  N     
6    C        17.6679   -5.0839   10.4775  C     
7    C        17.0127   -4.0845    9.7013  C     
8    C        17.6793   -3.1120    8.9354  C     
9    N        18.9658   -2.9805    8.6703  N     
10   C        20.0557   -3.7070    9.0057  C     
11   C        20.0788   -4.7791    9.9301  C     
12   C        21.3219   -5.3801   10.2408  C     
13   C        22.5136   -4.9494    9.6319  C     
14   C        22.4821   -3.9075    8.6933  C     
15   C        21.2590   -3.2883    8.3869  C     
16   O        17.0459   -2.1945    8.4239  O     
17   C        14.7652   -6.5911   12.3311  C     
18   C        14.4876   -5.9564   13.5597  C     
19   C        13.7390   -6.6083   14.5530  C     
20   C        13.2337   -7.9086   14.3347  C     
21   C        13.5156   -8.5703   13.1071  C     
22   C        14.2960   -7.9082   12.1268  C     
23   O        13.1136   -9.8633   12.8328  O     
24   C        11.7024  -10.1582   12.8505  C     
25   C        12.4430   -8.4848   15.3082  C     
26   O        11.2416   -8.2662   15.2552  O     
27   C        12.9913   -9.3881   16.2998  C     
28   H        13.8225   -4.8187   10.5815  H     
29   H        17.3650   -6.6531   11.8798  H     
30   H        15.0614   -3.3612    9.1963  H     
31   H        19.2376   -6.0234   11.1845  H     
32   H        19.1767   -2.1895    8.1514  H     
33   H        21.3703   -6.1476   10.9194  H     
34   H        23.4029   -5.3969    9.8709  H     
35   H        23.3436   -3.5958    8.2451  H     
36   H        21.2588   -2.5203    7.7102  H     
37   H        14.8357   -5.0111   13.7414  H     
38   H        13.5601   -6.1156   15.4329  H     
39   H        14.5256   -8.3906   11.2531  H     
40   H        11.3748  -10.3573   13.8803  H     
41   H        11.5270  -11.0541   12.2481  H     
42   H        11.1015   -9.3460   12.4297  H     
43   H        13.5364  -10.2010   15.8139  H     
44   H        12.2016   -9.8299   16.9123  H     
45   H        13.6740   -8.8440   16.9574  H     
@<TRIPOS>BOND
     1    1    2 2
     2    1    4 1
     3    2    3 1
     4    2   17 1
     5    3    6 2
     6    4    7 2
     7    5    6 1
     8    5   11 1
     9    6    7 1
    10    7    8 1
    11    8    9 1
    12    8   16 2
    13    9   10 1
    14   10   11 2
    15   10   15 1
    16   11   12 1
    17   12   13 2
    18   13   14 1
    19   14   15 2
    20   17   18 2
    21   17   22 1
    22   18   19 1
    23   19   20 2
    24   20   21 1
    25   20   25 1
    26   21   22 2
    27   21   23 1
    28   23   24 1
    29   25   26 2
    30   25   27 1
    31    1   28 1
    32    3   29 1
    33    4   30 1
    34    5   31 1
    35    9   32 1
    36   12   33 1
    37   13   34 1
    38   14   35 1
    39   15   36 1
    40   18   37 1
    41   19   38 1
    42   22   39 1
    43   24   40 1
    44   24   41 1
    45   24   42 1
    46   27   43 1
    47   27   44 1
    48   27   45 1
@<TRIPOS>PROPERTY_DATA
  Total_Score	| 7.0185
  Crash		| -0.8723
  Polar		| 2.4673
  FragIndex	| 1
  FragRMSD	| 1.237

