@<TRIPOS>MOLECULE
BindingDB_50218732
 41 44 0 0 0
SMALL
NO_CHARGES


@<TRIPOS>ATOM
1    C        14.8320   -4.7247   10.3847  C     
2    C        15.4701   -5.7241   11.1460  C     
3    C        16.8837   -5.7509   11.1322  C     
4    C        15.5819   -3.8050    9.6375  C     
5    N        18.9903   -5.1032   10.4306  N     
6    C        17.6591   -4.8535   10.3594  C     
7    C        17.0068   -3.8412    9.5953  C     
8    C        17.6708   -2.8859    8.8136  C     
9    N        18.9542   -2.7807    8.5271  N     
10   C        20.0469   -3.5038    8.8775  C     
11   C        20.0663   -4.5832    9.7973  C     
12   C        21.3028   -5.1996   10.1037  C     
13   C        22.4959   -4.7757    9.4966  C     
14   C        22.4728   -3.7144    8.5760  C     
15   C        21.2551   -3.0838    8.2731  C     
16   O        17.0350   -1.9702    8.3058  O     
17   C        14.7068   -6.7002   11.8582  C     
18   C        14.9407   -8.0842   11.6589  C     
19   C        14.1912   -9.0510   12.3533  C     
20   C        13.1707   -8.6571   13.2437  C     
21   C        12.9003   -7.2791   13.4523  C     
22   C        13.6920   -6.3193   12.7675  C     
23   O        11.8898   -6.9428   14.3327  O     
24   C        10.8737   -5.9921   13.9443  C     
25   C        12.4872   -9.5825   13.8594  C     
26   N        11.8748  -10.3816   14.4119  N     
27   H        13.8075   -4.6745   10.3417  H     
28   H        17.3624   -6.4560   11.6957  H     
29   H        15.0540   -3.1122    9.0938  H     
30   H        19.2179   -5.8334   11.0238  H     
31   H        19.1618   -2.0128    7.9701  H     
32   H        21.3467   -5.9773   10.7647  H     
33   H        23.3797   -5.2358    9.7160  H     
34   H        23.3367   -3.4019    8.1234  H     
35   H        21.2545   -2.3046    7.6034  H     
36   H        15.6512   -8.4024   10.9891  H     
37   H        14.3851  -10.0430   12.1802  H     
38   H        13.5227   -5.3193   12.9369  H     
39   H        11.2728   -4.9742   13.9909  H     
40   H        10.0455   -6.0723   14.6479  H     
41   H        10.5014   -6.1937   12.9373  H     
@<TRIPOS>BOND
     1    1    2 2
     2    1    4 1
     3    2    3 1
     4    2   17 1
     5    3    6 2
     6    4    7 2
     7    5    6 1
     8    5   11 1
     9    6    7 1
    10    7    8 1
    11    8    9 1
    12    8   16 2
    13    9   10 1
    14   10   11 2
    15   10   15 1
    16   11   12 1
    17   12   13 2
    18   13   14 1
    19   14   15 2
    20   17   18 2
    21   17   22 1
    22   18   19 1
    23   19   20 2
    24   20   21 1
    25   20   25 1
    26   21   22 2
    27   21   23 1
    28   23   24 1
    29   25   26 3
    30    1   27 1
    31    3   28 1
    32    4   29 1
    33    5   30 1
    34    9   31 1
    35   12   32 1
    36   13   33 1
    37   14   34 1
    38   15   35 1
    39   18   36 1
    40   19   37 1
    41   22   38 1
    42   24   39 1
    43   24   40 1
    44   24   41 1
@<TRIPOS>PROPERTY_DATA
  Total_Score	| 6.2921
  Crash		| -0.9058
  Polar		| 1.1373
  FragIndex	| 1
  FragRMSD	| 0.173

