@<TRIPOS>MOLECULE
BindingDB_91939
 42 45 0 0 0
SMALL
NO_CHARGES


@<TRIPOS>ATOM
1    C        10.7004   -6.0190   14.0367  C     
2    O        11.1619   -6.7171   12.8700  O     
3    C        12.5000   -7.0219   12.8116  C     
4    C        13.3348   -6.0677   12.1924  C     
5    C        14.6775   -6.3543   11.8435  C     
6    C        15.1693   -7.6380   12.1760  C     
7    C        14.3610   -8.5882   12.8175  C     
8    C        13.0093   -8.3116   13.1279  C     
9    C        12.2068   -9.3417   13.6858  C     
10   O        12.6838  -10.5886   13.8848  O     
11   O        10.9222   -9.1546   14.0526  O     
12   C        15.4876   -5.4212   11.1116  C     
13   C        14.9092   -4.5086   10.2032  C     
14   C        15.7043   -3.6381    9.4455  C     
15   C        17.1239   -3.6558    9.5197  C     
16   C        17.8445   -2.7608    8.7201  C     
17   O        17.2595   -1.8383    8.1700  O     
18   N        19.1346   -2.7238    8.4498  N     
19   C        20.1792   -3.4833    8.8519  C     
20   C        21.4071   -3.1882    8.2140  C     
21   C        22.5913   -3.8463    8.5854  C     
22   C        22.5639   -4.7999    9.6138  C     
23   C        21.3519   -5.0935   10.2610  C     
24   C        20.1474   -4.4527    9.8843  C     
25   N        19.0525   -4.8434   10.5722  N     
26   C        17.7231   -4.5919   10.4073  C     
27   C        16.8994   -5.4197   11.2084  C     
28   H        10.5305   -6.7213   14.8550  H     
29   H        11.3861   -5.2278   14.3589  H     
30   H         9.7405   -5.5604   13.7891  H     
31   H        12.9308   -5.1549   11.9638  H     
32   H        16.1182   -7.9166   11.9200  H     
33   H        14.7719   -9.5037   13.0192  H     
34   H        13.8979   -4.4867   10.0523  H     
35   H        15.2158   -3.0079    8.8023  H     
36   H        19.3879   -1.9999    7.8536  H     
37   H        21.4525   -2.4790    7.4752  H     
38   H        23.4723   -3.6235    8.1167  H     
39   H        23.4240   -5.2778    9.8925  H     
40   H        21.3573   -5.7921   11.0104  H     
41   H        19.2449   -5.4952   11.2658  H     
42   H        17.3463   -6.0597   11.8731  H     
@<TRIPOS>BOND
     1    1    2 1
     2    2    3 1
     3    3    4 ar
     4    4    5 ar
     5    5    6 ar
     6    6    7 ar
     7    7    8 ar
     8    3    8 ar
     9    8    9 1
    10    9   10 2
    11    9   11 1
    12    5   12 1
    13   12   13 ar
    14   13   14 ar
    15   14   15 ar
    16   15   16 1
    17   16   17 2
    18   16   18 1
    19   18   19 1
    20   19   20 ar
    21   20   21 ar
    22   21   22 ar
    23   22   23 ar
    24   23   24 ar
    25   19   24 ar
    26   24   25 1
    27   25   26 1
    28   15   26 ar
    29   26   27 ar
    30   12   27 ar
    31    1   28 1
    32    1   29 1
    33    1   30 1
    34    4   31 1
    35    6   32 1
    36    7   33 1
    37   13   34 1
    38   14   35 1
    39   18   36 1
    40   20   37 1
    41   21   38 1
    42   22   39 1
    43   23   40 1
    44   25   41 1
    45   27   42 1
@<TRIPOS>PROPERTY_DATA
  Total_Score	| 7.2529
  Crash		| -1.1471
  Polar		| 2.5578
  FragIndex	| 1
  FragRMSD	| 0.784

