@<TRIPOS>MOLECULE
BindingDB_50218727
 42 45 0 0 0
SMALL
NO_CHARGES


@<TRIPOS>ATOM
1    C        14.8343   -4.7287   10.3986  C     
2    C        15.4853   -5.7529   11.1140  C     
3    C        16.8945   -5.8042   11.0577  C     
4    C        15.5742   -3.7970    9.6548  C     
5    N        18.9890   -5.1364   10.3554  N     
6    C        17.6582   -4.8810   10.3022  C     
7    C        16.9953   -3.8440    9.5837  C     
8    C        17.6564   -2.8750    8.8162  C     
9    N        18.9377   -2.7590    8.5260  N     
10   C        20.0339   -3.4828    8.8566  C     
11   C        20.0619   -4.5932    9.7366  C     
12   C        21.2992   -5.2159   10.0189  C     
13   C        22.4896   -4.7576    9.4327  C     
14   C        22.4615   -3.6633    8.5554  C     
15   C        21.2392   -3.0374    8.2657  C     
16   O        17.0158   -1.9567    8.3248  O     
17   C        14.7411   -6.7419   11.8236  C     
18   C        14.9727   -8.1221   11.5810  C     
19   C        14.2905   -9.1105   12.3079  C     
20   C        13.3410   -8.7386   13.2855  C     
21   C        13.0549   -7.3707   13.5210  C     
22   C        13.7731   -6.3850   12.8016  C     
23   O        12.1249   -7.0771   14.5011  O     
24   C        10.9424   -6.3297   14.1301  C     
25   N        12.7382   -9.7129   13.9935  N     
26   H        13.8130   -4.6677   10.3901  H     
27   H        17.3779   -6.5424   11.5898  H     
28   H        15.0491   -3.0805    9.1481  H     
29   H        19.2185   -5.8825   10.9356  H     
30   H        19.1408   -1.9891    7.9703  H     
31   H        21.3435   -6.0167   10.6531  H     
32   H        23.3762   -5.2114    9.6504  H     
33   H        23.3234   -3.3245    8.1242  H     
34   H        21.2388   -2.2371    7.6269  H     
35   H        15.6478   -8.4125   10.8641  H     
36   H        14.4917  -10.1009   12.1339  H     
37   H        13.6070   -5.3940   13.0116  H     
38   H        11.1715   -5.2555   14.0721  H     
39   H        10.1916   -6.4880   14.9075  H     
40   H        10.5169   -6.6675   13.1760  H     
41   H        12.0939   -9.4903   14.6925  H     
42   H        12.9709  -10.6436   13.8305  H     
@<TRIPOS>BOND
     1    1    2 2
     2    1    4 1
     3    2    3 1
     4    2   17 1
     5    3    6 2
     6    4    7 2
     7    5    6 1
     8    5   11 1
     9    6    7 1
    10    7    8 1
    11    8    9 1
    12    8   16 2
    13    9   10 1
    14   10   11 2
    15   10   15 1
    16   11   12 1
    17   12   13 2
    18   13   14 1
    19   14   15 2
    20   17   18 2
    21   17   22 1
    22   18   19 1
    23   19   20 2
    24   20   21 1
    25   20   25 1
    26   21   22 2
    27   21   23 1
    28   23   24 1
    29    1   26 1
    30    3   27 1
    31    4   28 1
    32    5   29 1
    33    9   30 1
    34   12   31 1
    35   13   32 1
    36   14   33 1
    37   15   34 1
    38   18   35 1
    39   19   36 1
    40   22   37 1
    41   24   38 1
    42   24   39 1
    43   24   40 1
    44   25   41 1
    45   25   42 1
@<TRIPOS>PROPERTY_DATA
  Total_Score	| 6.4718
  Crash		| -0.8439
  Polar		| 1.1177
  FragIndex	| 1
  FragRMSD	| 0.241

