@<TRIPOS>MOLECULE
BindingDB_50218735
 40 43 0 0 0
SMALL
NO_CHARGES


@<TRIPOS>ATOM
1    C        14.8102   -4.7127   10.4411  C     
2    C        15.4552   -5.7541   11.1373  C     
3    C        16.8646   -5.8108   11.0666  C     
4    C        15.5501   -3.7759    9.7057  C     
5    N        18.9581   -5.1457   10.3629  N     
6    C        17.6275   -4.8855   10.3154  C     
7    C        16.9692   -3.8375    9.6089  C     
8    C        17.6281   -2.8771    8.8349  C     
9    N        18.9097   -2.7597    8.5483  N     
10   C        20.0017   -3.4831    8.8753  C     
11   C        20.0319   -4.5950    9.7504  C     
12   C        21.2698   -5.2168   10.0308  C     
13   C        22.4625   -4.7580    9.4446  C     
14   C        22.4266   -3.6716    8.5545  C     
15   C        21.2048   -3.0418    8.2737  C     
16   O        16.9846   -1.9781    8.3069  O     
17   C        14.7139   -6.7403   11.8496  C     
18   C        14.9514   -8.1214   11.6343  C     
19   C        14.2255   -9.0974   12.3387  C     
20   C        13.2294   -8.7055   13.2513  C     
21   C        12.9495   -7.3415   13.4752  C     
22   C        13.7215   -6.3712   12.7862  C     
23   O        11.9831   -7.0649   14.4181  O     
24   C        10.8741   -6.2173   14.0479  C     
25   H        13.7886   -4.6362   10.4493  H     
26   H        17.3557   -6.5500   11.5826  H     
27   H        15.0098   -3.0483    9.2220  H     
28   H        19.1853   -5.9067   10.9215  H     
29   H        19.1134   -1.9890    8.0010  H     
30   H        21.3196   -6.0161   10.6716  H     
31   H        23.3522   -5.2105    9.6618  H     
32   H        23.2914   -3.3340    8.1212  H     
33   H        21.1989   -2.2479    7.6240  H     
34   H        15.6445   -8.4257   10.9449  H     
35   H        14.4058  -10.0894   12.1664  H     
36   H        12.7007   -9.4260   13.7457  H     
37   H        13.5555   -5.3831   12.9740  H     
38   H        11.1765   -5.1616   14.0742  H     
39   H        10.0758   -6.3584   14.7729  H     
40   H        10.4819   -6.4638   13.0542  H     
@<TRIPOS>BOND
     1    1    2 2
     2    1    4 1
     3    2    3 1
     4    2   17 1
     5    3    6 2
     6    4    7 2
     7    5    6 1
     8    5   11 1
     9    6    7 1
    10    7    8 1
    11    8    9 1
    12    8   16 2
    13    9   10 1
    14   10   11 2
    15   10   15 1
    16   11   12 1
    17   12   13 2
    18   13   14 1
    19   14   15 2
    20   17   18 2
    21   17   22 1
    22   18   19 1
    23   19   20 2
    24   20   21 1
    25   21   22 2
    26   21   23 1
    27   23   24 1
    28    1   25 1
    29    3   26 1
    30    4   27 1
    31    5   28 1
    32    9   29 1
    33   12   30 1
    34   13   31 1
    35   14   32 1
    36   15   33 1
    37   18   34 1
    38   19   35 1
    39   20   36 1
    40   22   37 1
    41   24   38 1
    42   24   39 1
    43   24   40 1
@<TRIPOS>PROPERTY_DATA
  Total_Score	| 6.2077
  Crash		| -0.7914
  Polar		| 1.1273
  FragIndex	| 1
  FragRMSD	| 0.220

