@<TRIPOS>MOLECULE
BindingDB_50218741
 44 47 0 0 0
SMALL
NO_CHARGES


@<TRIPOS>ATOM
1    C        14.8776   -4.6846   10.4862  C     
2    C        15.5472   -5.7315   11.1483  C     
3    C        16.9531   -5.7860   11.0373  C     
4    C        15.5926   -3.7437    9.7328  C     
5    N        19.0264   -5.1104   10.2742  N     
6    C        17.6939   -4.8524   10.2751  C     
7    C        17.0103   -3.8000    9.5976  C     
8    C        17.6435   -2.8377    8.7993  C     
9    N        18.9209   -2.6973    8.5004  N     
10   C        20.0350   -3.3910    8.8254  C     
11   C        20.0892   -4.5299    9.6660  C     
12   C        21.3466   -5.1331    9.9272  C     
13   C        22.5336   -4.6077    9.3837  C     
14   C        22.4829   -3.4776    8.5490  C     
15   C        21.2363   -2.8874    8.2677  C     
16   O        16.9776   -1.9438    8.2855  O     
17   C        14.8220   -6.7423   11.8440  C     
18   C        15.0493   -8.1134   11.5457  C     
19   C        14.3274   -9.1216   12.2063  C     
20   C        13.3560   -8.7927   13.1676  C     
21   C        13.1042   -7.4341   13.4739  C     
22   C        13.8576   -6.4219   12.8359  C     
23   O        12.1809   -7.1507   14.4544  O     
24   C        10.9868   -6.4451   14.0436  C     
25   N        12.6939   -9.7929   13.7764  N     
26   N        23.6193   -2.9528    8.0528  N     
27   H        13.8587   -4.6077   10.5243  H     
28   H        17.4479   -6.5359   11.5236  H     
29   H        15.0441   -3.0191    9.2564  H     
30   H        19.2684   -5.8851   10.8085  H     
31   H        19.0940   -1.9243    7.9391  H     
32   H        21.4135   -5.9532   10.5369  H     
33   H        23.4293   -5.0448    9.6059  H     
34   H        21.2155   -2.0571    7.6633  H     
35   H        15.7402   -8.3866   10.8348  H     
36   H        14.5112  -10.1022   11.9742  H     
37   H        13.6929   -5.4496   13.1206  H     
38   H        11.2162   -5.3943   13.8340  H     
39   H        10.2523   -6.4861   14.8507  H     
40   H        10.5213   -6.8773   13.1543  H     
41   H        12.0572   -9.6040   14.4819  H     
42   H        12.8776  -10.7143   13.5300  H     
43   H        23.5961   -2.1357    7.5252  H     
44   H        24.4749   -3.3580    8.2661  H     
@<TRIPOS>BOND
     1    1    2 2
     2    1    4 1
     3    2    3 1
     4    2   17 1
     5    3    6 2
     6    4    7 2
     7    5    6 1
     8    5   11 1
     9    6    7 1
    10    7    8 1
    11    8    9 1
    12    8   16 2
    13    9   10 1
    14   10   11 2
    15   10   15 1
    16   11   12 1
    17   12   13 2
    18   13   14 1
    19   14   15 2
    20   14   26 1
    21   17   18 2
    22   17   22 1
    23   18   19 1
    24   19   20 2
    25   20   21 1
    26   20   25 1
    27   21   22 2
    28   21   23 1
    29   23   24 1
    30    1   27 1
    31    3   28 1
    32    4   29 1
    33    5   30 1
    34    9   31 1
    35   12   32 1
    36   13   33 1
    37   15   34 1
    38   18   35 1
    39   19   36 1
    40   22   37 1
    41   24   38 1
    42   24   39 1
    43   24   40 1
    44   25   41 1
    45   25   42 1
    46   26   43 1
    47   26   44 1
@<TRIPOS>PROPERTY_DATA
  Total_Score	| 7.1840
  Crash		| -1.0220
  Polar		| 1.5927
  FragIndex	| 1
  FragRMSD	| 0.274

