@<TRIPOS>MOLECULE
BindingDB_50218740
 44 47 0 0 0
SMALL
NO_CHARGES


@<TRIPOS>ATOM
1    C        14.9425   -4.5986   10.2315  C     
2    C        15.5384   -5.5575   11.0920  C     
3    C        16.9559   -5.6131   11.1079  C     
4    C        15.7263   -3.7378    9.4593  C     
5    N        19.0838   -5.0316   10.4444  N     
6    C        17.7601   -4.7665   10.3137  C     
7    C        17.1509   -3.7842    9.4833  C     
8    C        17.8552   -2.8580    8.7095  C     
9    N        19.1509   -2.7797    8.4630  N     
10   C        20.2100   -3.5273    8.8460  C     
11   C        20.1805   -4.5706    9.8105  C     
12   C        21.3938   -5.2108   10.1641  C     
13   C        22.6104   -4.8590    9.5549  C     
14   C        22.6350   -3.8371    8.5839  C     
15   C        21.4442   -3.1763    8.2399  C     
16   O        17.2481   -1.9423    8.1701  O     
17   C        14.7270   -6.4464   11.8687  C     
18   C        14.9071   -7.8507   11.8001  C     
19   C        14.0730   -8.7210   12.5229  C     
20   C        13.0049   -8.2303   13.3169  C     
21   C        12.8088   -6.8188   13.3799  C     
22   C        13.6987   -5.9501   12.7107  C     
23   O        11.8084   -6.2951   14.1712  O     
24   C        10.8246   -5.4952   13.4844  C     
25   C        12.1811   -9.1270   14.0107  C     
26   N        12.5525  -10.3480   14.3279  N     
27   O        11.0536   -8.8209   14.3724  O     
28   H        13.9237   -4.5292   10.1471  H     
29   H        17.4020   -6.2983   11.7248  H     
30   H        15.2313   -3.0603    8.8634  H     
31   H        19.2795   -5.7377   11.0853  H     
32   H        19.3954   -2.0182    7.9086  H     
33   H        21.4007   -5.9526   10.8726  H     
34   H        23.4751   -5.3380    9.8099  H     
35   H        23.5145   -3.5877    8.1293  H     
36   H        21.4900   -2.4264    7.5403  H     
37   H        15.6370   -8.2500   11.1977  H     
38   H        14.2507   -9.7299   12.4395  H     
39   H        13.5761   -4.9410   12.8534  H     
40   H        11.2847   -4.5816   13.0799  H     
41   H        10.0240   -5.2411   14.1754  H     
42   H        10.3811   -6.0380   12.6441  H     
43   H        11.9454  -10.9196   14.8206  H     
44   H        13.4383  -10.6727   14.0940  H     
@<TRIPOS>BOND
     1    1    2 2
     2    1    4 1
     3    2    3 1
     4    2   17 1
     5    3    6 2
     6    4    7 2
     7    5    6 1
     8    5   11 1
     9    6    7 1
    10    7    8 1
    11    8    9 1
    12    8   16 2
    13    9   10 1
    14   10   11 2
    15   10   15 1
    16   11   12 1
    17   12   13 2
    18   13   14 1
    19   14   15 2
    20   17   18 2
    21   17   22 1
    22   18   19 1
    23   19   20 2
    24   20   21 1
    25   20   25 1
    26   21   22 2
    27   21   23 1
    28   23   24 1
    29   25   26 am
    30   25   27 2
    31    1   28 1
    32    3   29 1
    33    4   30 1
    34    5   31 1
    35    9   32 1
    36   12   33 1
    37   13   34 1
    38   14   35 1
    39   15   36 1
    40   18   37 1
    41   19   38 1
    42   22   39 1
    43   24   40 1
    44   24   41 1
    45   24   42 1
    46   26   43 1
    47   26   44 1
@<TRIPOS>PROPERTY_DATA
  Total_Score	| 6.1256
  Crash		| -1.2786
  Polar		| 2.4372
  FragIndex	| 1
  FragRMSD	| 0.220

