@<TRIPOS>MOLECULE
BindingDB_50218724
 46 49 0 0 0
SMALL
NO_CHARGES


@<TRIPOS>ATOM
1    C        14.6893   -4.6953   10.3672  C     
2    C        15.3195   -5.6679   11.1643  C     
3    C        16.7350   -5.6829   11.1697  C     
4    C        15.4441   -3.7932    9.6051  C     
5    N        18.8475   -5.0422   10.4843  N     
6    C        17.5171   -4.8002   10.3889  C     
7    C        16.8692   -3.8115    9.5927  C     
8    C        17.5372   -2.8586    8.8136  C     
9    N        18.8231   -2.7511    8.5478  N     
10   C        19.9041   -3.4873    8.8930  C     
11   C        19.9215   -4.5519    9.8251  C     
12   C        21.1556   -5.1822   10.1262  C     
13   C        22.3445   -4.7781    9.4989  C     
14   C        22.3233   -3.7256    8.5706  C     
15   C        21.1140   -3.0852    8.2759  C     
16   O        16.8960   -1.9509    8.2943  O     
17   C        14.5639   -6.6501   11.8661  C     
18   C        14.9098   -8.0200   11.7882  C     
19   C        14.1749   -8.9862   12.4950  C     
20   C        13.0567   -8.6305   13.2908  C     
21   C        12.6738   -7.2608   13.3481  C     
22   C        13.4383   -6.2905   12.6540  C     
23   O        11.5830   -6.9254   14.1355  O     
24   C        10.7381   -5.8347   13.7102  C     
25   C        12.3995   -9.6542   14.0396  C     
26   O        11.1791   -9.4802   14.6277  O     
27   O        13.0411  -10.8255   14.2717  O     
28   C        10.5257  -10.4205   15.4973  C     
29   H        13.6703   -4.6432   10.3149  H     
30   H        17.2176   -6.3707   11.7573  H     
31   H        14.9131   -3.1299    9.0323  H     
32   H        19.0726   -5.7557   11.1038  H     
33   H        19.0417   -1.9869    7.9959  H     
34   H        21.2032   -5.9476   10.8005  H     
35   H        23.2327   -5.2458    9.7156  H     
36   H        23.1891   -3.4212    8.1092  H     
37   H        21.1213   -2.3081    7.6035  H     
38   H        15.6982   -8.3307   11.2117  H     
39   H        14.4559   -9.9657   12.3967  H     
40   H        13.1711   -5.3100   12.7410  H     
41   H        11.2100   -4.8818   13.9469  H     
42   H         9.7798   -5.8797   14.2491  H     
43   H        10.5118   -5.8789   12.6339  H     
44   H        10.3191  -11.3562   14.9758  H     
45   H         9.5845   -9.9907   15.8449  H     
46   H        11.1564  -10.6170   16.3641  H     
@<TRIPOS>BOND
     1    1    2 2
     2    1    4 1
     3    2    3 1
     4    2   17 1
     5    3    6 2
     6    4    7 2
     7    5    6 1
     8    5   11 1
     9    6    7 1
    10    7    8 1
    11    8    9 1
    12    8   16 2
    13    9   10 1
    14   10   11 2
    15   10   15 1
    16   11   12 1
    17   12   13 2
    18   13   14 1
    19   14   15 2
    20   17   18 2
    21   17   22 1
    22   18   19 1
    23   19   20 2
    24   20   21 1
    25   20   25 1
    26   21   22 2
    27   21   23 1
    28   23   24 1
    29   25   26 1
    30   25   27 2
    31   26   28 1
    32    1   29 1
    33    3   30 1
    34    4   31 1
    35    5   32 1
    36    9   33 1
    37   12   34 1
    38   13   35 1
    39   14   36 1
    40   15   37 1
    41   18   38 1
    42   19   39 1
    43   22   40 1
    44   24   41 1
    45   24   42 1
    46   24   43 1
    47   28   44 1
    48   28   45 1
    49   28   46 1
@<TRIPOS>PROPERTY_DATA
  Total_Score	| 7.2467
  Crash		| -1.1801
  Polar		| 2.0310
  FragIndex	| 1
  FragRMSD	| 0.689

