@<TRIPOS>MOLECULE
BindingDB_50292724
 32 33 0 0 0
SMALL
NO_CHARGES


@<TRIPOS>ATOM
1    C        -9.0370   54.5415    7.1002  C     
2    C        -9.9243   53.8307    6.3605  C     
3    N        -9.5543   52.6960    5.6787  N     
4    C        -8.2682   52.2684    5.8168  C     
5    N        -7.3961   52.9706    6.5467  N     
6    C        -7.7693   54.0523    7.2314  C     
7    O        -6.9490   54.6300    7.9446  O     
8    O        -7.8309   51.2543    5.2864  O     
9    C       -10.5533   51.9227    4.9316  C     
10   O       -11.7190   52.7410    4.6261  O     
11   C       -12.8587   51.8830    4.7659  C     
12   C       -12.5387   50.9676    5.9758  C     
13   C       -11.0539   50.6290    5.6827  C     
14   O       -10.2619   50.4467    6.8487  O     
15   O       -13.5920   49.9884    6.0331  O     
16   C       -14.1627   52.7089    4.8959  C     
17   O       -14.7425   53.0025    3.5904  O     
18   P       -13.2170   48.5342    6.5745  P     
19   O       -11.8109   48.1774    7.1536  O     
20   O       -14.2470   47.9673    7.5942  O     
21   O       -13.3798   47.7014    5.4007  O     
22   H        -9.3289   55.3460    7.6076  H     
23   H       -10.8487   54.1682    6.3147  H     
24   H        -6.4903   52.6464    6.6824  H     
25   H       -10.1457   51.5885    3.9363  H     
26   H       -12.9548   51.3073    3.8444  H     
27   H       -12.5776   51.5502    6.9015  H     
28   H       -10.9786   49.7533    5.0100  H     
29   H       -10.8030   49.8789    7.4462  H     
30   H       -14.9328   52.1906    5.5039  H     
31   H       -13.9507   53.6907    5.3998  H     
32   H       -13.9707   53.2570    3.0157  H     
@<TRIPOS>BOND
     1    1    2 2
     2    1    6 1
     3    2    3 1
     4    3    4 1
     5    9    3 1
     6    4    5 1
     7    4    8 2
     8    5    6 1
     9    6    7 2
    10    9   10 1
    11    9   13 1
    12   10   11 1
    13   11   12 1
    14   11   16 1
    15   12   13 1
    16   12   15 1
    17   13   14 1
    18   15   18 1
    19   16   17 1
    20   18   19 1
    21   18   20 1
    22   18   21 2
    23    1   22 1
    24    2   23 1
    25    5   24 1
    26    9   25 1
    27   11   26 1
    28   12   27 1
    29   13   28 1
    30   14   29 1
    31   16   30 1
    32   16   31 1
    33   17   32 1
@<TRIPOS>PROPERTY_DATA
  Total_Score	| 3.5985
  Crash		| -0.9689
  Polar		| 4.9627
  FragIndex	| 1
  FragRMSD	| 1.194

