@<TRIPOS>MOLECULE
BindingDB_50292719
 44 46 0 0 0
SMALL
NO_CHARGES


@<TRIPOS>ATOM
1    C        -8.9378   54.7194    7.1186  C     
2    C        -9.8669   54.0428    6.4161  C     
3    N        -9.5722   52.8639    5.7868  N     
4    C        -8.2988   52.4037    5.8586  C     
5    N        -7.3829   53.0779    6.5522  N     
6    C        -7.6786   54.2070    7.1831  C     
7    O        -6.8011   54.7814    7.8111  O     
8    O        -7.9159   51.3730    5.3170  O     
9    C       -10.6355   52.0706    5.1896  C     
10   O       -11.8446   52.7898    4.8813  O     
11   C       -12.9366   51.8501    4.8490  C     
12   C       -12.4593   50.5631    5.5770  C     
13   C       -11.1102   50.9831    6.1680  C     
14   O       -10.1888   49.9015    6.2851  O     
15   O       -12.2975   49.4907    4.6436  O     
16   C       -14.2128   52.4703    5.4855  C     
17   N       -14.8942   53.5803    4.7387  N     
18   C       -15.0943   53.3042    3.2778  C     
19   C       -15.7650   54.5012    2.5537  C     
20   C       -17.1071   54.8851    3.2189  C     
21   C       -16.9007   55.1436    4.7314  C     
22   C       -16.1914   53.9435    5.4092  C     
23   H        -9.1722   55.5706    7.5812  H     
24   H       -10.7905   54.4145    6.4028  H     
25   H        -6.4825   52.7283    6.6176  H     
26   H       -10.2860   51.6139    4.2557  H     
27   H       -13.1352   51.6025    3.8094  H     
28   H       -13.1420   50.2308    6.3664  H     
29   H       -11.2673   51.4222    7.1623  H     
30   H       -10.1982   49.6679    7.2368  H     
31   H       -12.4438   48.6645    5.1574  H     
32   H       -14.9291   51.6653    5.6560  H     
33   H       -13.9034   52.8494    6.4664  H     
34   H       -14.2907   54.4007    4.8031  H     
35   H       -14.1434   53.1388    2.7773  H     
36   H       -15.7074   52.4079    3.1353  H     
37   H       -15.0938   55.3671    2.5966  H     
38   H       -15.9375   54.2537    1.5026  H     
39   H       -17.5044   55.7887    2.7403  H     
40   H       -17.8332   54.0787    3.0747  H     
41   H       -16.2874   56.0438    4.8643  H     
42   H       -17.8702   55.3181    5.2047  H     
43   H       -16.8720   53.0855    5.4046  H     
44   H       -16.0115   54.2245    6.4508  H     
@<TRIPOS>BOND
     1    1    2 2
     2    1    6 1
     3    2    3 1
     4    3    4 1
     5    9    3 1
     6    4    5 1
     7    4    8 2
     8    5    6 1
     9    6    7 2
    10    9   10 1
    11    9   13 1
    12   10   11 1
    13   11   12 1
    14   11   16 1
    15   12   13 1
    16   12   15 1
    17   13   14 1
    18   16   17 1
    19   17   18 1
    20   17   22 1
    21   18   19 1
    22   19   20 1
    23   20   21 1
    24   21   22 1
    25    1   23 1
    26    2   24 1
    27    5   25 1
    28    9   26 1
    29   11   27 1
    30   12   28 1
    31   13   29 1
    32   14   30 1
    33   15   31 1
    34   16   32 1
    35   16   33 1
    36   17   34 1
    37   18   35 1
    38   18   36 1
    39   19   37 1
    40   19   38 1
    41   20   39 1
    42   20   40 1
    43   21   41 1
    44   21   42 1
    45   22   43 1
    46   22   44 1
@<TRIPOS>PROPERTY_DATA
  Total_Score	| 3.6613
  Crash		| -1.4642
  Polar		| 3.8620
  FragIndex	| 1
  FragRMSD	| 0.861

