@<TRIPOS>MOLECULE
BindingDB_50331792
 29 30 0 0 0
SMALL
NO_CHARGES


@<TRIPOS>ATOM
1    O       -12.2148   49.4797    4.6850  O     
2    C       -12.3714   50.5955    5.5641  C     
3    C       -11.0249   50.9316    6.2157  C     
4    C       -12.6946   51.8794    4.7471  C     
5    C       -10.4077   51.9455    5.2306  C     
6    O       -11.5208   52.7037    4.7429  O     
7    C       -13.8262   52.6650    5.2805  C     
8    O       -13.8527   53.0034    6.5987  O     
9    N        -9.3582   52.7218    5.8746  N     
10   C        -8.0966   52.2521    5.9677  C     
11   N        -7.1946   52.8814    6.7114  N     
12   C        -7.4780   54.0267    7.3295  C     
13   C        -8.7193   54.5890    7.2184  C     
14   C        -9.6464   53.9039    6.5029  C     
15   O        -7.7189   51.2290    5.4012  O     
16   O        -6.5782   54.5241    7.9942  O     
17   C        -9.0782   55.8633    7.8360  C     
18   O       -14.4963   53.4923    4.4284  O     
19   H       -12.3237   48.6829    5.2394  H     
20   H       -13.1347   50.3471    6.3096  H     
21   H       -11.1916   51.3901    7.1984  H     
22   H       -10.3935   50.0469    6.3422  H     
23   H       -12.9430   51.6062    3.7251  H     
24   H        -9.9957   51.4205    4.3597  H     
25   H        -6.3096   52.4978    6.8168  H     
26   H       -10.5628   54.2846    6.4442  H     
27   H        -9.8200   55.6924    8.6187  H     
28   H        -9.5037   56.5341    7.0851  H     
29   H        -8.2208   56.3728    8.2840  H     
@<TRIPOS>BOND
     1    2    1 1
     2    2    3 1
     3    2    4 1
     4    3    5 1
     5    4    6 1
     6    4    7 1
     7    5    6 1
     8    5    9 1
     9    7    8 1
    10    7   18 2
    11    9   10 1
    12    9   14 1
    13   10   11 1
    14   10   15 2
    15   11   12 1
    16   12   13 1
    17   12   16 2
    18   13   14 2
    19   13   17 1
    20    1   19 1
    21    2   20 1
    22    3   21 1
    23    3   22 1
    24    4   23 1
    25    5   24 1
    26   11   25 1
    27   14   26 1
    28   17   27 1
    29   17   28 1
    30   17   29 1
@<TRIPOS>PROPERTY_DATA
  Total_Score	| 2.4663
  Crash		| -0.7765
  Polar		| 2.8912
  FragIndex	| 1
  FragRMSD	| 0.720

