@<TRIPOS>MOLECULE
BindingDB_11447
 50 53 0 0 0
SMALL
NO_CHARGES


@<TRIPOS>ATOM
1    C         5.3537   27.6945    6.0674  C     
2    C         4.3460   28.6740    5.9712  C     
3    C         3.5326   28.9908    7.0801  C     
4    C         3.8335   28.3760    8.3209  C     
5    C         4.8448   27.4061    8.4248  C     
6    C         5.5918   27.0361    7.2904  C     
7    N         2.5106   29.8707    6.8810  N     
8    C         1.4449   30.1210    7.6594  C     
9    C         0.7063   29.1363    8.2310  C     
10   C        -0.3580   29.4357    9.0623  C     
11   C        -0.0732   31.6923    8.5493  C     
12   C         0.7191   33.4992    7.7853  C     
13   N        -0.7338   30.7033    9.2011  N     
14   N         1.0071   31.3933    7.7956  N     
15   N         1.4976   32.5019    7.3287  N     
16   N        -0.2677   33.0150    8.5537  N     
17   N         6.0883   24.2646    7.7826  N     
18   S         6.7664   25.7584    7.4188  S     
19   O         7.7591   25.6212    6.1835  O     
20   O         7.6836   26.1119    8.6684  O     
21   C        -0.7255   27.1585    9.8640  C     
22   C        -0.9886   26.4738   11.2336  C     
23   C         0.0224   26.9509   12.3231  C     
24   C        -0.2127   26.2487   13.6865  C     
25   C        -1.6802   26.4076   14.1616  C     
26   C        -2.6907   25.9459   13.0803  C     
27   C        -2.4556   26.6555   11.7212  C     
28   O        -0.9480   28.5831    9.9259  O     
29   H         5.8944   27.4528    5.2336  H     
30   H         4.1755   29.1194    5.0662  H     
31   H         3.3229   28.6320    9.1693  H     
32   H         5.0206   26.9649    9.3324  H     
33   H         2.5439   30.3684    6.0480  H     
34   H         0.9134   28.1916    8.0168  H     
35   H         0.8691   34.4878    7.5896  H     
36   H         6.2794   23.8381    8.6329  H     
37   H         5.5396   23.8094    7.1244  H     
38   H         0.3099   26.9387    9.5947  H     
39   H        -1.3778   26.7225    9.1022  H     
40   H        -0.8254   25.4008   11.0822  H     
41   H         1.0406   26.7329   11.9922  H     
42   H        -0.0581   28.0329   12.4607  H     
43   H         0.0264   25.1850   13.5929  H     
44   H         0.4604   26.6774   14.4354  H     
45   H        -1.8325   25.8211   15.0711  H     
46   H        -1.8674   27.4574   14.4046  H     
47   H        -2.6016   24.8656   12.9407  H     
48   H        -3.7040   26.1592   13.4269  H     
49   H        -2.6848   27.7187   11.8280  H     
50   H        -3.1446   26.2371   10.9821  H     
@<TRIPOS>BOND
     1    1    2 2
     2    1    6 1
     3    2    3 1
     4    3    4 2
     5    3    7 1
     6    4    5 1
     7    5    6 2
     8    6   18 1
     9    7    8 1
    10    8    9 2
    11    8   14 1
    12    9   10 1
    13   10   13 2
    14   10   28 1
    15   11   13 1
    16   11   14 1
    17   11   16 2
    18   12   15 2
    19   12   16 1
    20   14   15 1
    21   17   18 am
    22   18   19 2
    23   18   20 2
    24   21   22 1
    25   21   28 1
    26   22   23 1
    27   22   27 1
    28   23   24 1
    29   24   25 1
    30   25   26 1
    31   26   27 1
    32    1   29 1
    33    2   30 1
    34    4   31 1
    35    5   32 1
    36    7   33 1
    37    9   34 1
    38   12   35 1
    39   17   36 1
    40   17   37 1
    41   21   38 1
    42   21   39 1
    43   22   40 1
    44   23   41 1
    45   23   42 1
    46   24   43 1
    47   24   44 1
    48   25   45 1
    49   25   46 1
    50   26   47 1
    51   26   48 1
    52   27   49 1
    53   27   50 1
@<TRIPOS>PROPERTY_DATA
  Total_Score	| 11.3907
  Crash		| -0.8598
  Polar		| 4.5901
  FragIndex	| 1
  FragRMSD	| 0.739

