@<TRIPOS>MOLECULE
BindingDB_5544
 50 53 0 0 0
SMALL
NO_CHARGES


@<TRIPOS>ATOM
1    C        -0.0042   30.1212    9.2548  C     
2    C         1.7072   30.2866    7.5694  C     
3    N         1.3142   31.5570    7.2753  N     
4    N         1.0438   29.5992    8.5499  N     
5    C        -0.3872   31.4397    8.9413  C     
6    C         0.2841   32.1270    7.9398  C     
7    C        -1.2450   33.3986    8.8096  C     
8    N        -1.3152   32.2281    9.4742  N     
9    N        -0.2658   33.3497    7.8904  N     
10   O        -0.7269   29.4875   10.2183  O     
11   N         2.7874   29.8386    6.8897  N     
12   C        -0.1223   28.4144   10.9893  C     
13   C        -1.0906   28.0274   12.1507  C     
14   C        -1.7125   25.0506   12.1374  C     
15   C        -2.4015   26.0055   11.1192  C     
16   C        -2.4662   27.4784   11.6327  C     
17   C        -0.4661   27.0246   13.1813  C     
18   C        -0.3317   25.5892   12.5989  C     
19   C         3.5922   28.7570    7.0656  C     
20   C         4.5665   26.8706    8.3061  C     
21   C         5.5709   26.7314    7.3272  C     
22   C         5.5584   27.5787    6.1895  C     
23   C         4.5636   28.5521    6.0636  C     
24   C         3.5818   27.8634    8.1749  C     
25   N         6.2511   24.0383    7.9763  N     
26   S         6.8330   25.5546    7.5191  S     
27   O         7.7700   25.4273    6.2409  O     
28   O         7.7136   26.0609    8.7501  O     
29   H        -1.8216   34.2124    8.9947  H     
30   H        -0.0110   34.0629    7.2787  H     
31   H         3.0934   30.4385    6.1913  H     
32   H         0.0739   27.5650   10.3177  H     
33   H         0.8454   28.7346   11.3909  H     
34   H        -1.2916   28.9505   12.7031  H     
35   H        -2.3660   24.9166   13.0080  H     
36   H        -1.5707   24.0672   11.6751  H     
37   H        -1.8604   25.9674   10.1682  H     
38   H        -3.4186   25.6416   10.9265  H     
39   H        -3.2023   27.5370   12.4291  H     
40   H        -2.8275   28.1179   10.8238  H     
41   H         0.5155   27.3804   13.4967  H     
42   H        -1.1031   26.9902   14.0672  H     
43   H         0.0827   24.9324   13.3768  H     
44   H         0.3777   25.5739   11.7648  H     
45   H         4.5514   26.2475    9.1275  H     
46   H         6.2583   27.4651    5.4543  H     
47   H         4.5884   29.1535    5.2359  H     
48   H         2.9039   27.9646    8.9279  H     
49   H         6.7279   23.5085    8.6532  H     
50   H         5.4604   23.6719    7.5276  H     
@<TRIPOS>BOND
     1    1    4 1
     2    1    5 2
     3    1   10 1
     4    2    3 1
     5    2    4 2
     6    2   11 1
     7    3    6 2
     8    5    6 1
     9    5    8 1
    10    6    9 1
    11    7    8 2
    12    7    9 1
    13   10   12 1
    14   11   19 1
    15   12   13 1
    16   13   16 1
    17   13   17 1
    18   14   15 1
    19   14   18 1
    20   15   16 1
    21   17   18 1
    22   19   23 1
    23   19   24 2
    24   20   21 2
    25   20   24 1
    26   21   22 1
    27   21   26 1
    28   22   23 2
    29   25   26 am
    30   26   27 2
    31   26   28 2
    32    7   29 1
    33    9   30 1
    34   11   31 1
    35   12   32 1
    36   12   33 1
    37   13   34 1
    38   14   35 1
    39   14   36 1
    40   15   37 1
    41   15   38 1
    42   16   39 1
    43   16   40 1
    44   17   41 1
    45   17   42 1
    46   18   43 1
    47   18   44 1
    48   20   45 1
    49   22   46 1
    50   23   47 1
    51   24   48 1
    52   25   49 1
    53   25   50 1
@<TRIPOS>PROPERTY_DATA
  Total_Score	| 10.8752
  Crash		| -1.2309
  Polar		| 5.5904
  FragIndex	| 1
  FragRMSD	| 0.714

