@<TRIPOS>MOLECULE
BindingDB_5590
 49 51 0 0 0
SMALL
NO_CHARGES


@<TRIPOS>ATOM
1    C         0.1333   30.1489    9.1004  C     
2    C         1.8171   30.5916    7.4850  C     
3    C         0.1743   32.2462    7.8938  C     
4    C        -0.4278   31.4102    8.8594  C     
5    N         1.2301   29.7866    8.4108  N     
6    N         1.2793   31.8123    7.2475  N     
7    O        -0.4819   29.3312   10.0150  O     
8    N        -0.3340   33.4786    7.7356  N     
9    N         2.9094   30.2459    6.7723  N     
10   C         0.3382   28.4616   10.8648  C     
11   C        -0.5578   27.3814   11.5165  C     
12   C        -1.3289   26.5533   10.4319  C     
13   C        -2.2212   25.4222   11.0262  C     
14   C        -1.3966   24.4725   11.9271  C     
15   C        -0.6545   25.2569   13.0367  C     
16   C         0.2299   26.4047   12.4537  C     
17   C         3.7486   29.1805    7.0111  C     
18   C         4.8736   27.5575    8.4514  C     
19   C         5.5603   27.0254    7.3398  C     
20   C         5.3500   27.5831    6.0691  C     
21   C         4.4549   28.6690    5.9152  C     
22   C         3.9740   28.6178    8.2840  C     
23   N         5.8529   24.2733    8.0162  N     
24   S         6.6490   25.6760    7.5395  S     
25   O         7.5783   25.3893    6.2777  O     
26   O         7.5900   26.0688    8.7603  O     
27   H        -1.2540   31.7137    9.3527  H     
28   H         0.0790   34.1325    7.1445  H     
29   H        -1.1156   33.7302    8.2603  H     
30   H         3.1374   30.7604    6.0004  H     
31   H         1.1294   27.9789   10.2494  H     
32   H         0.8197   29.0731   11.6405  H     
33   H        -1.3146   27.8746   12.1528  H     
34   H        -1.9498   27.2243    9.8350  H     
35   H        -0.5888   26.0892    9.7588  H     
36   H        -3.0373   25.8707   11.6068  H     
37   H        -2.6654   24.8526   10.2030  H     
38   H        -2.0684   23.7473   12.3883  H     
39   H        -0.6714   23.9293   11.3190  H     
40   H        -1.3872   25.6811   13.7351  H     
41   H        -0.0133   24.5688   13.6025  H     
42   H         1.0626   25.9561   11.8888  H     
43   H         0.6504   26.9712   13.2914  H     
44   H         5.0275   27.1576    9.3993  H     
45   H         5.8178   27.1930    5.2417  H     
46   H         4.3227   29.0484    4.9737  H     
47   H         3.4942   28.9973    9.1029  H     
48   H         6.2096   23.7410    8.7660  H     
49   H         5.0198   24.0043    7.5763  H     
@<TRIPOS>BOND
     1    1    4 1
     2    1    5 2
     3    1    7 1
     4    2    5 1
     5    2    6 2
     6    2    9 1
     7    3    4 2
     8    3    6 1
     9    3    8 1
    10    7   10 1
    11    9   17 1
    12   10   11 1
    13   11   12 1
    14   11   16 1
    15   12   13 1
    16   13   14 1
    17   14   15 1
    18   15   16 1
    19   17   21 2
    20   17   22 1
    21   18   19 1
    22   18   22 2
    23   19   20 2
    24   19   24 1
    25   20   21 1
    26   23   24 am
    27   24   25 2
    28   24   26 2
    29    4   27 1
    30    8   28 1
    31    8   29 1
    32    9   30 1
    33   10   31 1
    34   10   32 1
    35   11   33 1
    36   12   34 1
    37   12   35 1
    38   13   36 1
    39   13   37 1
    40   14   38 1
    41   14   39 1
    42   15   40 1
    43   15   41 1
    44   16   42 1
    45   16   43 1
    46   18   44 1
    47   20   45 1
    48   21   46 1
    49   22   47 1
    50   23   48 1
    51   23   49 1
@<TRIPOS>PROPERTY_DATA
  Total_Score	| 10.5271
  Crash		| -0.9239
  Polar		| 4.5036
  FragIndex	| 1
  FragRMSD	| 0.483

