@<TRIPOS>MOLECULE
BindingDB_11435
 66 69 0 0 0
SMALL
NO_CHARGES


@<TRIPOS>ATOM
1    C         1.3865   29.4145    7.4079  C     
2    C         0.6885   28.3698    7.9342  C     
3    C        -0.3472   28.5903    8.8074  C     
4    C        -0.0562   30.8718    8.5394  C     
5    C        -0.2038   32.2344    8.6953  C     
6    C         0.7169   32.7954    7.8118  C     
7    N         2.4766   29.2594    6.6655  N     
8    C         3.5460   28.4585    6.9154  C     
9    C         4.4195   28.1585    5.8515  C     
10   C         3.8081   27.8992    8.1944  C     
11   C         4.8700   26.9940    8.3724  C     
12   C         5.6631   26.6121    7.2777  C     
13   C         5.4563   27.2242    6.0198  C     
14   S         6.8777   25.3836    7.5069  S     
15   O         7.8256   25.4055    6.2331  O     
16   O         7.7627   25.8438    8.7487  O     
17   N         6.2631   23.8118    7.7412  N     
18   C         5.0225   23.6627    8.4503  C     
19   C         7.2062   22.7239    7.7488  C     
20   N         0.9451   30.6618    7.6599  N     
21   N        -0.7148   29.8305    9.1155  N     
22   N         1.4071   31.8015    7.2253  N     
23   C        -1.3196   27.3859   10.6716  C     
24   C        -0.0924   27.6250   11.6024  C     
25   C        -1.8700   25.9408   10.8562  C     
26   C        -2.1740   25.5830   12.3360  C     
27   C        -0.9330   25.8369   13.2370  C     
28   C        -0.4172   27.2882   13.0831  C     
29   C        -1.0628   32.9066    9.6988  C     
30   C        -0.2028   33.8400   10.5744  C     
31   C        -2.2170   33.6688    9.0267  C     
32   N        -1.2633   25.5672   14.6456  N     
33   O        -1.0125   27.5199    9.2629  O     
34   H         0.9432   27.4324    7.7132  H     
35   H         0.8942   33.7912    7.6784  H     
36   H         2.5214   29.7775    5.8440  H     
37   H         4.2651   28.5602    4.9220  H     
38   H         3.2460   28.1517    9.0022  H     
39   H         5.0163   26.5908    9.2981  H     
40   H         6.0386   26.9729    5.2147  H     
41   H         5.1680   23.9113    9.5065  H     
42   H         4.6419   22.6423    8.3756  H     
43   H         4.2551   24.3141    8.0257  H     
44   H         7.8632   22.7713    6.8732  H     
45   H         6.7021   21.7518    7.7195  H     
46   H         7.8148   22.7726    8.6585  H     
47   H        -2.1153   28.0960   10.9291  H     
48   H         0.7430   27.0044   11.2707  H     
49   H         0.2198   28.6676   11.5386  H     
50   H        -2.7874   25.8208   10.2747  H     
51   H        -1.1386   25.2230   10.4725  H     
52   H        -3.0185   26.1862   12.6869  H     
53   H        -2.4626   24.5283   12.3974  H     
54   H        -0.1387   25.1357   12.9569  H     
55   H         0.4840   27.4123   13.6849  H     
56   H        -1.1708   27.9870   13.4536  H     
57   H        -1.5076   32.1548   10.3568  H     
58   H         0.5362   33.2508   11.1158  H     
59   H        -0.8345   34.3716   11.2883  H     
60   H         0.3252   34.5602    9.9522  H     
61   H        -1.8132   34.4827    8.4225  H     
62   H        -2.8750   34.0787    9.7983  H     
63   H        -2.7925   32.9950    8.3858  H     
64   H        -2.0290   26.1800   14.9444  H     
65   H        -0.4351   25.7479   15.2230  H     
66   H        -1.5469   24.5882   14.7564  H     
@<TRIPOS>BOND
     1    1    2 2
     2    1    7 1
     3    1   20 1
     4    2    3 1
     5    3   21 2
     6    3   33 1
     7    4    5 2
     8    4   20 1
     9    4   21 1
    10    5    6 1
    11    5   29 1
    12    6   22 2
    13    7    8 1
    14    8    9 1
    15    8   10 2
    16    9   13 2
    17   10   11 1
    18   11   12 2
    19   12   13 1
    20   12   14 1
    21   14   15 2
    22   14   16 2
    23   14   17 1
    24   17   18 1
    25   17   19 1
    26   20   22 1
    27   23   24 1
    28   23   25 1
    29   23   33 1
    30   24   28 1
    31   25   26 1
    32   26   27 1
    33   27   28 1
    34   27   32 1
    35   29   30 1
    36   29   31 1
    37    2   34 1
    38    6   35 1
    39    7   36 1
    40    9   37 1
    41   10   38 1
    42   11   39 1
    43   13   40 1
    44   18   41 1
    45   18   42 1
    46   18   43 1
    47   19   44 1
    48   19   45 1
    49   19   46 1
    50   23   47 1
    51   24   48 1
    52   24   49 1
    53   25   50 1
    54   25   51 1
    55   26   52 1
    56   26   53 1
    57   27   54 1
    58   28   55 1
    59   28   56 1
    60   29   57 1
    61   30   58 1
    62   30   59 1
    63   30   60 1
    64   31   61 1
    65   31   62 1
    66   31   63 1
    67   32   64 1
    68   32   65 1
    69   32   66 1
@<TRIPOS>PROPERTY_DATA
  Total_Score	| 2.1477
  Crash		| -11.5608
  Polar		| 3.4122
  FragIndex	| 1
  FragRMSD	| 1.019

