@<TRIPOS>MOLECULE
BindingDB_11437
 59 61 0 0 0
SMALL
NO_CHARGES


@<TRIPOS>ATOM
1    C         1.1873   28.6274    8.0219  C     
2    C         0.4658   28.4060    9.1436  C     
3    C        -0.1498   29.4643    9.7718  C     
4    C         0.5605   30.8932    8.0845  C     
5    C         0.7353   32.0288    7.3126  C     
6    C         1.5366   31.5957    6.2607  C     
7    N         1.7509   27.6097    7.3950  N     
8    C         3.0245   27.1716    7.5271  C     
9    C         4.0068   27.7703    8.3480  C     
10   C         3.3566   25.9996    6.8192  C     
11   C         4.6190   25.4139    6.9440  C     
12   C         5.5836   25.9886    7.7894  C     
13   C         5.2726   27.1715    8.4918  C     
14   S         7.1218   25.1912    7.9372  S     
15   O         7.8384   25.3191    6.5219  O     
16   O         8.0724   26.0083    8.9150  O     
17   N         7.0537   23.5561    8.3841  N     
18   C         7.1020   22.5412    7.3664  C     
19   C         6.6165   23.2459    9.7145  C     
20   N         1.2169   29.8708    7.4909  N     
21   N        -0.1285   30.6772    9.2314  N     
22   N         1.7959   30.2874    6.4033  N     
23   C        -0.2643   28.7782   12.0514  C     
24   C        -1.1052   27.6214   12.6926  C     
25   C        -2.0879   26.9385   11.6953  C     
26   C         0.2149   33.4078    7.5133  C     
27   C        -1.0100   33.4879    8.4662  C     
28   C         1.3662   34.3310    7.9873  C     
29   O        -0.9069   29.3085   10.8700  O     
30   C        -0.1954   26.5584   13.3738  C     
31   H         0.3943   27.4931    9.5231  H     
32   H         1.8685   32.1675    5.4814  H     
33   H         1.1458   27.0311    6.9076  H     
34   H         3.7952   28.6194    8.8769  H     
35   H         2.6779   25.5471    6.2104  H     
36   H         4.8234   24.5593    6.4210  H     
37   H         5.9499   27.5930    9.1289  H     
38   H         6.2082   22.5809    6.7427  H     
39   H         7.1699   21.5346    7.7861  H     
40   H         7.9771   22.6796    6.7312  H     
41   H         7.1680   23.8397   10.4466  H     
42   H         6.7833   22.1963    9.9647  H     
43   H         5.5513   23.4601    9.8198  H     
44   H        -0.1742   29.6027   12.7645  H     
45   H         0.7571   28.4395   11.8457  H     
46   H        -1.7234   28.0657   13.4797  H     
47   H        -2.8018   27.6667   11.3096  H     
48   H        -2.6596   26.1462   12.1922  H     
49   H        -1.5433   26.4986   10.8595  H     
50   H        -0.1214   33.7666    6.5338  H     
51   H        -1.7889   32.8025    8.1349  H     
52   H        -1.4359   34.4966    8.4667  H     
53   H        -0.7229   33.2430    9.4882  H     
54   H         1.6836   34.0578    8.9925  H     
55   H         1.0440   35.3693    7.9953  H     
56   H         2.2244   34.2581    7.3204  H     
57   H         0.4322   26.0599   12.6331  H     
58   H        -0.7964   25.8001   13.8814  H     
59   H         0.4495   27.0316   14.1161  H     
@<TRIPOS>BOND
     1    1    2 2
     2    1    7 1
     3    1   20 1
     4    2    3 1
     5    3   21 2
     6    3   29 1
     7    4    5 2
     8    4   20 1
     9    4   21 1
    10    5    6 1
    11    5   26 1
    12    6   22 2
    13    7    8 1
    14    8    9 1
    15    8   10 2
    16    9   13 2
    17   10   11 1
    18   11   12 2
    19   12   13 1
    20   12   14 1
    21   14   15 2
    22   14   16 2
    23   14   17 1
    24   17   18 1
    25   17   19 1
    26   20   22 1
    27   23   24 1
    28   23   29 1
    29   24   25 1
    30   24   30 1
    31   26   27 1
    32   26   28 1
    33    2   31 1
    34    6   32 1
    35    7   33 1
    36    9   34 1
    37   10   35 1
    38   11   36 1
    39   13   37 1
    40   18   38 1
    41   18   39 1
    42   18   40 1
    43   19   41 1
    44   19   42 1
    45   19   43 1
    46   23   44 1
    47   23   45 1
    48   24   46 1
    49   25   47 1
    50   25   48 1
    51   25   49 1
    52   26   50 1
    53   27   51 1
    54   27   52 1
    55   27   53 1
    56   28   54 1
    57   28   55 1
    58   28   56 1
    59   30   57 1
    60   30   58 1
    61   30   59 1
@<TRIPOS>PROPERTY_DATA
  Total_Score	| 1.7852
  Crash		| -10.1181
  Polar		| 2.9626
  FragIndex	| 1
  FragRMSD	| 1.416

