@<TRIPOS>MOLECULE
BindingDB_11449
 48 51 0 0 0
SMALL
NO_CHARGES


@<TRIPOS>ATOM
1    C         4.9600   27.4674    8.4563  C     
2    C         3.9484   28.4336    8.3501  C     
3    C         3.6332   29.0144    7.0975  C     
4    C         4.4115   28.6641    5.9730  C     
5    C         5.3944   27.6577    6.0674  C     
6    C         5.6560   27.0378    7.3084  C     
7    N         2.5901   29.8584    6.9035  N     
8    C         1.5040   30.0408    7.6816  C     
9    C         0.8855   29.0080    8.3222  C     
10   C        -0.2706   29.2151    9.0905  C     
11   C        -0.1677   31.4926    8.4823  C     
12   C         0.5218   33.3329    7.7035  C     
13   N        -0.7696   30.4846    9.1595  N     
14   N         0.9396   31.2522    7.7442  N     
15   N         1.3629   32.3829    7.2634  N     
16   N        -0.4435   32.7992    8.4577  N     
17   N         6.0554   24.2424    7.7699  N     
18   S         6.7860   25.7162    7.4167  S     
19   O         7.7420   25.5773    6.1494  O     
20   O         7.6959   26.0563    8.6725  O     
21   C        -0.9466   26.8639    9.8099  C     
22   C         0.9806   26.6299   11.4835  C     
23   C         0.0152   26.1405   12.6011  C     
24   C        -1.4499   26.6044   12.3737  C     
25   C        -1.9453   26.3516   10.9092  C     
26   C         0.4386   26.2094   10.1005  C     
27   N        -0.9935   28.3039    9.7801  N     
28   H         5.1591   27.0499    9.3686  H     
29   H         3.4183   28.6807    9.1868  H     
30   H         4.1975   29.0590    5.0523  H     
31   H         5.8792   27.3617    5.2198  H     
32   H         2.5953   30.3553    6.0714  H     
33   H         1.2591   28.1013    8.2197  H     
34   H         0.6294   34.3275    7.5074  H     
35   H         6.5210   23.6097    8.3348  H     
36   H         5.2995   23.9452    7.2429  H     
37   H        -1.2971   26.5075    8.8365  H     
38   H         1.0803   27.7189   11.5368  H     
39   H         1.9668   26.1894   11.6428  H     
40   H         0.0456   25.0446   12.6430  H     
41   H         0.3692   26.5155   13.5688  H     
42   H        -2.1048   26.0688   13.0615  H     
43   H        -1.5238   27.6639   12.5931  H     
44   H        -2.9171   26.8461   10.7911  H     
45   H        -2.1176   25.2801   10.7724  H     
46   H         0.3413   25.1228   10.0724  H     
47   H         1.1690   26.4470    9.3319  H     
48   H        -1.7251   28.6836   10.2844  H     
@<TRIPOS>BOND
     1    1    2 2
     2    1    6 1
     3    2    3 1
     4    3    4 2
     5    3    7 1
     6    4    5 1
     7    5    6 2
     8    6   18 1
     9    7    8 1
    10    8    9 2
    11    8   14 1
    12    9   10 1
    13   10   13 2
    14   10   27 1
    15   11   13 1
    16   11   14 1
    17   11   16 2
    18   12   15 2
    19   12   16 1
    20   14   15 1
    21   17   18 am
    22   18   19 2
    23   18   20 2
    24   21   25 1
    25   21   26 1
    26   21   27 1
    27   22   23 1
    28   22   26 1
    29   23   24 1
    30   24   25 1
    31    1   28 1
    32    2   29 1
    33    4   30 1
    34    5   31 1
    35    7   32 1
    36    9   33 1
    37   12   34 1
    38   17   35 1
    39   17   36 1
    40   21   37 1
    41   22   38 1
    42   22   39 1
    43   23   40 1
    44   23   41 1
    45   24   42 1
    46   24   43 1
    47   25   44 1
    48   25   45 1
    49   26   46 1
    50   26   47 1
    51   27   48 1
@<TRIPOS>PROPERTY_DATA
  Total_Score	| 10.3139
  Crash		| -0.9947
  Polar		| 4.3199
  FragIndex	| 1
  FragRMSD	| 0.196

