@<TRIPOS>MOLECULE
BindingDB_11453
 57 60 0 0 0
SMALL
NO_CHARGES


@<TRIPOS>ATOM
1    C         4.7192   27.1502    8.3452  C     
2    C         3.7500   28.1512    8.1678  C     
3    C         3.7228   28.9293    6.9772  C     
4    C         4.7250   28.7138    6.0081  C     
5    C         5.6705   27.6872    6.1711  C     
6    C         5.6685   26.8953    7.3360  C     
7    N         2.7655   29.8539    6.6771  N     
8    C         1.5599   29.9757    7.2461  C     
9    C         0.8401   28.8773    7.5687  C     
10   C        -0.1908   28.9822    8.4983  C     
11   C        -0.0276   31.3186    8.3607  C     
12   C         0.6616   33.2565    7.8486  C     
13   N        -0.6324   30.2193    8.8781  N     
14   N         1.0524   31.1880    7.5578  N     
15   N         1.4764   32.3738    7.2462  N     
16   N        -0.2824   32.6163    8.5566  N     
17   S         6.8103   25.5953    7.5241  S     
18   O         7.7936   25.4657    6.2808  O     
19   O         7.7081   26.0604    8.7513  O     
20   N        -0.6188   27.8371    9.0821  N     
21   C        -1.3752   27.7625   10.2912  C     
22   C        -0.5160   28.2212   11.5087  C     
23   C        -1.3170   28.1227   12.8279  C     
24   C        -1.9268   26.7114   13.0552  C     
25   C        -2.7167   26.2080   11.8139  C     
26   C        -1.8636   26.3042   10.5224  C     
27   N        -2.8062   26.7560   14.2321  N     
28   N         6.0710   24.1082    7.8595  N     
29   C         5.2567   23.5353    6.8258  C     
30   C         6.6641   23.2600    8.8544  C     
31   H         4.7086   26.5905    9.2017  H     
32   H         3.0476   28.2854    8.9090  H     
33   H         4.7325   29.2553    5.1380  H     
34   H         6.3432   27.5097    5.4235  H     
35   H         2.9873   30.4829    5.9740  H     
36   H         1.1610   27.9811    7.2644  H     
37   H         0.7633   34.2693    7.7935  H     
38   H        -0.2824   27.0023    8.7186  H     
39   H        -2.2514   28.4118   10.1965  H     
40   H         0.3833   27.6020   11.5846  H     
41   H        -0.1948   29.2577   11.3774  H     
42   H        -0.6602   28.3749   13.6635  H     
43   H        -2.1182   28.8648   12.7925  H     
44   H        -1.1207   26.0027   13.2660  H     
45   H        -3.0121   25.1671   11.9702  H     
46   H        -3.6281   26.8006   11.6886  H     
47   H        -2.4566   25.9713    9.6693  H     
48   H        -1.0048   25.6307   10.6051  H     
49   H        -3.2917   27.6579   14.2468  H     
50   H        -2.2480   26.6546   15.0840  H     
51   H        -3.4903   25.9976   14.1840  H     
52   H         4.6156   24.2901    6.3627  H     
53   H         4.6018   22.7579    7.2247  H     
54   H         5.8925   23.0937    6.0546  H     
55   H         7.6238   22.8808    8.4954  H     
56   H         6.0229   22.4084    9.0916  H     
57   H         6.8247   23.8093    9.7848  H     
@<TRIPOS>BOND
     1    1    2 2
     2    1    6 1
     3    2    3 1
     4    3    4 2
     5    3    7 1
     6    4    5 1
     7    5    6 2
     8    6   17 1
     9    7    8 1
    10    8    9 2
    11    8   14 1
    12    9   10 1
    13   10   13 2
    14   10   20 1
    15   11   13 1
    16   11   14 1
    17   11   16 2
    18   12   15 2
    19   12   16 1
    20   14   15 1
    21   17   18 2
    22   17   19 2
    23   17   28 1
    24   21   20 1
    25   21   22 1
    26   21   26 1
    27   22   23 1
    28   23   24 1
    29   24   25 1
    30   24   27 1
    31   25   26 1
    32   28   29 1
    33   28   30 1
    34    1   31 1
    35    2   32 1
    36    4   33 1
    37    5   34 1
    38    7   35 1
    39    9   36 1
    40   12   37 1
    41   20   38 1
    42   21   39 1
    43   22   40 1
    44   22   41 1
    45   23   42 1
    46   23   43 1
    47   24   44 1
    48   25   45 1
    49   25   46 1
    50   26   47 1
    51   26   48 1
    52   27   49 1
    53   27   50 1
    54   27   51 1
    55   29   52 1
    56   29   53 1
    57   29   54 1
    58   30   55 1
    59   30   56 1
    60   30   57 1
@<TRIPOS>PROPERTY_DATA
  Total_Score	| 10.8849
  Crash		| -2.2594
  Polar		| 5.8521
  FragIndex	| 1
  FragRMSD	| 0.460

