@<TRIPOS>MOLECULE
BindingDB_5545
 53 56 0 0 0
SMALL
NO_CHARGES


@<TRIPOS>ATOM
1    C         0.1589   30.0913    9.1909  C     
2    C         1.8911   30.4541    7.5235  C     
3    N         1.3919   31.6815    7.2279  N     
4    N         1.2589   29.6904    8.4767  N     
5    C        -0.3079   31.3750    8.8826  C     
6    C         0.3068   32.1394    7.8852  C     
7    C        -1.2998   33.2772    8.7690  C     
8    N        -1.2877   32.0977    9.4217  N     
9    N        -0.3316   33.3040    7.8170  N     
10   O        -0.5473   29.2946   10.0782  O     
11   N         3.0106   30.0723    6.8459  N     
12   C         0.1582   28.1152   10.5510  C     
13   C        -0.7348   27.2423   11.4776  C     
14   C        -3.0776   26.5853   13.2811  C     
15   C        -1.6744   26.8869   13.8609  C     
16   C        -0.8340   27.8023   12.9273  C     
17   C        -2.1750   27.0003   10.9128  C     
18   C        -2.9895   26.0480   11.8257  C     
19   C         3.8785   29.0547    7.0888  C     
20   C         5.0250   27.4235    8.4867  C     
21   C         5.7144   26.9264    7.3695  C     
22   C         5.5135   27.5196    6.1076  C     
23   C         4.5919   28.5719    5.9771  C     
24   C         4.0950   28.4727    8.3499  C     
25   S         6.8141   25.6019    7.5496  S     
26   O         7.7068   25.3602    6.2656  O     
27   O         7.7654   26.0130    8.7511  O     
28   N         5.9644   24.2140    7.9668  N     
29   C         6.4839   23.2318    8.8530  C     
30   H        -1.9254   34.0791    8.9732  H     
31   H        -0.1177   34.0215    7.1997  H     
32   H         3.2443   30.6367    6.0988  H     
33   H         0.4838   27.4830    9.7057  H     
34   H         1.0658   28.4295   11.1031  H     
35   H        -0.2380   26.2737   11.5487  H     
36   H        -3.5811   25.8495   13.9108  H     
37   H        -3.6790   27.4954   13.2899  H     
38   H        -1.7735   27.3644   14.8408  H     
39   H        -1.1472   25.9450   14.0140  H     
40   H         0.1786   27.8864   13.3424  H     
41   H        -1.2677   28.8084   12.9017  H     
42   H        -2.6972   27.9634   10.8265  H     
43   H        -2.1053   26.5631    9.9100  H     
44   H        -2.5337   25.0527   11.8325  H     
45   H        -3.9970   25.9379   11.4165  H     
46   H         5.1759   27.0101    9.4061  H     
47   H         5.9925   27.1650    5.2784  H     
48   H         4.4847   28.9967    5.0375  H     
49   H         3.6425   28.8555    9.1774  H     
50   H         5.1498   23.9992    7.4762  H     
51   H         7.3785   22.7749    8.4333  H     
52   H         5.7425   22.4498    9.0224  H     
53   H         6.7193   23.7068    9.8002  H     
@<TRIPOS>BOND
     1    1    4 1
     2    1    5 2
     3    1   10 1
     4    2    3 1
     5    2    4 2
     6    2   11 1
     7    3    6 2
     8    5    6 1
     9    5    8 1
    10    6    9 1
    11    7    8 2
    12    7    9 1
    13   10   12 1
    14   11   19 1
    15   12   13 1
    16   13   16 1
    17   13   17 1
    18   14   15 1
    19   14   18 1
    20   15   16 1
    21   17   18 1
    22   19   23 1
    23   19   24 2
    24   20   21 2
    25   20   24 1
    26   21   22 1
    27   21   25 1
    28   22   23 2
    29   25   26 2
    30   25   27 2
    31   25   28 1
    32   28   29 1
    33    7   30 1
    34    9   31 1
    35   11   32 1
    36   12   33 1
    37   12   34 1
    38   13   35 1
    39   14   36 1
    40   14   37 1
    41   15   38 1
    42   15   39 1
    43   16   40 1
    44   16   41 1
    45   17   42 1
    46   17   43 1
    47   18   44 1
    48   18   45 1
    49   20   46 1
    50   22   47 1
    51   23   48 1
    52   24   49 1
    53   28   50 1
    54   29   51 1
    55   29   52 1
    56   29   53 1
@<TRIPOS>PROPERTY_DATA
  Total_Score	| 11.6028
  Crash		| -1.3583
  Polar		| 4.9573
  FragIndex	| 1
  FragRMSD	| 0.667

