@<TRIPOS>MOLECULE
BindingDB_5595
 50 52 0 0 0
SMALL
NO_CHARGES


@<TRIPOS>ATOM
1    C         0.1156   30.2996    9.3354  C     
2    C         1.8226   30.5419    7.6856  C     
3    C         0.2793   32.3162    8.0128  C     
4    C        -0.3626   31.6003    9.0529  C     
5    N         1.1828   29.8230    8.6359  N     
6    N         1.3439   31.7711    7.3775  N     
7    O        -0.5569   29.5152   10.2385  O     
8    N        -0.1173   33.5323    7.6086  N     
9    N         2.9099   30.1188    7.0041  N     
10   C         0.2162   28.6480   11.0926  C     
11   C        -0.6996   27.5337   11.6692  C     
12   C        -1.3928   26.7272   10.5233  C     
13   C        -2.2760   25.5692   11.0602  C     
14   C        -1.4669   24.6255   11.9908  C     
15   C        -0.7858   25.4149   13.1422  C     
16   C         0.0950   26.5745   12.6062  C     
17   C         3.7125   29.0232    7.1802  C     
18   C         4.7476   27.2176    8.4883  C     
19   C         5.5809   26.8843    7.4012  C     
20   C         5.4830   27.6306    6.2088  C     
21   C         4.5599   28.6832    6.0988  C     
22   C         3.8285   28.2763    8.3814  C     
23   N         6.0622   24.1589    8.0777  N     
24   S         6.7375   25.5984    7.5496  S     
25   O         7.6466   25.3674    6.2636  O     
26   O         7.7246   26.0610    8.7090  O     
27   N        -1.3797   32.0740    9.8059  N     
28   O        -1.7619   33.2153    9.8998  O     
29   H         0.3408   34.0006    6.8915  H     
30   H        -0.9035   33.9431    8.0006  H     
31   H         3.2046   30.7108    6.2959  H     
32   H         1.0378   28.1702   10.5489  H     
33   H         0.6458   29.2451   11.9014  H     
34   H        -1.4810   28.0174   12.2665  H     
35   H        -2.0199   27.3975    9.9272  H     
36   H        -0.6392   26.2996    9.8549  H     
37   H        -3.1275   25.9871   11.6110  H     
38   H        -2.6662   24.9868   10.2176  H     
39   H        -2.1356   23.8697   12.4126  H     
40   H        -0.7059   24.1015   11.4013  H     
41   H        -1.5528   25.8186   13.8090  H     
42   H        -0.1604   24.7261   13.7188  H     
43   H         0.9436   26.1504   12.0620  H     
44   H         0.4870   27.1402   13.4563  H     
45   H         4.8230   26.6970    9.3671  H     
46   H         6.0834   27.4073    5.4099  H     
47   H         4.5205   29.2083    5.2195  H     
48   H         3.2742   28.5189    9.2007  H     
49   H         6.4325   23.7043    8.8548  H     
50   H         5.3305   23.7537    7.5835  H     
@<TRIPOS>BOND
     1    1    4 1
     2    1    5 2
     3    1    7 1
     4    2    5 1
     5    2    6 2
     6    2    9 1
     7    3    4 2
     8    3    6 1
     9    3    8 1
    10    4   27 1
    11    7   10 1
    12    9   17 1
    13   10   11 1
    14   11   12 1
    15   11   16 1
    16   12   13 1
    17   13   14 1
    18   14   15 1
    19   15   16 1
    20   17   21 2
    21   17   22 1
    22   18   19 1
    23   18   22 2
    24   19   20 2
    25   19   24 1
    26   20   21 1
    27   23   24 am
    28   24   25 2
    29   24   26 2
    30   27   28 2
    31    8   29 1
    32    8   30 1
    33    9   31 1
    34   10   32 1
    35   10   33 1
    36   11   34 1
    37   12   35 1
    38   12   36 1
    39   13   37 1
    40   13   38 1
    41   14   39 1
    42   14   40 1
    43   15   41 1
    44   15   42 1
    45   16   43 1
    46   16   44 1
    47   18   45 1
    48   20   46 1
    49   21   47 1
    50   22   48 1
    51   23   49 1
    52   23   50 1
@<TRIPOS>PROPERTY_DATA
  Total_Score	| 10.2349
  Crash		| -1.2404
  Polar		| 4.8981
  FragIndex	| 1
  FragRMSD	| 0.481

