@<TRIPOS>MOLECULE
BindingDB_11448
 47 50 0 0 0
SMALL
NO_CHARGES


@<TRIPOS>ATOM
1    C         4.7437   27.1766    8.4417  C     
2    C         3.7098   28.1259    8.3679  C     
3    C         3.4619   28.8280    7.1603  C     
4    C         4.3111   28.5860    6.0543  C     
5    C         5.3311   27.6205    6.1236  C     
6    C         5.5487   26.8973    7.3154  C     
7    N         2.4922   29.7644    6.9894  N     
8    C         1.4208   30.0510    7.7465  C     
9    C         0.6329   29.0985    8.3183  C     
10   C        -0.4462   29.4628    9.1028  C     
11   C        -0.0604   31.6922    8.5826  C     
12   C         0.7854   33.4607    7.7965  C     
13   N        -0.7921   30.7411    9.2122  N     
14   N         1.0220   31.3436    7.8535  N     
15   N         1.5355   32.4304    7.3651  N     
16   N        -0.2179   33.0208    8.5692  N     
17   N         6.2131   24.1736    7.8472  N     
18   S         6.7945   25.6899    7.4266  S     
19   O         7.7725   25.5952    6.1756  O     
20   O         7.6922   26.1296    8.6654  O     
21   O        -1.2856   28.5734    9.6570  O     
22   C        -0.7274   27.5705   10.5428  C     
23   C        -1.4158   25.3673   11.7301  C     
24   C        -0.9734   25.9520   13.0975  C     
25   C         0.1481   27.0045   12.9107  C     
26   C        -0.2804   28.1374   11.9247  C     
27   C        -1.8196   26.4800   10.7211  C     
28   H         4.9130   26.6944    9.3276  H     
29   H         3.1678   28.3306    9.2116  H     
30   H         4.1674   29.0996    5.1747  H     
31   H         5.9018   27.4437    5.2926  H     
32   H         2.6196   30.3450    6.2152  H     
33   H         0.8208   28.1374    8.1642  H     
34   H         0.9755   34.4428    7.5892  H     
35   H         6.5449   23.7180    8.6421  H     
36   H         5.5739   23.7199    7.2728  H     
37   H         0.1372   27.1075   10.0600  H     
38   H        -0.5921   24.7768   11.3049  H     
39   H        -2.2653   24.6955   11.8842  H     
40   H        -1.8355   26.4212   13.5902  H     
41   H        -0.6131   25.1383   13.7447  H     
42   H         0.3878   27.4451   13.8862  H     
43   H         1.0520   26.5052   12.5355  H     
44   H         0.5674   28.8173   11.7829  H     
45   H        -1.1028   28.7080   12.3768  H     
46   H        -2.7513   26.9460   11.0647  H     
47   H        -2.0185   26.0147    9.7505  H     
@<TRIPOS>BOND
     1    1    2 2
     2    1    6 1
     3    2    3 1
     4    3    4 2
     5    3    7 1
     6    4    5 1
     7    5    6 2
     8    6   18 1
     9    7    8 1
    10    8    9 2
    11    8   14 1
    12    9   10 1
    13   10   13 2
    14   10   21 1
    15   11   13 1
    16   11   14 1
    17   11   16 2
    18   12   15 2
    19   12   16 1
    20   14   15 1
    21   17   18 am
    22   18   19 2
    23   18   20 2
    24   21   22 1
    25   22   26 1
    26   22   27 1
    27   23   24 1
    28   23   27 1
    29   24   25 1
    30   25   26 1
    31    1   28 1
    32    2   29 1
    33    4   30 1
    34    5   31 1
    35    7   32 1
    36    9   33 1
    37   12   34 1
    38   17   35 1
    39   17   36 1
    40   22   37 1
    41   23   38 1
    42   23   39 1
    43   24   40 1
    44   24   41 1
    45   25   42 1
    46   25   43 1
    47   26   44 1
    48   26   45 1
    49   27   46 1
    50   27   47 1
@<TRIPOS>PROPERTY_DATA
  Total_Score	| 10.2781
  Crash		| -0.8093
  Polar		| 4.4797
  FragIndex	| 1
  FragRMSD	| 0.694

