@<TRIPOS>MOLECULE
BindingDB_11454
 52 55 0 0 0
SMALL
NO_CHARGES


@<TRIPOS>ATOM
1    C         5.4114   27.6680    6.1502  C     
2    C         4.3846   28.6227    6.0435  C     
3    C         3.5212   28.8891    7.1208  C     
4    C         3.7599   28.2291    8.3567  C     
5    C         4.7984   27.2813    8.4738  C     
6    C         5.6132   26.9742    7.3612  C     
7    N         2.4976   29.7608    6.9327  N     
8    C         1.4406   30.0044    7.7105  C     
9    C         0.7992   29.0354    8.4060  C     
10   C        -0.2936   29.3669    9.2479  C     
11   C        -0.1234   31.5939    8.5175  C     
12   C         0.5875   33.3615    7.5919  C     
13   N        -0.7423   30.6545    9.2716  N     
14   N         0.9413   31.2667    7.7563  N     
15   N         1.3873   32.3526    7.1996  N     
16   N        -0.3683   32.9061    8.4132  N     
17   S         6.8352   25.7339    7.5016  S     
18   O         7.7565   25.6058    6.2101  O     
19   O         7.7678   26.1106    8.7350  O     
20   N        -0.9449   28.5072   10.0694  N     
21   C        -0.7092   27.1068   10.2748  C     
22   C        -1.8213   26.5408   11.2082  C     
23   C        -1.6387   25.0213   11.4586  C     
24   C        -0.2246   24.6756   11.9999  C     
25   C         0.8932   25.2878   11.1134  C     
26   C         0.6855   26.8116   10.9014  C     
27   N        -0.0554   23.2154   12.0808  N     
28   C         6.1013   24.1203    7.8459  C     
29   H         5.9908   27.4625    5.3355  H     
30   H         4.2403   29.0948    5.1482  H     
31   H         3.1712   28.4354    9.1725  H     
32   H         4.9463   26.8022    9.3711  H     
33   H         2.5545   30.2923    6.1171  H     
34   H         1.0915   28.0951    8.3215  H     
35   H         0.7098   34.3330    7.3259  H     
36   H        -1.6910   28.8789   10.5632  H     
37   H        -0.7943   26.5964    9.3074  H     
38   H        -1.8051   27.0685   12.1664  H     
39   H        -2.8019   26.7054   10.7569  H     
40   H        -2.3969   24.6778   12.1732  H     
41   H        -1.8077   24.4919   10.5201  H     
42   H        -0.1281   25.0777   13.0165  H     
43   H         1.8710   25.1198   11.5777  H     
44   H         0.8988   24.7932   10.1364  H     
45   H         1.4870   27.1688   10.2492  H     
46   H         0.7818   27.3315   11.8567  H     
47   H        -0.8871   22.8010   12.5106  H     
48   H         0.7611   22.9945   12.6547  H     
49   H         0.0706   22.8313   11.1441  H     
50   H         5.5094   24.1702    8.7614  H     
51   H         6.9020   23.3920    7.9702  H     
52   H         5.4620   23.8179    7.0147  H     
@<TRIPOS>BOND
     1    1    2 2
     2    1    6 1
     3    2    3 1
     4    3    4 2
     5    3    7 1
     6    4    5 1
     7    5    6 2
     8    6   17 1
     9    7    8 1
    10    8    9 2
    11    8   14 1
    12    9   10 1
    13   10   13 2
    14   10   20 1
    15   11   13 1
    16   11   14 1
    17   11   16 2
    18   12   15 2
    19   12   16 1
    20   14   15 1
    21   17   18 2
    22   17   19 2
    23   17   28 1
    24   21   20 1
    25   21   22 1
    26   21   26 1
    27   22   23 1
    28   23   24 1
    29   24   25 1
    30   24   27 1
    31   25   26 1
    32    1   29 1
    33    2   30 1
    34    4   31 1
    35    5   32 1
    36    7   33 1
    37    9   34 1
    38   12   35 1
    39   20   36 1
    40   21   37 1
    41   22   38 1
    42   22   39 1
    43   23   40 1
    44   23   41 1
    45   24   42 1
    46   25   43 1
    47   25   44 1
    48   26   45 1
    49   26   46 1
    50   27   47 1
    51   27   48 1
    52   27   49 1
    53   28   50 1
    54   28   51 1
    55   28   52 1
@<TRIPOS>PROPERTY_DATA
  Total_Score	| 10.3960
  Crash		| -1.4447
  Polar		| 5.4612
  FragIndex	| 1
  FragRMSD	| 0.260

