@<TRIPOS>MOLECULE
BindingDB_11452
 51 54 0 0 0
SMALL
NO_CHARGES


@<TRIPOS>ATOM
1    C         5.4252   27.7481    6.1059  C     
2    C         4.3952   28.7097    6.0090  C     
3    C         3.5262   28.9569    7.0949  C     
4    C         3.7836   28.2869    8.3160  C     
5    C         4.8237   27.3444    8.4253  C     
6    C         5.6203   27.0312    7.3057  C     
7    N         2.5034   29.8338    6.9055  N     
8    C         1.4340   30.0635    7.6771  C     
9    C         0.7626   29.0652    8.3102  C     
10   C        -0.3039   29.3787    9.1700  C     
11   C        -0.0981   31.6358    8.5499  C     
12   C         0.6640   33.4303    7.7348  C     
13   N        -0.7248   30.6747    9.2656  N     
14   N         0.9580   31.3287    7.7656  N     
15   N         1.4347   32.4302    7.2665  N     
16   N        -0.3011   32.9575    8.5351  N     
17   N         6.0962   24.2896    7.8345  N     
18   S         6.7976   25.7543    7.4143  S     
19   O         7.7077   25.5852    6.1228  O     
20   O         7.7483   26.1381    8.6319  O     
21   N        -0.9421   28.5088    9.9952  N     
22   C        -0.7156   27.1051   10.1944  C     
23   C        -1.8312   26.5760   11.1450  C     
24   C        -1.6820   25.0569   11.4388  C     
25   C        -0.2682   24.7079   12.0065  C     
26   C         0.8708   25.2808   11.1139  C     
27   C         0.6825   26.8006   10.8301  C     
28   N        -0.1140   23.2493   12.1499  N     
29   H         5.9921   27.5500    5.2755  H     
30   H         4.2541   29.2019    5.1164  H     
31   H         3.2189   28.4831    9.1440  H     
32   H         4.9770   26.8698    9.3165  H     
33   H         2.5675   30.3736    6.1010  H     
34   H         1.0295   28.1045    8.1779  H     
35   H         0.8154   34.4147    7.5417  H     
36   H         6.5414   23.7134    8.4778  H     
37   H         5.3143   23.9728    7.3514  H     
38   H        -1.6632   28.8941   10.5182  H     
39   H        -0.8108   26.5962    9.2234  H     
40   H        -1.7911   27.1175   12.0974  H     
41   H        -2.8136   26.7521   10.6956  H     
42   H        -2.4507   24.7581   12.1641  H     
43   H        -1.8569   24.5059   10.5103  H     
44   H        -0.1913   25.1498   13.0097  H     
45   H         1.8273   25.1338   11.6330  H     
46   H         0.9037   24.7306   10.1629  H     
47   H         1.4788   27.1194   10.1560  H     
48   H         0.7846   27.3496   11.7759  H     
49   H        -0.9292   22.8629   12.6363  H     
50   H         0.7282   23.0518   12.7024  H     
51   H        -0.0235   22.8207   11.2227  H     
@<TRIPOS>BOND
     1    1    2 2
     2    1    6 1
     3    2    3 1
     4    3    4 2
     5    3    7 1
     6    4    5 1
     7    5    6 2
     8    6   18 1
     9    7    8 1
    10    8    9 2
    11    8   14 1
    12    9   10 1
    13   10   13 2
    14   10   21 1
    15   11   13 1
    16   11   14 1
    17   11   16 2
    18   12   15 2
    19   12   16 1
    20   14   15 1
    21   17   18 am
    22   18   19 2
    23   18   20 2
    24   22   21 1
    25   22   23 1
    26   22   27 1
    27   23   24 1
    28   24   25 1
    29   25   26 1
    30   25   28 1
    31   26   27 1
    32    1   29 1
    33    2   30 1
    34    4   31 1
    35    5   32 1
    36    7   33 1
    37    9   34 1
    38   12   35 1
    39   17   36 1
    40   17   37 1
    41   21   38 1
    42   22   39 1
    43   23   40 1
    44   23   41 1
    45   24   42 1
    46   24   43 1
    47   25   44 1
    48   26   45 1
    49   26   46 1
    50   27   47 1
    51   27   48 1
    52   28   49 1
    53   28   50 1
    54   28   51 1
@<TRIPOS>PROPERTY_DATA
  Total_Score	| 10.3248
  Crash		| -1.3060
  Polar		| 5.5319
  FragIndex	| 1
  FragRMSD	| 0.272

