@<TRIPOS>MOLECULE
BindingDB_50288855
 33 33 0 0 0
SMALL
NO_CHARGES


@<TRIPOS>ATOM
1    C       -16.7006   59.0518  106.5174  C     
2    C       -18.1222   58.6516  106.0252  C     
3    C       -16.5231   60.5914  106.5559  C     
4    N       -18.3183   60.8635  104.8025  N     
5    C       -16.9198   61.2303  105.1974  C     
6    C       -18.5058   59.3791  104.7056  C     
7    O       -18.1405   57.2387  105.8237  O     
8    O       -17.3248   61.1906  107.5749  O     
9    O       -15.7153   58.4461  105.6738  O     
10   C       -18.8087   61.6262  103.6041  C     
11   C       -17.9378   61.5611  102.3096  C     
12   C       -16.7511   62.5717  102.2336  C     
13   C       -15.4149   61.9284  101.7799  C     
14   H       -16.5487   58.6517  107.5254  H     
15   H       -18.8547   58.8993  106.7981  H     
16   H       -15.4774   60.8286  106.7805  H     
17   H       -18.9175   61.1562  105.5833  H     
18   H       -16.8327   62.3167  105.3033  H     
19   H       -16.2073   60.9066  104.4312  H     
20   H       -17.9075   58.9585  103.8894  H     
21   H       -19.5579   59.1584  104.4977  H     
22   H       -19.0544   56.9966  105.5661  H     
23   H       -17.1805   60.6435  108.3738  H     
24   H       -15.0263   59.1276  105.5325  H     
25   H       -19.8008   61.2508  103.3501  H     
26   H       -18.9398   62.6711  103.8857  H     
27   H       -17.5612   60.5419  102.1936  H     
28   H       -18.5850   61.7455  101.4476  H     
29   H       -17.0015   63.3759  101.5291  H     
30   H       -16.5825   63.0339  103.2145  H     
31   H       -15.1134   61.1549  102.4974  H     
32   H       -14.6301   62.6895  101.7322  H     
33   H       -15.5249   61.4806  100.7856  H     
@<TRIPOS>BOND
     1    1    2 1
     2    1    3 1
     3    1    9 1
     4    2    6 1
     5    2    7 1
     6    3    5 1
     7    3    8 1
     8    4    5 1
     9    4    6 1
    10    4   10 1
    11   10   11 1
    12   11   12 1
    13   12   13 1
    14    1   14 1
    15    2   15 1
    16    3   16 1
    17    4   17 1
    18    5   18 1
    19    5   19 1
    20    6   20 1
    21    6   21 1
    22    7   22 1
    23    8   23 1
    24    9   24 1
    25   10   25 1
    26   10   26 1
    27   11   27 1
    28   11   28 1
    29   12   29 1
    30   12   30 1
    31   13   31 1
    32   13   32 1
    33   13   33 1
@<TRIPOS>PROPERTY_DATA
  Total_Score	| 5.4657
  Crash		| -0.8722
  Polar		| 5.9158
  FragIndex	| 1
  FragRMSD	| 0.948

