@<TRIPOS>MOLECULE
BindingDB_50288852
 24 24 0 0 0
SMALL
NO_CHARGES


@<TRIPOS>ATOM
1    C       -16.6708   59.1801  106.2360  C     
2    N       -18.7314   60.8784  105.0629  N     
3    C       -18.1410   58.7057  106.1141  C     
4    C       -16.5286   60.7341  106.2557  C     
5    O       -15.9234   58.6276  105.1554  O     
6    C       -18.8632   59.4017  104.9268  C     
7    C       -17.3353   61.3498  105.0805  C     
8    O       -18.1258   57.2975  105.9268  O     
9    O       -17.0385   61.2202  107.5082  O     
10   C       -16.4468   62.4320  108.0250  C     
11   H       -16.2420   58.7780  107.1576  H     
12   H       -19.2325   61.3338  104.3005  H     
13   H       -19.1895   61.1252  105.9502  H     
14   H       -18.6742   58.9605  107.0455  H     
15   H       -15.4636   60.9641  106.1530  H     
16   H       -15.0135   58.9760  105.2235  H     
17   H       -19.9302   59.1637  104.9508  H     
18   H       -18.4665   59.0808  103.9639  H     
19   H       -16.8410   61.1191  104.1283  H     
20   H       -17.3355   62.4438  105.1731  H     
21   H       -19.0442   57.0184  105.7184  H     
22   H       -15.3863   62.2643  108.2470  H     
23   H       -16.9638   62.6901  108.9442  H     
24   H       -16.5386   63.2685  107.3354  H     
@<TRIPOS>BOND
     1    1    3 1
     2    1    4 1
     3    1    5 1
     4    2    6 1
     5    2    7 1
     6    3    6 1
     7    3    8 1
     8    4    7 1
     9    4    9 1
    10    9   10 1
    11    1   11 1
    12    2   12 1
    13    2   13 1
    14    3   14 1
    15    4   15 1
    16    5   16 1
    17    6   17 1
    18    6   18 1
    19    7   19 1
    20    7   20 1
    21    8   21 1
    22   10   22 1
    23   10   23 1
    24   10   24 1
@<TRIPOS>PROPERTY_DATA
  Total_Score	| 4.0269
  Crash		| -0.7183
  Polar		| 5.0316
  FragIndex	| 1
  FragRMSD	| 0.975

