@<TRIPOS>MOLECULE
BindingDB_50320827
 37 37 0 0 0
SMALL
NO_CHARGES


@<TRIPOS>ATOM
1    C       -16.6434   60.1613  106.5106  C     
2    C       -17.4214   61.2814  105.7275  C     
3    N       -18.6855   60.6683  105.2183  N     
4    C       -18.5147   59.5025  104.3003  C     
5    C       -17.5659   58.3997  104.8778  C     
6    C       -16.2846   59.0385  105.4809  C     
7    O       -18.1767   57.5591  105.8587  O     
8    O       -15.4349   58.0331  106.0350  O     
9    C       -15.4024   60.6186  107.3257  C     
10   C       -19.9028   58.9414  103.8976  C     
11   C       -17.7401   62.5789  106.5407  C     
12   O       -20.5278   59.7924  102.9413  O     
13   C       -16.8344   63.8018  106.1812  C     
14   C       -16.7183   64.8042  107.2279  C     
15   C       -15.9369   64.6466  108.3048  C     
16   H       -17.3322   59.7380  107.2516  H     
17   H       -16.8364   61.5888  104.8539  H     
18   H       -19.2549   60.3867  106.0226  H     
19   H       -19.2029   61.3873  104.7063  H     
20   H       -18.0464   59.8793  103.3835  H     
21   H       -17.2631   57.7413  104.0560  H     
22   H       -15.7220   59.4825  104.6519  H     
23   H       -18.9396   57.1286  105.4198  H     
24   H       -14.5442   58.3071  105.7204  H     
25   H       -15.0478   59.8033  107.9573  H     
26   H       -15.6546   61.4365  107.9948  H     
27   H       -14.5967   60.9357  106.6693  H     
28   H       -19.7968   57.9489  103.4515  H     
29   H       -20.5488   58.8661  104.7769  H     
30   H       -18.7677   62.8875  106.3358  H     
31   H       -17.6926   62.3457  107.6085  H     
32   H       -21.4627   59.4975  102.9150  H     
33   H       -15.8288   63.4822  105.9142  H     
34   H       -17.2509   64.2751  105.2876  H     
35   H       -17.2020   65.6656  107.1191  H     
36   H       -15.8636   65.3653  108.9825  H     
37   H       -15.4436   63.8010  108.4630  H     
@<TRIPOS>BOND
     1    1    2 1
     2    1    6 1
     3    1    9 1
     4    2    3 1
     5    2   11 1
     6    3    4 1
     7    4    5 1
     8    4   10 1
     9    5    6 1
    10    5    7 1
    11    6    8 1
    12   10   12 1
    13   11   13 1
    14   13   14 1
    15   14   15 2
    16    1   16 1
    17    2   17 1
    18    3   18 1
    19    3   19 1
    20    4   20 1
    21    5   21 1
    22    6   22 1
    23    7   23 1
    24    8   24 1
    25    9   25 1
    26    9   26 1
    27    9   27 1
    28   10   28 1
    29   10   29 1
    30   11   30 1
    31   11   31 1
    32   12   32 1
    33   13   33 1
    34   13   34 1
    35   14   35 1
    36   15   36 1
    37   15   37 1
@<TRIPOS>PROPERTY_DATA
  Total_Score	| 8.5051
  Crash		| -2.0976
  Polar		| 6.2303
  FragIndex	| 1
  FragRMSD	| 0.651

