@<TRIPOS>MOLECULE
BindingDB_50320826
 39 39 0 0 0
SMALL
NO_CHARGES


@<TRIPOS>ATOM
1    C       -16.6279   60.0744  106.6101  C     
2    C       -17.4325   61.1859  105.8509  C     
3    N       -18.6532   60.5767  105.2456  N     
4    C       -18.4663   59.4005  104.3550  C     
5    C       -17.5806   58.2917  105.0003  C     
6    C       -16.2980   58.9041  105.6241  C     
7    O       -18.2705   57.5325  105.9948  O     
8    O       -15.5561   57.8753  106.2875  O     
9    C       -15.3291   60.5983  107.2954  C     
10   C       -19.8659   58.8676  103.9335  C     
11   C       -17.8831   62.3950  106.7514  C     
12   O       -20.4958   59.7586  103.0109  O     
13   C       -17.0766   63.7331  106.6427  C     
14   C       -16.0145   63.9702  107.7499  C     
15   C       -15.6587   65.4621  107.9569  C     
16   H       -17.2721   59.6727  107.4068  H     
17   H       -16.8140   61.5676  105.0292  H     
18   H       -19.2844   60.3191  106.0111  H     
19   H       -19.1174   61.3052  104.6897  H     
20   H       -17.9604   59.7483  103.4493  H     
21   H       -17.2779   57.5936  104.2165  H     
22   H       -15.6685   59.2920  104.8163  H     
23   H       -19.0334   57.1205  105.5403  H     
24   H       -15.4349   57.1676  105.6134  H     
25   H       -14.6651   61.0564  106.5564  H     
26   H       -14.7989   59.7783  107.7934  H     
27   H       -15.5728   61.3289  108.0688  H     
28   H       -19.7679   57.8871  103.4546  H     
29   H       -20.5125   58.7666  104.8164  H     
30   H       -18.9117   62.6560  106.4767  H     
31   H       -17.9469   62.0780  107.7965  H     
32   H       -21.4549   59.5543  103.0922  H     
33   H       -16.5981   63.8071  105.6669  H     
34   H       -17.7964   64.5599  106.7009  H     
35   H       -16.3829   63.5807  108.7040  H     
36   H       -15.1000   63.4368  107.4912  H     
37   H       -15.2747   65.8942  107.0291  H     
38   H       -14.8934   65.5575  108.7372  H     
39   H       -16.5442   66.0288  108.2773  H     
@<TRIPOS>BOND
     1    1    2 1
     2    1    6 1
     3    1    9 1
     4    2    3 1
     5    2   11 1
     6    3    4 1
     7    4    5 1
     8    4   10 1
     9    5    6 1
    10    5    7 1
    11    6    8 1
    12   10   12 1
    13   11   13 1
    14   13   14 1
    15   14   15 1
    16    1   16 1
    17    2   17 1
    18    3   18 1
    19    3   19 1
    20    4   20 1
    21    5   21 1
    22    6   22 1
    23    7   23 1
    24    8   24 1
    25    9   25 1
    26    9   26 1
    27    9   27 1
    28   10   28 1
    29   10   29 1
    30   11   30 1
    31   11   31 1
    32   12   32 1
    33   13   33 1
    34   13   34 1
    35   14   35 1
    36   14   36 1
    37   15   37 1
    38   15   38 1
    39   15   39 1
@<TRIPOS>PROPERTY_DATA
  Total_Score	| 7.7366
  Crash		| -2.5305
  Polar		| 5.0715
  FragIndex	| 1
  FragRMSD	| 0.642

