@<TRIPOS>MOLECULE
BindingDB_50163439
 25 25 0 0 0
SMALL
NO_CHARGES


@<TRIPOS>ATOM
1    C       -18.2223   58.7633  106.3991  C     
2    C       -16.7263   59.1791  106.4707  C     
3    N       -18.7491   60.9016  105.2392  N     
4    C       -19.0104   59.4413  105.2243  C     
5    C       -16.5543   60.7298  106.4097  C     
6    C       -17.3289   61.3204  105.2217  C     
7    O       -18.2674   57.3269  106.4356  O     
8    O       -16.0201   58.5450  105.4110  O     
9    O       -17.0115   61.3521  107.6012  O     
10   C       -18.8926   58.8822  103.7664  C     
11   O       -20.0128   58.0888  103.4044  O     
12   H       -18.6962   59.1091  107.3185  H     
13   H       -16.3055   58.8132  107.4080  H     
14   H       -19.2333   61.3164  104.4537  H     
15   H       -19.1706   61.2356  106.0933  H     
16   H       -20.0728   59.3041  105.4709  H     
17   H       -15.4902   60.9513  106.3124  H     
18   H       -16.8575   61.0380  104.2818  H     
19   H       -17.3068   62.4076  105.2851  H     
20   H       -18.9989   57.0300  105.8376  H     
21   H       -15.1687   59.0304  105.3297  H     
22   H       -16.9200   60.7035  108.3176  H     
23   H       -18.8509   59.7089  103.0534  H     
24   H       -17.9624   58.3082  103.6382  H     
25   H       -19.9092   57.2594  103.9796  H     
@<TRIPOS>BOND
     1    1    2 1
     2    1    4 1
     3    1    7 1
     4    2    5 1
     5    2    8 1
     6    3    4 1
     7    3    6 1
     8    4   10 1
     9    5    6 1
    10    5    9 1
    11   10   11 1
    12    1   12 1
    13    2   13 1
    14    3   14 1
    15    3   15 1
    16    4   16 1
    17    5   17 1
    18    6   18 1
    19    6   19 1
    20    7   20 1
    21    8   21 1
    22    9   22 1
    23   10   23 1
    24   10   24 1
    25   11   25 1
@<TRIPOS>PROPERTY_DATA
  Total_Score	| 7.5818
  Crash		| -1.3891
  Polar		| 7.9758
  FragIndex	| 1
  FragRMSD	| 1.137

