@<TRIPOS>MOLECULE
BindingDB_50287006
 25 25 0 0 0
SMALL
NO_CHARGES


@<TRIPOS>ATOM
1    C       -16.5689   59.1672  105.7123  C     
2    C       -17.6578   58.1170  105.3540  C     
3    C       -17.0793   60.3713  106.5643  C     
4    C       -18.8667   58.5719  104.4626  C     
5    N       -18.9917   61.0372  105.0221  N     
6    O       -17.0225   57.0234  104.6791  O     
7    O       -15.5513   58.4863  106.4544  O     
8    C       -18.8829   60.0234  103.9509  C     
9    C       -17.7548   61.4688  105.7022  C     
10   O       -15.9880   60.9561  107.2781  O     
11   O       -20.0977   58.3307  105.1401  O     
12   H       -16.1007   59.5312  104.7858  H     
13   H       -18.0437   57.7304  106.3010  H     
14   H       -17.7929   60.0080  107.3031  H     
15   H       -18.9044   57.9405  103.5704  H     
16   H       -19.3693   61.8712  104.5706  H     
17   H       -19.6546   60.7257  105.7336  H     
18   H       -16.1170   56.9330  105.0522  H     
19   H       -14.7130   58.7749  106.0138  H     
20   H       -18.0134   60.2080  103.3203  H     
21   H       -19.7657   60.1430  103.3122  H     
22   H       -18.0379   62.2931  106.3584  H     
23   H       -17.0492   61.8632  104.9660  H     
24   H       -16.3101   61.1285  108.1815  H     
25   H       -20.1312   57.3472  105.2279  H     
@<TRIPOS>BOND
     1    1    2 1
     2    1    3 1
     3    1    7 1
     4    2    4 1
     5    2    6 1
     6    3    9 1
     7    3   10 1
     8    4    8 1
     9    4   11 1
    10    5    8 1
    11    5    9 1
    12    1   12 1
    13    2   13 1
    14    3   14 1
    15    4   15 1
    16    5   16 1
    17    5   17 1
    18    6   18 1
    19    7   19 1
    20    8   20 1
    21    8   21 1
    22    9   22 1
    23    9   23 1
    24   10   24 1
    25   11   25 1
@<TRIPOS>PROPERTY_DATA
  Total_Score	| 5.4343
  Crash		| -1.5626
  Polar		| 5.8681
  FragIndex	| 1
  FragRMSD	| 0.745

