@<TRIPOS>MOLECULE
BindingDB_50288853
 35 35 0 0 0
SMALL
NO_CHARGES


@<TRIPOS>ATOM
1    N       -18.5134   60.8364  104.3643  N     
2    C       -18.0744   58.7183  105.7343  C     
3    C       -16.6943   60.8562  106.1516  C     
4    C       -16.7002   59.2986  106.1557  C     
5    C       -18.5738   59.3419  104.3978  C     
6    C       -17.1637   61.3527  104.7452  C     
7    O       -17.9247   57.3079  105.5799  O     
8    O       -16.2723   58.7566  107.4140  O     
9    C       -19.0186   61.3691  103.0355  C     
10   C       -17.5173   61.4900  107.3110  C     
11   C       -18.9119   62.9019  102.7895  C     
12   C       -19.8674   63.5581  101.7112  C     
13   C       -20.8329   62.6041  100.9881  C     
14   H       -19.1789   61.1763  105.0684  H     
15   H       -18.8042   58.9029  106.5270  H     
16   H       -15.6544   61.1808  106.2898  H     
17   H       -15.9389   58.9583  105.4312  H     
18   H       -19.6100   59.0067  104.2623  H     
19   H       -17.9688   58.9226  103.5753  H     
20   H       -16.4319   61.0296  103.9903  H     
21   H       -17.1491   62.4349  104.7680  H     
22   H       -18.8161   56.9585  105.3783  H     
23   H       -16.9800   58.9631  108.0617  H     
24   H       -18.5275   60.8538  102.2009  H     
25   H       -20.0849   61.1119  103.0035  H     
26   H       -18.5809   61.2768  107.1923  H     
27   H       -17.3745   62.5746  107.3157  H     
28   H       -17.1779   61.0974  108.2716  H     
29   H       -19.0555   63.4311  103.7526  H     
30   H       -17.8826   63.1313  102.4784  H     
31   H       -20.4369   64.3441  102.2122  H     
32   H       -19.2316   64.0495  100.9557  H     
33   H       -20.2835   61.9092  100.3593  H     
34   H       -21.5059   63.1997  100.3483  H     
35   H       -21.4408   62.0703  101.6933  H     
@<TRIPOS>BOND
     1    1    5 1
     2    1    6 1
     3    1    9 1
     4    2    4 1
     5    2    5 1
     6    2    7 1
     7    3    4 1
     8    3    6 1
     9    3   10 1
    10    4    8 1
    11    9   11 1
    12   11   12 1
    13   12   13 1
    14    1   14 1
    15    2   15 1
    16    3   16 1
    17    4   17 1
    18    5   18 1
    19    5   19 1
    20    6   20 1
    21    6   21 1
    22    7   22 1
    23    8   23 1
    24    9   24 1
    25    9   25 1
    26   10   26 1
    27   10   27 1
    28   10   28 1
    29   11   29 1
    30   11   30 1
    31   12   31 1
    32   12   32 1
    33   13   33 1
    34   13   34 1
    35   13   35 1
@<TRIPOS>PROPERTY_DATA
  Total_Score	| 3.6403
  Crash		| -1.3537
  Polar		| 3.6979
  FragIndex	| 1
  FragRMSD	| 0.641

