@<TRIPOS>MOLECULE
BindingDB_28449
 55 57 0 0 0
SMALL
NO_CHARGES


@<TRIPOS>ATOM
1    O       -16.5270   -7.3520    4.4334  O     
2    O       -13.4793   -7.0978    4.3751  O     
3    O       -14.3456   -4.4386    4.5827  O     
4    C       -20.6238   -9.5061    8.5931  C     
5    N       -17.3540   -5.2074    3.8261  N     
6    N       -17.2657   -9.1338    6.9579  N     
7    N       -18.8823   -3.8831    2.9106  N     
8    N       -18.7829   -5.9885    5.6889  N     
9    N       -20.9824   -5.1377    5.6506  N     
10   N       -21.6934   -3.6742    3.9630  N     
11   C       -15.5625   -7.8430    5.3849  C     
12   C       -14.4252   -6.7886    5.4061  C     
13   C       -15.1799   -5.4955    5.0576  C     
14   C       -16.1802   -6.0231    4.0132  C     
15   C       -16.2303   -8.0490    6.7785  C     
16   C       -18.4772   -5.2841    4.5696  C     
17   C       -17.6042   -4.3097    2.8343  C     
18   C       -18.0972   -8.8484    8.1877  C     
19   C       -19.4358   -4.4743    3.9724  C     
20   C       -19.1252   -9.9168    8.6770  C     
21   C       -20.7271   -4.4164    4.5249  C     
22   C       -20.0279   -5.9142    6.2339  C     
23   N       -21.1049   -9.2625    7.2273  N     
24   C       -16.7005   -3.7967    1.7784  C     
25   C       -18.0603   -9.4597    5.7370  C     
26   C       -16.8855   -2.2793    1.5382  C     
27   H       -12.5948   -7.1489    4.8022  H     
28   H       -13.4964   -4.8468    4.3130  H     
29   H       -21.2344  -10.3037    9.0232  H     
30   H       -20.7931   -8.6026    9.1845  H     
31   H       -16.7473   -9.9879    7.1690  H     
32   H       -21.5111   -3.1659    3.1590  H     
33   H       -22.5807   -3.6617    4.3502  H     
34   H       -15.1803   -8.8057    5.0380  H     
35   H       -13.9166   -6.7079    6.3714  H     
36   H       -15.7128   -5.1232    5.9378  H     
37   H       -15.6567   -6.1549    3.0626  H     
38   H       -16.6498   -7.0832    7.0756  H     
39   H       -15.4232   -8.2669    7.4825  H     
40   H       -17.3755   -8.7413    9.0083  H     
41   H       -18.6078   -7.8802    8.0927  H     
42   H       -18.9283  -10.1243    9.7357  H     
43   H       -18.9544  -10.8509    8.1436  H     
44   H       -20.2462   -6.4453    7.0754  H     
45   H       -20.6019   -8.4729    6.8238  H     
46   H       -22.1095   -9.0557    7.2348  H     
47   H       -20.9369  -10.0924    6.6580  H     
48   H       -15.6563   -3.9732    2.0309  H     
49   H       -16.9082   -4.3397    0.8546  H     
50   H       -18.6548   -8.6087    5.4072  H     
51   H       -18.7230  -10.3001    5.9108  H     
52   H       -17.4082   -9.7722    4.9225  H     
53   H       -17.8958   -2.0638    1.1814  H     
54   H       -16.1767   -1.9353    0.7832  H     
55   H       -16.7093   -1.7229    2.4623  H     
@<TRIPOS>BOND
     1    1   11 1
     2    1   14 1
     3   12    2 1
     4   13    3 1
     5    4   20 1
     6    4   23 1
     7   14    5 1
     8    5   16 1
     9    5   17 1
    10    6   15 1
    11    6   18 1
    12    6   25 1
    13    7   17 2
    14    7   19 1
    15    8   16 1
    16    8   22 2
    17    9   21 2
    18    9   22 1
    19   10   21 1
    20   11   12 1
    21   11   15 1
    22   12   13 1
    23   13   14 1
    24   16   19 2
    25   17   24 1
    26   18   20 1
    27   19   21 1
    28   24   26 1
    29    2   27 1
    30    3   28 1
    31    4   29 1
    32    4   30 1
    33    6   31 1
    34   10   32 1
    35   10   33 1
    36   11   34 1
    37   12   35 1
    38   13   36 1
    39   14   37 1
    40   15   38 1
    41   15   39 1
    42   18   40 1
    43   18   41 1
    44   20   42 1
    45   20   43 1
    46   22   44 1
    47   23   45 1
    48   23   46 1
    49   23   47 1
    50   24   48 1
    51   24   49 1
    52   25   50 1
    53   25   51 1
    54   25   52 1
    55   26   53 1
    56   26   54 1
    57   26   55 1
@<TRIPOS>PROPERTY_DATA
  Total_Score	| 11.7760
  Crash		| -1.5493
  Polar		| 7.6195
  FragIndex	| 1
  FragRMSD	| 0.174

