@<TRIPOS>MOLECULE
BindingDB_28421
 50 52 0 0 0
SMALL
NO_CHARGES


@<TRIPOS>ATOM
1    O       -16.7582   -7.4633    4.7563  O     
2    O       -13.4989   -7.1984    4.3554  O     
3    O       -14.4959   -4.6200    4.3456  O     
4    O       -20.7114   -9.2640    8.4030  O     
5    N       -17.4869   -5.3449    3.8879  N     
6    N       -17.1353   -9.2846    7.1052  N     
7    N       -18.8895   -3.8815    2.9486  N     
8    N       -19.0002   -6.0137    5.7246  N     
9    N       -21.1269   -4.9874    5.6446  N     
10   N       -21.7286   -3.5357    3.9037  N     
11   N       -21.2317   -9.2422    7.1578  N     
12   C       -15.5723   -7.9833    5.4012  C     
13   C       -14.4682   -6.8963    5.3663  C     
14   C       -15.2701   -5.6283    5.0082  C     
15   C       -16.3722   -6.2374    4.1080  C     
16   C       -15.9077   -8.4423    6.8592  C     
17   C       -18.6257   -5.3270    4.6118  C     
18   C       -17.6597   -4.4361    2.8811  C     
19   C       -18.3275   -8.5438    7.7013  C     
20   C       -19.5051   -4.4313    4.0028  C     
21   C       -17.5267  -10.1278    5.9305  C     
22   C       -19.2741   -9.5140    8.4630  C     
23   C       -20.8031   -4.2867    4.5218  C     
24   C       -20.2356   -5.8283    6.2495  C     
25   C       -16.7026   -4.0718    1.8211  C     
26   H       -12.7101   -6.6761    4.6037  H     
27   H       -13.5693   -4.8839    4.5385  H     
28   H       -16.8584   -9.9626    7.8376  H     
29   H       -21.5083   -3.0638    3.0856  H     
30   H       -22.6396   -3.5383    4.2357  H     
31   H       -20.8388   -8.4455    6.6381  H     
32   H       -22.2374   -9.1104    7.2078  H     
33   H       -21.0097  -10.1116    6.6567  H     
34   H       -15.2343   -8.8535    4.8342  H     
35   H       -13.9654   -6.7632    6.3384  H     
36   H       -15.7401   -5.1978    5.9198  H     
37   H       -15.9532   -6.4967    3.1294  H     
38   H       -15.9598   -7.5567    7.5097  H     
39   H       -15.0748   -9.0558    7.2186  H     
40   H       -17.9960   -7.8024    8.4494  H     
41   H       -18.8693   -8.0121    6.8997  H     
42   H       -16.6353  -10.6843    5.5788  H     
43   H       -17.9021   -9.4638    5.1185  H     
44   H       -18.3052  -10.8541    6.2001  H     
45   H       -19.0282   -9.5131    9.5346  H     
46   H       -19.1131  -10.5577    8.1184  H     
47   H       -20.5096   -6.3343    7.0924  H     
48   H       -15.7808   -3.6850    2.2577  H     
49   H       -17.1299   -3.2960    1.1869  H     
50   H       -16.4754   -4.9407    1.2011  H     
@<TRIPOS>BOND
     1    1   12 1
     2    1   15 1
     3   13    2 1
     4   14    3 1
     5    4   11 1
     6    4   22 1
     7   15    5 1
     8    5   17 1
     9    5   18 1
    10    6   16 1
    11    6   19 1
    12    6   21 1
    13    7   18 2
    14    7   20 1
    15    8   17 2
    16    8   24 1
    17    9   23 1
    18    9   24 2
    19   10   23 1
    20   12   13 1
    21   12   16 1
    22   13   14 1
    23   14   15 1
    24   17   20 1
    25   18   25 1
    26   19   22 1
    27   20   23 2
    28    2   26 1
    29    3   27 1
    30    6   28 1
    31   10   29 1
    32   10   30 1
    33   11   31 1
    34   11   32 1
    35   11   33 1
    36   12   34 1
    37   13   35 1
    38   14   36 1
    39   15   37 1
    40   16   38 1
    41   16   39 1
    42   19   40 1
    43   19   41 1
    44   21   42 1
    45   21   43 1
    46   21   44 1
    47   22   45 1
    48   22   46 1
    49   24   47 1
    50   25   48 1
    51   25   49 1
    52   25   50 1
@<TRIPOS>PROPERTY_DATA
  Total_Score	| 10.1369
  Crash		| -2.6805
  Polar		| 7.9468
  FragIndex	| 1
  FragRMSD	| 0.376

