@<TRIPOS>MOLECULE
BindingDB_28448
 52 54 0 0 0
SMALL
NO_CHARGES


@<TRIPOS>ATOM
1    O       -16.5122   -7.3949    4.4536  O     
2    O       -13.4634   -7.1098    4.5382  O     
3    O       -14.3877   -4.4497    4.4902  O     
4    C       -20.7048   -9.6585    8.5582  C     
5    N       -17.4186   -5.2875    3.8120  N     
6    N       -17.3293   -9.0623    7.0126  N     
7    N       -18.9232   -3.8954    2.9260  N     
8    N       -18.8693   -6.0585    5.6689  N     
9    N       -21.0272   -5.1033    5.6770  N     
10   N       -21.6935   -3.5715    4.0405  N     
11   C       -15.5768   -7.7954    5.4739  C     
12   C       -14.4610   -6.7283    5.4890  C     
13   C       -15.2225   -5.4708    5.0362  C     
14   C       -16.2116   -6.0605    4.0113  C     
15   C       -16.3213   -7.9527    6.8425  C     
16   C       -18.5437   -5.3419    4.5614  C     
17   C       -17.6723   -4.3926    2.8203  C     
18   C       -18.2422   -8.7742    8.1834  C     
19   C       -19.4737   -4.4791    3.9949  C     
20   C       -19.1699   -9.9314    8.6760  C     
21   C       -20.7523   -4.3616    4.5678  C     
22   C       -20.1065   -5.9409    6.2279  C     
23   N       -21.1486   -9.3237    7.1965  N     
24   C       -16.7548   -3.9692    1.7414  C     
25   C       -18.0783   -9.4747    5.7772  C     
26   H       -12.6677   -6.5704    4.7418  H     
27   H       -13.4877   -4.8257    4.3850  H     
28   H       -21.2655  -10.5468    8.8782  H     
29   H       -20.9773   -8.8289    9.2242  H     
30   H       -16.7903   -9.8912    7.2860  H     
31   H       -21.4999   -3.0400    3.2525  H     
32   H       -22.5807   -3.5494    4.4319  H     
33   H       -15.1608   -8.7714    5.2052  H     
34   H       -13.9992   -6.5839    6.4715  H     
35   H       -15.7553   -5.0460    5.8895  H     
36   H       -15.6856   -6.1702    3.0568  H     
37   H       -16.7846   -6.9938    7.0697  H     
38   H       -15.5580   -8.1167    7.6113  H     
39   H       -17.6005   -8.5137    9.0326  H     
40   H       -18.8555   -7.8903    7.9890  H     
41   H       -18.9738  -10.1360    9.7392  H     
42   H       -18.9288  -10.8531    8.1493  H     
43   H       -20.3498   -6.4778    7.0575  H     
44   H       -20.6322   -8.5070    6.8533  H     
45   H       -22.1568   -9.1274    7.2091  H     
46   H       -20.9405  -10.1334    6.6011  H     
47   H       -15.8340   -3.5644    2.1695  H     
48   H       -17.2179   -3.1955    1.1298  H     
49   H       -16.5174   -4.8183    1.0988  H     
50   H       -18.6616   -8.6412    5.3614  H     
51   H       -18.7446  -10.3119    5.9670  H     
52   H       -17.3628   -9.8330    5.0302  H     
@<TRIPOS>BOND
     1    1   11 1
     2    1   14 1
     3   12    2 1
     4   13    3 1
     5    4   20 1
     6    4   23 1
     7   14    5 1
     8    5   16 1
     9    5   17 1
    10    6   15 1
    11    6   18 1
    12    6   25 1
    13    7   17 2
    14    7   19 1
    15    8   16 1
    16    8   22 2
    17    9   21 2
    18    9   22 1
    19   10   21 1
    20   11   12 1
    21   11   15 1
    22   12   13 1
    23   13   14 1
    24   16   19 2
    25   17   24 1
    26   18   20 1
    27   19   21 1
    28    2   26 1
    29    3   27 1
    30    4   28 1
    31    4   29 1
    32    6   30 1
    33   10   31 1
    34   10   32 1
    35   11   33 1
    36   12   34 1
    37   13   35 1
    38   14   36 1
    39   15   37 1
    40   15   38 1
    41   18   39 1
    42   18   40 1
    43   20   41 1
    44   20   42 1
    45   22   43 1
    46   23   44 1
    47   23   45 1
    48   23   46 1
    49   24   47 1
    50   24   48 1
    51   24   49 1
    52   25   50 1
    53   25   51 1
    54   25   52 1
@<TRIPOS>PROPERTY_DATA
  Total_Score	| 11.1933
  Crash		| -1.9353
  Polar		| 7.5915
  FragIndex	| 1
  FragRMSD	| 0.325

