@<TRIPOS>MOLECULE
BindingDB_28429
 59 61 0 0 0
SMALL
NO_CHARGES


@<TRIPOS>ATOM
1    O       -16.1652   -6.9216    4.4439  O     
2    O       -13.9340   -6.4014    7.2227  O     
3    O       -13.9697   -4.3847    5.3943  O     
4    C       -19.5855   -8.4591    8.1134  C     
5    N       -17.1445   -4.9068    3.9646  N     
6    N       -17.0270   -9.0293    6.7018  N     
7    N       -18.8517   -4.0416    2.8471  N     
8    N       -18.4048   -5.4877    6.0073  N     
9    N       -20.7197   -4.9833    5.8507  N     
10   N       -21.6477   -4.1153    3.8657  N     
11   C       -20.9875   -8.3578    8.7907  C     
12   C       -15.2737   -7.4260    5.4335  C     
13   C       -15.1448   -6.3045    6.4775  C     
14   C       -15.2303   -5.0263    5.6179  C     
15   C       -15.8866   -5.5209    4.2972  C     
16   C       -15.7226   -8.8164    5.9650  C     
17   C       -18.2380   -5.0013    4.7409  C     
18   C       -17.5241   -4.2705    2.8229  C     
19   C       -18.2657   -8.8640    5.8516  C     
20   C       -19.3014   -4.4797    4.0228  C     
21   C       -16.9647  -10.3752    7.3839  C     
22   C       -16.7221   -3.8464    1.6531  C     
23   C       -19.6282   -8.6438    6.5689  C     
24   C       -20.5860   -4.5268    4.5781  C     
25   C       -19.6499   -5.4224    6.5699  C     
26   O       -21.6231   -9.6278    9.0705  O     
27   N       -22.0561  -10.2657    7.9496  N     
28   C       -16.8728   -2.3267    1.4035  C     
29   H       -13.9848   -7.2671    7.6796  H     
30   H       -13.4214   -4.9864    4.8460  H     
31   H       -19.0224   -7.5518    8.3430  H     
32   H       -19.0494   -9.2832    8.5857  H     
33   H       -17.0804   -8.3247    7.4449  H     
34   H       -21.5208   -3.7874    2.9571  H     
35   H       -22.5395   -4.1811    4.2367  H     
36   H       -20.8369   -7.8808    9.7650  H     
37   H       -21.6484   -7.6966    8.2164  H     
38   H       -14.2998   -7.5734    4.9496  H     
39   H       -15.9897   -6.3366    7.1722  H     
40   H       -15.8518   -4.2821    6.1249  H     
41   H       -15.1653   -5.4233    3.4832  H     
42   H       -14.9133   -9.1341    6.6301  H     
43   H       -15.7104   -9.4891    5.0989  H     
44   H       -18.1537   -7.9990    5.1635  H     
45   H       -18.3656   -9.7529    5.2212  H     
46   H       -16.8879  -11.1848    6.6518  H     
47   H       -17.8399  -10.5744    8.0024  H     
48   H       -16.1004  -10.4352    8.0554  H     
49   H       -15.6634   -4.0582    1.7885  H     
50   H       -17.0642   -4.4040    0.7777  H     
51   H       -20.2729   -9.4873    6.3289  H     
52   H       -20.0795   -7.7530    6.1265  H     
53   H       -19.7751   -5.7058    7.5406  H     
54   H       -22.6581   -9.6523    7.4076  H     
55   H       -22.5827  -11.0967    8.2157  H     
56   H       -21.2630  -10.5557    7.3868  H     
57   H       -17.9132   -2.0729    1.1730  H     
58   H       -16.2511   -2.0177    0.5589  H     
59   H       -16.5561   -1.7596    2.2862  H     
@<TRIPOS>BOND
     1    1   12 1
     2    1   15 1
     3   13    2 1
     4   14    3 1
     5    4   11 1
     6    4   23 1
     7   15    5 1
     8    5   17 1
     9    5   18 1
    10    6   16 1
    11    6   19 1
    12    6   21 1
    13    7   18 2
    14    7   20 1
    15    8   17 1
    16    8   25 2
    17    9   24 2
    18    9   25 1
    19   10   24 1
    20   11   26 1
    21   12   13 1
    22   12   16 1
    23   13   14 1
    24   14   15 1
    25   17   20 2
    26   18   22 1
    27   19   23 1
    28   20   24 1
    29   22   28 1
    30   26   27 1
    31    2   29 1
    32    3   30 1
    33    4   31 1
    34    4   32 1
    35    6   33 1
    36   10   34 1
    37   10   35 1
    38   11   36 1
    39   11   37 1
    40   12   38 1
    41   13   39 1
    42   14   40 1
    43   15   41 1
    44   16   42 1
    45   16   43 1
    46   19   44 1
    47   19   45 1
    48   21   46 1
    49   21   47 1
    50   21   48 1
    51   22   49 1
    52   22   50 1
    53   23   51 1
    54   23   52 1
    55   25   53 1
    56   27   54 1
    57   27   55 1
    58   27   56 1
    59   28   57 1
    60   28   58 1
    61   28   59 1
@<TRIPOS>PROPERTY_DATA
  Total_Score	| 9.7091
  Crash		| -2.4260
  Polar		| 5.6591
  FragIndex	| 1
  FragRMSD	| 0.934

