@<TRIPOS>MOLECULE
BindingDB_28433
 53 55 0 0 0
SMALL
NO_CHARGES


@<TRIPOS>ATOM
1    O       -16.5508   -7.4629    4.4643  O     
2    O       -13.5246   -7.0424    4.3009  O     
3    O       -14.5338   -4.4176    4.5264  O     
4    C       -16.5037  -10.7796   10.5162  C     
5    N       -17.4499   -5.3100    3.8016  N     
6    N       -16.8290   -9.5046    6.9091  N     
7    N       -18.8777   -3.8033    3.0477  N     
8    N       -18.9633   -6.2856    5.5172  N     
9    N       -21.0787   -5.2281    5.6262  N     
10   N       -21.6531   -3.4779    4.1786  N     
11   C       -15.5221   -7.8712    5.4101  C     
12   C       -14.4439   -6.7604    5.3697  C     
13   C       -15.2829   -5.5253    5.0267  C     
14   C       -16.2706   -6.1178    3.9930  C     
15   C       -16.1646   -8.1597    6.8006  C     
16   C       -18.5979   -5.4333    4.5097  C     
17   C       -17.6422   -4.3077    2.9094  C     
18   C       -17.3494   -9.7895    8.2913  C     
19   C       -19.4827   -4.4642    4.0347  C     
20   C       -17.8474   -9.7858    5.8493  C     
21   C       -16.1794  -10.1533    9.2484  C     
22   C       -20.7558   -4.3724    4.6158  C     
23   C       -20.2057   -6.1793    6.0674  C     
24   N       -17.7288  -10.9197   10.9768  N     
25   O       -15.5937  -11.2725   11.1646  O     
26   C       -16.7267   -3.8337    1.8570  C     
27   C       -16.8249   -2.3237    1.5236  C     
28   H       -12.7013   -6.5296    4.5177  H     
29   H       -13.5902   -4.7135    4.4629  H     
30   H       -16.0909  -10.1849    6.7404  H     
31   H       -21.4286   -2.8649    3.4602  H     
32   H       -22.5441   -3.4790    4.5516  H     
33   H       -15.0714   -8.8036    5.0473  H     
34   H       -13.9021   -6.6566    6.3152  H     
35   H       -15.8301   -5.1923    5.9145  H     
36   H       -15.7676   -6.2394    3.0378  H     
37   H       -16.8623   -7.3506    7.0568  H     
38   H       -15.3693   -8.1463    7.5537  H     
39   H       -17.8924   -8.9167    8.7147  H     
40   H       -18.0770  -10.6198    8.3022  H     
41   H       -18.6888   -9.0805    5.8866  H     
42   H       -18.2472  -10.7917    5.9977  H     
43   H       -17.4012   -9.7618    4.8504  H     
44   H       -15.6388   -9.2314    9.4517  H     
45   H       -15.5233  -10.8301    8.7091  H     
46   H       -20.4738   -6.8178    6.8085  H     
47   H       -17.8603  -11.4504   11.7888  H     
48   H       -18.4855  -10.5462   10.4721  H     
49   H       -15.6794   -4.0358    2.1467  H     
50   H       -16.9123   -4.4202    0.9353  H     
51   H       -17.8120   -2.0895    1.1299  H     
52   H       -16.0811   -2.0447    0.7704  H     
53   H       -16.6470   -1.7313    2.4179  H     
@<TRIPOS>BOND
     1    1   11 1
     2    1   14 1
     3   12    2 1
     4   13    3 1
     5    4   21 1
     6    4   24 am
     7    4   25 2
     8   14    5 1
     9    5   16 1
    10    5   17 1
    11    6   15 1
    12    6   18 1
    13    6   20 1
    14    7   17 2
    15    7   19 1
    16    8   16 1
    17    8   23 2
    18    9   22 2
    19    9   23 1
    20   10   22 1
    21   11   12 1
    22   11   15 1
    23   12   13 1
    24   13   14 1
    25   16   19 2
    26   17   26 1
    27   18   21 1
    28   19   22 1
    29   26   27 1
    30    2   28 1
    31    3   29 1
    32    6   30 1
    33   10   31 1
    34   10   32 1
    35   11   33 1
    36   12   34 1
    37   13   35 1
    38   14   36 1
    39   15   37 1
    40   15   38 1
    41   18   39 1
    42   18   40 1
    43   20   41 1
    44   20   42 1
    45   20   43 1
    46   21   44 1
    47   21   45 1
    48   23   46 1
    49   24   47 1
    50   24   48 1
    51   26   49 1
    52   26   50 1
    53   27   51 1
    54   27   52 1
    55   27   53 1
@<TRIPOS>PROPERTY_DATA
  Total_Score	| 9.3111
  Crash		| -2.7518
  Polar		| 6.6775
  FragIndex	| 1
  FragRMSD	| 0.365

