@<TRIPOS>MOLECULE
BindingDB_28452
 43 45 0 0 0
SMALL
NO_CHARGES


@<TRIPOS>ATOM
1    O       -16.6033   -7.4520    4.4892  O     
2    O       -13.5056   -7.1269    4.4114  O     
3    O       -14.4735   -4.4718    4.7555  O     
4    N       -17.4109   -5.2827    3.8938  N     
5    N       -17.5458   -8.9595    6.6796  N     
6    N       -18.8651   -3.8492    3.0072  N     
7    N       -18.8893   -6.1015    5.6890  N     
8    N       -21.0456   -5.1405    5.6708  N     
9    N       -21.6835   -3.5799    4.0384  N     
10   C       -15.5841   -7.9578    5.3685  C     
11   C       -14.4725   -6.8821    5.4475  C     
12   C       -15.2642   -5.5894    5.1780  C     
13   C       -16.2403   -6.1065    4.0987  C     
14   C       -16.1924   -8.3328    6.7549  C     
15   C       -18.5410   -5.3503    4.6154  C     
16   C       -17.6188   -4.3547    2.9192  C     
17   C       -17.6020  -10.1506    5.7901  C     
18   C       -19.4503   -4.4632    4.0477  C     
19   C       -20.7449   -4.3726    4.5882  C     
20   C       -20.1355   -5.9912    6.2222  C     
21   C       -18.0909   -9.2615    8.0415  C     
22   C       -16.6669   -3.9113    1.8780  C     
23   H       -12.7168   -6.5910    4.6532  H     
24   H       -13.5893   -4.8457    4.5052  H     
25   H       -18.1739   -8.2607    6.2674  H     
26   H       -21.4697   -3.0499    3.2527  H     
27   H       -22.5811   -3.5728    4.4027  H     
28   H       -15.1565   -8.8637    4.9252  H     
29   H       -13.9608   -6.8552    6.4222  H     
30   H       -15.8283   -5.3039    6.0685  H     
31   H       -15.6870   -6.1848    3.1448  H     
32   H       -16.2644   -7.4160    7.3384  H     
33   H       -15.4860   -8.9952    7.2714  H     
34   H       -17.3634   -9.8722    4.7654  H     
35   H       -18.6138  -10.5805    5.7765  H     
36   H       -16.9068  -10.9231    6.1275  H     
37   H       -20.3942   -6.5496    7.0345  H     
38   H       -17.4690   -9.9871    8.5630  H     
39   H       -19.1090   -9.6468    7.9675  H     
40   H       -18.1351   -8.3482    8.6446  H     
41   H       -15.7499   -3.5564    2.3461  H     
42   H       -17.0987   -3.0975    1.2915  H     
43   H       -16.4398   -4.7426    1.2113  H     
@<TRIPOS>BOND
     1    1   10 1
     2    1   13 1
     3   11    2 1
     4   12    3 1
     5   13    4 1
     6    4   15 1
     7    4   16 1
     8    5   14 1
     9    5   17 1
    10    5   21 1
    11    6   16 2
    12    6   18 1
    13    7   15 1
    14    7   20 2
    15    8   19 2
    16    8   20 1
    17    9   19 1
    18   10   11 1
    19   10   14 1
    20   11   12 1
    21   12   13 1
    22   15   18 2
    23   16   22 1
    24   18   19 1
    25    2   23 1
    26    3   24 1
    27    5   25 1
    28    9   26 1
    29    9   27 1
    30   10   28 1
    31   11   29 1
    32   12   30 1
    33   13   31 1
    34   14   32 1
    35   14   33 1
    36   17   34 1
    37   17   35 1
    38   17   36 1
    39   20   37 1
    40   21   38 1
    41   21   39 1
    42   21   40 1
    43   22   41 1
    44   22   42 1
    45   22   43 1
@<TRIPOS>PROPERTY_DATA
  Total_Score	| 8.7599
  Crash		| -1.2604
  Polar		| 5.3617
  FragIndex	| 1
  FragRMSD	| 0.154

