@<TRIPOS>MOLECULE
BindingDB_28443
 49 51 0 0 0
SMALL
NO_CHARGES


@<TRIPOS>ATOM
1    O       -16.2531   -7.0710    4.4898  O     
2    O       -13.7881   -6.4136    7.0378  O     
3    O       -14.1440   -4.3506    5.3053  O     
4    N       -20.4363   -9.1762    7.2710  N     
5    N       -17.2141   -5.0544    3.8734  N     
6    N       -16.9868   -8.9091    6.8437  N     
7    N       -18.8462   -4.1450    2.6726  N     
8    N       -18.5604   -5.4088    5.9191  N     
9    N       -20.8121   -4.7269    5.7239  N     
10   N       -21.6633   -3.8398    3.7329  N     
11   C       -15.2767   -7.5531    5.4183  C     
12   C       -15.0771   -6.3896    6.4193  C     
13   C       -15.3253   -5.1247    5.5680  C     
14   C       -15.9748   -5.6787    4.2708  C     
15   C       -15.6984   -8.9109    6.0540  C     
16   C       -18.3268   -5.0149    4.6372  C     
17   C       -17.5449   -4.5032    2.6724  C     
18   C       -18.2320   -9.0665    6.0097  C     
19   C       -19.3457   -4.4566    3.8740  C     
20   C       -16.9504   -9.8993    7.9657  C     
21   C       -19.4693   -8.3079    6.5801  C     
22   C       -20.6301   -4.3352    4.4330  C     
23   C       -19.7990   -5.2669    6.4617  C     
24   C       -16.7284   -4.2941    1.4594  C     
25   H       -13.8183   -7.1911    7.6346  H     
26   H       -13.5017   -4.9336    4.8440  H     
27   H       -21.2756   -8.6275    7.4949  H     
28   H       -20.0318   -9.5442    8.1359  H     
29   H       -20.6979   -9.9526    6.6608  H     
30   H       -17.0477   -7.9805    7.2829  H     
31   H       -21.5385   -3.5502    2.8156  H     
32   H       -22.5411   -3.7994    4.1412  H     
33   H       -14.3390   -7.7147    4.8647  H     
34   H       -15.8382   -6.4468    7.2084  H     
35   H       -16.0054   -4.4598    6.1052  H     
36   H       -15.2263   -5.6388    3.4748  H     
37   H       -14.8598   -9.2064    6.6902  H     
38   H       -15.7575   -9.6527    5.2502  H     
39   H       -18.0590   -8.6648    5.0075  H     
40   H       -18.4706  -10.1283    5.8673  H     
41   H       -16.8209  -10.9166    7.5808  H     
42   H       -17.8642   -9.8633    8.5593  H     
43   H       -16.1218   -9.6697    8.6405  H     
44   H       -19.1513   -7.5240    7.2813  H     
45   H       -20.0065   -7.8253    5.7706  H     
46   H       -19.9621   -5.5368    7.4285  H     
47   H       -16.7619   -3.2415    1.1787  H     
48   H       -17.1429   -4.8908    0.6479  H     
49   H       -15.6884   -4.5731    1.5957  H     
@<TRIPOS>BOND
     1    1   11 1
     2    1   14 1
     3   12    2 1
     4   13    3 1
     5    4   21 1
     6   14    5 1
     7    5   16 1
     8    5   17 1
     9    6   15 1
    10    6   18 1
    11    6   20 1
    12    7   17 2
    13    7   19 1
    14    8   16 1
    15    8   23 2
    16    9   22 2
    17    9   23 1
    18   10   22 1
    19   11   12 1
    20   11   15 1
    21   12   13 1
    22   13   14 1
    23   16   19 2
    24   17   24 1
    25   18   21 1
    26   19   22 1
    27    2   25 1
    28    3   26 1
    29    4   27 1
    30    4   28 1
    31    4   29 1
    32    6   30 1
    33   10   31 1
    34   10   32 1
    35   11   33 1
    36   12   34 1
    37   13   35 1
    38   14   36 1
    39   15   37 1
    40   15   38 1
    41   18   39 1
    42   18   40 1
    43   20   41 1
    44   20   42 1
    45   20   43 1
    46   21   44 1
    47   21   45 1
    48   23   46 1
    49   24   47 1
    50   24   48 1
    51   24   49 1
@<TRIPOS>PROPERTY_DATA
  Total_Score	| 9.6931
  Crash		| -1.8068
  Polar		| 5.2928
  FragIndex	| 1
  FragRMSD	| 0.856

