@<TRIPOS>MOLECULE
BindingDB_28432
 50 52 0 0 0
SMALL
NO_CHARGES


@<TRIPOS>ATOM
1    O       -16.5628   -7.4514    4.4880  O     
2    O       -13.4757   -7.1222    4.3887  O     
3    O       -14.4445   -4.4714    4.4013  O     
4    C       -20.5253   -9.0471    8.2330  C     
5    N       -17.4270   -5.3304    3.7929  N     
6    N       -17.2015   -9.1255    7.0279  N     
7    N       -18.8722   -3.8428    2.9713  N     
8    N       -18.9087   -6.1689    5.5834  N     
9    N       -21.0449   -5.1636    5.6216  N     
10   N       -21.6674   -3.5325    4.0659  N     
11   C       -15.5535   -7.8557    5.4321  C     
12   C       -14.4425   -6.7670    5.3819  C     
13   C       -15.2340   -5.5181    4.9710  C     
14   C       -16.2502   -6.1353    3.9919  C     
15   C       -16.1933   -8.0209    6.8457  C     
16   C       -18.5597   -5.3963    4.5214  C     
17   C       -17.6358   -4.3715    2.8497  C     
18   C       -17.9977   -8.9126    8.2973  C     
19   C       -19.4609   -4.4762    3.9899  C     
20   C       -17.9885   -9.4561    5.8016  C     
21   C       -19.2908   -9.7340    8.5862  C     
22   C       -20.7406   -4.3687    4.5602  C     
23   C       -20.1468   -6.0494    6.1358  C     
24   C       -16.6824   -3.9192    1.8190  C     
25   N       -21.2857   -9.4256    7.2179  N     
26   O       -20.9315   -8.1190    8.9124  O     
27   H       -12.6202   -7.1236    4.8560  H     
28   H       -13.5314   -4.8324    4.3708  H     
29   H       -16.6433   -9.9714    7.2014  H     
30   H       -21.4594   -2.9691    3.3008  H     
31   H       -22.5594   -3.5223    4.4468  H     
32   H       -15.1381   -8.8318    5.1347  H     
33   H       -13.9282   -6.6198    6.3400  H     
34   H       -15.7549   -5.1181    5.8511  H     
35   H       -15.7472   -6.2824    3.0326  H     
36   H       -16.6445   -7.0640    7.1265  H     
37   H       -15.3709   -8.2108    7.5518  H     
38   H       -17.2999   -9.1288    9.1088  H     
39   H       -18.2628   -7.8614    8.4260  H     
40   H       -18.6257   -8.6213    5.4991  H     
41   H       -18.5982  -10.3465    5.9754  H     
42   H       -17.3188   -9.7269    4.9788  H     
43   H       -19.3322   -9.9416    9.6583  H     
44   H       -19.2222  -10.6965    8.0881  H     
45   H       -20.4017   -6.6318    6.9310  H     
46   H       -15.7436   -3.6002    2.2794  H     
47   H       -17.0946   -3.0753    1.2651  H     
48   H       -16.4794   -4.7279    1.1121  H     
49   H       -22.1351   -8.9859    7.0450  H     
50   H       -21.0165  -10.1650    6.6590  H     
@<TRIPOS>BOND
     1    1   11 1
     2    1   14 1
     3   12    2 1
     4   13    3 1
     5    4   21 1
     6    4   25 am
     7    4   26 2
     8   14    5 1
     9    5   16 1
    10    5   17 1
    11    6   15 1
    12    6   18 1
    13    6   20 1
    14    7   17 2
    15    7   19 1
    16    8   16 1
    17    8   23 2
    18    9   22 2
    19    9   23 1
    20   10   22 1
    21   11   12 1
    22   11   15 1
    23   12   13 1
    24   13   14 1
    25   16   19 2
    26   17   24 1
    27   18   21 1
    28   19   22 1
    29    2   27 1
    30    3   28 1
    31    6   29 1
    32   10   30 1
    33   10   31 1
    34   11   32 1
    35   12   33 1
    36   13   34 1
    37   14   35 1
    38   15   36 1
    39   15   37 1
    40   18   38 1
    41   18   39 1
    42   20   40 1
    43   20   41 1
    44   20   42 1
    45   21   43 1
    46   21   44 1
    47   23   45 1
    48   24   46 1
    49   24   47 1
    50   24   48 1
    51   25   49 1
    52   25   50 1
@<TRIPOS>PROPERTY_DATA
  Total_Score	| 9.8690
  Crash		| -1.7170
  Polar		| 7.1744
  FragIndex	| 1
  FragRMSD	| 0.326

