@<TRIPOS>MOLECULE
BindingDB_28453
 40 42 0 0 0
SMALL
NO_CHARGES


@<TRIPOS>ATOM
1    O       -16.5276   -7.4361    4.4626  O     
2    O       -13.4343   -7.0713    4.5114  O     
3    O       -14.4368   -4.4278    4.7154  O     
4    N       -17.3885   -5.3158    3.8817  N     
5    N       -17.5318   -9.0273    6.6434  N     
6    N       -18.8461   -3.8819    3.0076  N     
7    N       -18.8895   -6.1786    5.6442  N     
8    N       -21.0352   -5.2044    5.6482  N     
9    N       -21.6464   -3.5740    4.0805  N     
10   C       -15.5306   -7.9343    5.3751  C     
11   C       -14.4512   -6.8188    5.4785  C     
12   C       -15.2327   -5.5365    5.1347  C     
13   C       -16.1906   -6.0860    4.0595  C     
14   C       -16.1925   -8.3468    6.7292  C     
15   C       -18.5298   -5.4025    4.5913  C     
16   C       -17.6055   -4.3945    2.9185  C     
17   C       -17.6235  -10.1507    5.6648  C     
18   C       -19.4318   -4.4963    4.0416  C     
19   C       -20.7243   -4.4067    4.5880  C     
20   C       -20.1373   -6.0843    6.1765  C     
21   C       -18.0067   -9.4446    7.9948  C     
22   H       -12.5882   -7.0482    5.0098  H     
23   H       -13.5296   -4.7731    4.5247  H     
24   H       -18.1914   -8.3261    6.3108  H     
25   H       -21.4231   -2.9939    3.3360  H     
26   H       -22.5491   -3.5843    4.4373  H     
27   H       -15.0988   -8.8322    4.9461  H     
28   H       -13.9942   -6.7547    6.4747  H     
29   H       -15.8130   -5.2112    6.0115  H     
30   H       -15.6441   -6.1531    3.1134  H     
31   H       -16.3123   -7.4290    7.3269  H     
32   H       -15.4895   -8.9887    7.2709  H     
33   H       -16.9283   -4.1177    2.2009  H     
34   H       -16.8943  -10.9432    5.8772  H     
35   H       -17.4653   -9.7813    4.6529  H     
36   H       -18.6260  -10.5926    5.6796  H     
37   H       -20.4050   -6.6731    6.9652  H     
38   H       -17.3780  -10.2370    8.4077  H     
39   H       -19.0383   -9.8044    7.9491  H     
40   H       -17.9935   -8.5949    8.6890  H     
@<TRIPOS>BOND
     1    1   10 1
     2    1   13 1
     3   11    2 1
     4   12    3 1
     5   13    4 1
     6    4   15 1
     7    4   16 1
     8    5   14 1
     9    5   17 1
    10    5   21 1
    11    6   16 2
    12    6   18 1
    13    7   15 1
    14    7   20 2
    15    8   19 2
    16    8   20 1
    17    9   19 1
    18   10   11 1
    19   10   14 1
    20   11   12 1
    21   12   13 1
    22   15   18 2
    23   18   19 1
    24    2   22 1
    25    3   23 1
    26    5   24 1
    27    9   25 1
    28    9   26 1
    29   10   27 1
    30   11   28 1
    31   12   29 1
    32   13   30 1
    33   14   31 1
    34   14   32 1
    35   16   33 1
    36   17   34 1
    37   17   35 1
    38   17   36 1
    39   20   37 1
    40   21   38 1
    41   21   39 1
    42   21   40 1
@<TRIPOS>PROPERTY_DATA
  Total_Score	| 7.9479
  Crash		| -1.0778
  Polar		| 4.9569
  FragIndex	| 1
  FragRMSD	| 0.115

