@<TRIPOS>MOLECULE
BindingDB_28428
 56 58 0 0 0
SMALL
NO_CHARGES


@<TRIPOS>ATOM
1    O       -16.3475   -7.2828    4.3436  O     
2    O       -13.2823   -6.8246    4.6210  O     
3    O       -14.4107   -4.2423    4.9176  O     
4    C       -19.2939  -10.2423    9.3070  C     
5    N       -17.2815   -5.1726    3.8461  N     
6    N       -16.7609   -9.6557    6.3891  N     
7    N       -18.8315   -3.8637    2.9206  N     
8    N       -18.6893   -5.9501    5.7251  N     
9    N       -20.8921   -5.0943    5.7004  N     
10   N       -21.6274   -3.6616    3.9972  N     
11   C       -20.7290   -9.6556    9.4531  C     
12   C       -15.3817   -7.8062    5.2811  C     
13   C       -14.3648   -6.6669    5.5387  C     
14   C       -15.1913   -5.4022    5.2311  C     
15   C       -16.0600   -5.9055    4.0590  C     
16   C       -16.0978   -8.3239    6.5561  C     
17   C       -18.3975   -5.2564    4.5911  C     
18   C       -17.5603   -4.3067    2.8302  C     
19   C       -17.2247  -10.2401    7.6946  C     
20   C       -19.3702   -4.4506    3.9980  C     
21   C       -17.8090   -9.7471    5.3230  C     
22   C       -16.6487   -3.8688    1.7622  C     
23   C       -18.2702   -9.3921    8.4935  C     
24   C       -20.6497   -4.3800    4.5608  C     
25   C       -19.9256   -5.8602    6.2818  C     
26   O       -21.0540   -8.6103    8.5163  O     
27   N       -21.3062   -9.0664    7.2538  N     
28   H       -12.6960   -6.0576    4.7793  H     
29   H       -13.5914   -4.5687    4.4845  H     
30   H       -18.8812  -10.4341   10.2966  H     
31   H       -19.4139  -11.1996    8.8131  H     
32   H       -16.0124  -10.2800    6.0756  H     
33   H       -21.4580   -3.1612    3.1821  H     
34   H       -22.5100   -3.6577    4.3911  H     
35   H       -21.4645  -10.4724    9.3635  H     
36   H       -20.8422   -9.2303   10.4558  H     
37   H       -14.8628   -8.6540    4.8212  H     
38   H       -13.9734   -6.6504    6.5594  H     
39   H       -15.8270   -5.1601    6.0912  H     
40   H       -15.4439   -5.8902    3.1542  H     
41   H       -16.8116   -7.5727    6.9001  H     
42   H       -15.3387   -8.4403    7.3349  H     
43   H       -17.6198  -11.2374    7.4783  H     
44   H       -16.3551  -10.4113    8.3446  H     
45   H       -18.5572   -8.9551    5.4210  H     
46   H       -18.3166  -10.7154    5.3462  H     
47   H       -17.3466   -9.6731    4.3387  H     
48   H       -15.7286   -3.4710    2.1969  H     
49   H       -17.1120   -3.0857    1.1597  H     
50   H       -16.4095   -4.7158    1.1151  H     
51   H       -18.8097   -8.7522    7.7991  H     
52   H       -17.7440   -8.7227    9.1773  H     
53   H       -20.1330   -6.3711    7.1404  H     
54   H       -20.8104   -9.9434    7.0501  H     
55   H       -20.9928   -8.3457    6.6014  H     
56   H       -22.3098   -9.2013    7.1315  H     
@<TRIPOS>BOND
     1    1   12 1
     2    1   15 1
     3   13    2 1
     4   14    3 1
     5    4   11 1
     6    4   23 1
     7   15    5 1
     8    5   17 1
     9    5   18 1
    10    6   16 1
    11    6   19 1
    12    6   21 1
    13    7   18 2
    14    7   20 1
    15    8   17 1
    16    8   25 2
    17    9   24 2
    18    9   25 1
    19   10   24 1
    20   11   26 1
    21   12   13 1
    22   12   16 1
    23   13   14 1
    24   14   15 1
    25   17   20 2
    26   18   22 1
    27   19   23 1
    28   20   24 1
    29   26   27 1
    30    2   28 1
    31    3   29 1
    32    4   30 1
    33    4   31 1
    34    6   32 1
    35   10   33 1
    36   10   34 1
    37   11   35 1
    38   11   36 1
    39   12   37 1
    40   13   38 1
    41   14   39 1
    42   15   40 1
    43   16   41 1
    44   16   42 1
    45   19   43 1
    46   19   44 1
    47   21   45 1
    48   21   46 1
    49   21   47 1
    50   22   48 1
    51   22   49 1
    52   22   50 1
    53   23   51 1
    54   23   52 1
    55   25   53 1
    56   27   54 1
    57   27   55 1
    58   27   56 1
@<TRIPOS>PROPERTY_DATA
  Total_Score	| 10.5106
  Crash		| -2.9796
  Polar		| 7.6513
  FragIndex	| 1
  FragRMSD	| 0.416

