@<TRIPOS>MOLECULE
BindingDB_28436
 52 54 0 0 0
SMALL
NO_CHARGES


@<TRIPOS>ATOM
1    O       -16.7500   -7.5150    4.8979  O     
2    O       -13.5045   -7.2083    4.4359  O     
3    O       -14.5351   -4.5711    4.5492  O     
4    C       -19.7620   -9.9445    9.2760  C     
5    N       -17.5204   -5.4079    3.9431  N     
6    N       -17.0371   -9.4167    7.2063  N     
7    N       -18.8699   -3.8701    3.0261  N     
8    N       -19.1553   -6.1844    5.6169  N     
9    N       -21.2224   -5.0469    5.5811  N     
10   N       -21.7084   -3.4034    4.0065  N     
11   C       -15.5356   -8.0458    5.4658  C     
12   C       -14.4732   -6.9152    5.4558  C     
13   C       -15.2987   -5.6542    5.0985  C     
14   C       -16.3926   -6.2874    4.2004  C     
15   C       -15.7754   -8.6598    6.8960  C     
16   C       -18.7040   -5.4211    4.5870  C     
17   C       -17.6518   -4.4540    2.9747  C     
18   C       -18.0778   -8.5390    7.8697  C     
19   C       -19.5361   -4.4554    4.0206  C     
20   C       -17.5221  -10.3151    6.1280  C     
21   C       -19.5168   -9.0521    8.1602  C     
22   C       -20.8352   -4.2755    4.5311  C     
23   C       -20.4094   -6.0026    6.1150  C     
24   N       -18.8145  -10.4399   10.0553  N     
25   O       -20.9437  -10.1751    9.5486  O     
26   C       -16.6629   -4.0658    1.9452  C     
27   N       -19.0321  -11.1629   11.0815  N     
28   H       -12.7070   -6.6753    4.6226  H     
29   H       -13.6016   -4.8662    4.5290  H     
30   H       -16.7548  -10.0628    7.9539  H     
31   H       -21.4556   -2.8558    3.2536  H     
32   H       -22.6107   -3.3824    4.3545  H     
33   H       -15.2069   -8.8672    4.8207  H     
34   H       -13.9471   -6.7756    6.4106  H     
35   H       -15.7847   -5.2818    6.0167  H     
36   H       -15.9489   -6.5490    3.2252  H     
37   H       -15.6410   -7.8277    7.6225  H     
38   H       -14.9437   -9.3509    7.0884  H     
39   H       -17.6704   -8.2240    8.8512  H     
40   H       -18.1693   -7.6159    7.2770  H     
41   H       -18.0074   -9.7378    5.3311  H     
42   H       -18.2102  -11.0351    6.5508  H     
43   H       -16.6849  -10.8783    5.7204  H     
44   H       -19.8924   -9.5387    7.2368  H     
45   H       -20.1428   -8.1603    8.3123  H     
46   H       -20.7451   -6.5795    6.8903  H     
47   H       -17.8956  -10.2235    9.8667  H     
48   H       -15.7500   -3.6714    2.4123  H     
49   H       -17.0770   -3.2839    1.2968  H     
50   H       -16.4062   -4.9304    1.3168  H     
51   H       -18.3242  -11.5138   11.5788  H     
52   H       -19.9125  -11.3592   11.3539  H     
@<TRIPOS>BOND
     1    1   11 1
     2    1   14 1
     3   12    2 1
     4   13    3 1
     5    4   21 1
     6    4   24 am
     7    4   25 2
     8   14    5 1
     9    5   16 1
    10    5   17 1
    11    6   15 1
    12    6   18 1
    13    6   20 1
    14    7   17 2
    15    7   19 1
    16    8   16 1
    17    8   23 2
    18    9   22 2
    19    9   23 1
    20   10   22 1
    21   11   12 1
    22   11   15 1
    23   12   13 1
    24   13   14 1
    25   16   19 2
    26   17   26 1
    27   18   21 1
    28   19   22 1
    29   24   27 1
    30    2   28 1
    31    3   29 1
    32    6   30 1
    33   10   31 1
    34   10   32 1
    35   11   33 1
    36   12   34 1
    37   13   35 1
    38   14   36 1
    39   15   37 1
    40   15   38 1
    41   18   39 1
    42   18   40 1
    43   20   41 1
    44   20   42 1
    45   20   43 1
    46   21   44 1
    47   21   45 1
    48   23   46 1
    49   24   47 1
    50   26   48 1
    51   26   49 1
    52   26   50 1
    53   27   51 1
    54   27   52 1
@<TRIPOS>PROPERTY_DATA
  Total_Score	| 9.6961
  Crash		| -2.5773
  Polar		| 6.7000
  FragIndex	| 1
  FragRMSD	| 0.401

