@<TRIPOS>MOLECULE
BindingDB_28438
 49 51 0 0 0
SMALL
NO_CHARGES


@<TRIPOS>ATOM
1    O       -16.5200   -7.4884    4.5115  O     
2    O       -13.4530   -7.0852    4.4604  O     
3    O       -14.4909   -4.4561    4.6214  O     
4    N       -16.7214  -10.7954   10.4960  N     
5    N       -17.4083   -5.3647    3.8351  N     
6    N       -16.8461   -9.5771    6.9529  N     
7    N       -18.8551   -3.8975    3.0163  N     
8    N       -18.8977   -6.2533    5.5970  N     
9    N       -21.0265   -5.2327    5.6578  N     
10   N       -21.6047   -3.5450    4.1362  N     
11   C       -15.5151   -7.9239    5.4404  C     
12   C       -14.4425   -6.8023    5.4651  C     
13   C       -15.2645   -5.5595    5.0924  C     
14   C       -16.2250   -6.1540    4.0446  C     
15   C       -16.1690   -8.2381    6.8228  C     
16   C       -18.5431   -5.4516    4.5596  C     
17   C       -17.6174   -4.4072    2.8891  C     
18   C       -17.4367   -9.8190    8.3224  C     
19   C       -19.4373   -4.5244    4.0395  C     
20   C       -17.7887   -9.9100    5.8475  C     
21   C       -16.4524  -10.3280    9.2867  C     
22   C       -20.7113   -4.4196    4.6140  C     
23   C       -20.1416   -6.1466    6.1445  C     
24   C       -16.7001   -3.9571    1.8272  C     
25   O       -15.2775  -10.4377    8.9623  O     
26   N       -17.8725  -10.8945   10.9952  N     
27   H       -12.5957   -7.0917    4.9181  H     
28   H       -13.5741   -4.8022    4.4606  H     
29   H       -15.9807  -11.1379   11.0106  H     
30   H       -16.0940  -10.2591    6.8542  H     
31   H       -21.3701   -2.9610    3.3949  H     
32   H       -22.5005   -3.5143    4.5087  H     
33   H       -15.0563   -8.8379    5.0717  H     
34   H       -13.9508   -6.6854    6.4416  H     
35   H       -15.8335   -5.2279    5.9623  H     
36   H       -15.7034   -6.2684    3.0870  H     
37   H       -16.8802   -7.4346    7.0673  H     
38   H       -15.3788   -8.2010    7.5821  H     
39   H       -17.8836   -8.9073    8.7284  H     
40   H       -18.2343  -10.5604    8.2652  H     
41   H       -18.6372   -9.2255    5.8252  H     
42   H       -18.1552  -10.9304    5.9683  H     
43   H       -17.2852   -9.8879    4.8760  H     
44   H       -20.4093   -6.7548    6.9177  H     
45   H       -15.7727   -3.5775    2.2596  H     
46   H       -17.1589   -3.1586    1.2397  H     
47   H       -16.4719   -4.7881    1.1571  H     
48   H       -17.9878  -11.3788   11.7834  H     
49   H       -18.6240  -10.5532   10.5510  H     
@<TRIPOS>BOND
     1    1   11 1
     2    1   14 1
     3   12    2 1
     4   13    3 1
     5    4   21 am
     6    4   26 1
     7   14    5 1
     8    5   16 1
     9    5   17 1
    10    6   15 1
    11    6   18 1
    12    6   20 1
    13    7   17 2
    14    7   19 1
    15    8   16 1
    16    8   23 2
    17    9   22 2
    18    9   23 1
    19   10   22 1
    20   11   12 1
    21   11   15 1
    22   12   13 1
    23   13   14 1
    24   16   19 2
    25   17   24 1
    26   18   21 1
    27   19   22 1
    28   21   25 2
    29    2   27 1
    30    3   28 1
    31    4   29 1
    32    6   30 1
    33   10   31 1
    34   10   32 1
    35   11   33 1
    36   12   34 1
    37   13   35 1
    38   14   36 1
    39   15   37 1
    40   15   38 1
    41   18   39 1
    42   18   40 1
    43   20   41 1
    44   20   42 1
    45   20   43 1
    46   23   44 1
    47   24   45 1
    48   24   46 1
    49   24   47 1
    50   26   48 1
    51   26   49 1
@<TRIPOS>PROPERTY_DATA
  Total_Score	| 10.0864
  Crash		| -2.3708
  Polar		| 6.9025
  FragIndex	| 1
  FragRMSD	| 0.326

