@<TRIPOS>MOLECULE
BindingDB_50330100
 45 48 0 0 0
SMALL
NO_CHARGES


@<TRIPOS>ATOM
1    C        75.1471  -10.5121   75.0853  C     
2    C        75.7964  -11.4753   75.8753  C     
3    N        76.3473  -12.5604   75.2827  N     
4    C        76.2835  -12.7744   73.9400  C     
5    C        75.6371  -11.8490   73.0802  C     
6    C        75.0595  -10.7119   73.6943  C     
7    C        75.6108  -12.0344   71.6723  C     
8    N        75.2548  -11.0915   70.7785  N     
9    N        75.4253  -11.5300   69.5679  N     
10   C        75.9012  -12.7983   69.5840  C     
11   C        76.0111  -13.1423   70.9275  C     
12   C        75.1834  -10.7762   68.4682  C     
13   C        76.2242  -10.0312   67.8758  C     
14   C        75.9952   -9.3333   66.6730  C     
15   C        74.7202   -9.3606   66.0554  C     
16   C        73.6736  -10.0662   66.6868  C     
17   C        73.9021  -10.7783   67.8813  C     
18   N        74.4366   -8.6971   64.8912  N     
19   C        75.2387   -8.4465   63.8616  C     
20   C        74.8618   -7.5569   62.8539  C     
21   O        76.3367   -8.9960   63.8091  O     
22   C        76.2788  -13.6431   68.4258  C     
23   F        76.6695  -14.9131   68.8008  F     
24   F        75.2217  -13.7626   67.5599  F     
25   F        77.3337  -13.0659   67.7591  F     
26   C        74.0543   -6.4217   63.1468  C     
27   C        73.7498   -5.4765   62.1500  C     
28   C        74.1852   -5.6744   60.8326  C     
29   C        74.9628   -6.8038   60.5079  C     
30   C        75.3198   -7.7199   61.5164  C     
31   H        74.7407   -9.6853   75.5246  H     
32   H        75.8791  -11.3591   76.8891  H     
33   H        76.7478  -13.6045   73.5705  H     
34   H        74.5814  -10.0056   73.1300  H     
35   H        76.3570  -14.0275   71.2910  H     
36   H        77.1589  -10.0078   68.3002  H     
37   H        76.7513   -8.7711   66.2784  H     
38   H        72.7414  -10.0882   66.2663  H     
39   H        73.1410  -11.3008   68.3149  H     
40   H        73.5164   -8.4066   64.8028  H     
41   H        73.7210   -6.2460   64.1002  H     
42   H        73.2176   -4.6409   62.3958  H     
43   H        73.9488   -4.9887   60.1175  H     
44   H        75.2887   -6.9379   59.5454  H     
45   H        75.8997   -8.5207   61.2507  H     
@<TRIPOS>BOND
     1    1    2 2
     2    1    6 1
     3    2    3 1
     4    3    4 2
     5    4    5 1
     6    5    6 2
     7    5    7 1
     8    7    8 2
     9    7   11 1
    10    8    9 1
    11    9   10 1
    12    9   12 1
    13   10   11 2
    14   10   22 1
    15   12   13 2
    16   12   17 1
    17   13   14 1
    18   14   15 2
    19   15   16 1
    20   15   18 1
    21   16   17 2
    22   18   19 am
    23   19   20 1
    24   19   21 2
    25   20   26 2
    26   20   30 1
    27   22   23 1
    28   22   24 1
    29   22   25 1
    30   26   27 1
    31   27   28 2
    32   28   29 1
    33   29   30 2
    34    1   31 1
    35    2   32 1
    36    4   33 1
    37    6   34 1
    38   11   35 1
    39   13   36 1
    40   14   37 1
    41   16   38 1
    42   17   39 1
    43   18   40 1
    44   26   41 1
    45   27   42 1
    46   28   43 1
    47   29   44 1
    48   30   45 1
@<TRIPOS>PROPERTY_DATA
  Total_Score	| 8.8135
  Crash		| -1.5254
  Polar		| 2.6514
  FragIndex	| 1
  FragRMSD	| 0.934

