@<TRIPOS>MOLECULE
BindingDB_50330107
 43 46 0 0 0
SMALL
NO_CHARGES


@<TRIPOS>ATOM
1    C        75.2161  -10.2543   74.9736  C     
2    C        75.6418  -11.2627   75.8552  C     
3    N        76.0914  -12.4366   75.3461  N     
4    C        76.1377  -12.6944   74.0162  C     
5    C        75.7311  -11.7157   73.0746  C     
6    C        75.2619  -10.4865   73.5888  C     
7    C        75.8154  -11.9442   71.6795  C     
8    N        75.6955  -11.0007   70.7276  N     
9    N        75.8239  -11.4877   69.5256  N     
10   C        75.9996  -12.8367   69.6289  C     
11   C        76.0344  -13.1273   70.9910  C     
12   C        76.0995  -13.8783   68.5797  C     
13   F        75.8428  -15.1566   69.0559  F     
14   F        75.2033  -13.6389   67.5717  F     
15   F        77.3692  -13.9012   68.0695  F     
16   C        75.7410  -10.6584   68.4316  C     
17   C        75.1632   -9.3733   68.5350  C     
18   N        75.0225   -8.5675   67.4560  N     
19   C        75.4265   -8.9517   66.2241  C     
20   N        76.0561  -10.1550   66.0900  N     
21   C        76.2499  -10.9929   67.1506  C     
22   N        75.1301   -8.1126   65.2011  N     
23   C        75.3965   -8.2318   63.9019  C     
24   C        74.9528   -7.2859   62.9578  C     
25   O        76.0800   -9.1786   63.5185  O     
26   C        74.1848   -6.1452   63.3255  C     
27   C        73.8250   -5.1607   62.3829  C     
28   C        74.1644   -5.3204   61.0308  C     
29   C        74.8669   -6.4677   60.6192  C     
30   C        75.2632   -7.4272   61.5768  C     
31   H        74.8890   -9.3569   75.3432  H     
32   H        75.6236  -11.1229   76.8626  H     
33   H        76.4884  -13.5963   73.7108  H     
34   H        74.9513   -9.7378   72.9603  H     
35   H        76.1674  -14.0506   71.4079  H     
36   H        74.8087   -9.0283   69.4322  H     
37   H        76.7764  -11.8645   66.9912  H     
38   H        74.6341   -7.3197   65.4627  H     
39   H        73.8828   -6.0026   64.2918  H     
40   H        73.3190   -4.3208   62.6779  H     
41   H        73.9017   -4.6093   60.3500  H     
42   H        75.1062   -6.5910   59.6336  H     
43   H        75.7917   -8.2339   61.2389  H     
@<TRIPOS>BOND
     1    1    2 2
     2    1    6 1
     3    2    3 1
     4    3    4 2
     5    4    5 1
     6    5    6 2
     7    5    7 1
     8    7    8 2
     9    7   11 1
    10    8    9 1
    11    9   10 1
    12    9   16 1
    13   10   11 2
    14   10   12 1
    15   12   13 1
    16   12   14 1
    17   12   15 1
    18   16   17 2
    19   16   21 1
    20   17   18 1
    21   18   19 2
    22   19   20 1
    23   19   22 1
    24   20   21 2
    25   22   23 am
    26   23   24 1
    27   23   25 2
    28   24   26 2
    29   24   30 1
    30   26   27 1
    31   27   28 2
    32   28   29 1
    33   29   30 2
    34    1   31 1
    35    2   32 1
    36    4   33 1
    37    6   34 1
    38   11   35 1
    39   17   36 1
    40   21   37 1
    41   22   38 1
    42   26   39 1
    43   27   40 1
    44   28   41 1
    45   29   42 1
    46   30   43 1
@<TRIPOS>PROPERTY_DATA
  Total_Score	| 5.3935
  Crash		| -1.5079
  Polar		| 1.0325
  FragIndex	| 1
  FragRMSD	| 1.398

