@<TRIPOS>MOLECULE
BindingDB_50330099
 44 47 0 0 0
SMALL
NO_CHARGES


@<TRIPOS>ATOM
1    C        75.1772  -10.2100   75.1754  C     
2    C        75.8051  -11.0912   76.0707  C     
3    N        76.3751  -12.2246   75.6076  N     
4    C        76.3729  -12.5489   74.2882  C     
5    C        75.7905  -11.6946   73.3215  C     
6    C        75.1869  -10.5070   73.7980  C     
7    C        75.8176  -11.9953   71.9358  C     
8    N        75.5775  -11.1337   70.9363  N     
9    N        75.6380  -11.7263   69.7714  N     
10   C        75.9177  -13.0503   69.9593  C     
11   C        76.0481  -13.2261   71.3317  C     
12   C        75.4424  -11.0104   68.6121  C     
13   C        76.2448  -11.2276   67.4613  C     
14   C        76.0495  -10.4862   66.2874  C     
15   C        75.0671   -9.4581   66.2130  C     
16   C        74.2865   -9.2157   67.3765  C     
17   C        74.4808   -9.9689   68.5540  C     
18   N        74.7795   -8.6850   65.1087  N     
19   C        75.4326   -8.5181   63.9563  C     
20   C        74.9689   -7.6662   62.9378  C     
21   O        76.4936   -9.1065   63.7555  O     
22   C        76.0138  -14.1598   68.9767  C     
23   F        75.8200  -15.3830   69.5620  F     
24   F        75.0446  -14.0354   68.0132  F     
25   F        77.2567  -14.2051   68.3920  F     
26   C        74.0217   -6.6388   63.1793  C     
27   C        73.5963   -5.7973   62.1304  C     
28   N        74.0780   -5.9730   60.8809  N     
29   C        74.9905   -6.9275   60.5925  C     
30   C        75.4546   -7.7875   61.6060  C     
31   H        74.7480   -9.3484   75.5206  H     
32   H        75.8497  -10.8699   77.0685  H     
33   H        76.8424  -13.4095   74.0150  H     
34   H        74.7443   -9.8463   73.1548  H     
35   H        76.2337  -14.1050   71.8188  H     
36   H        77.0047  -11.9147   67.4710  H     
37   H        76.6253  -10.7449   65.4908  H     
38   H        73.5702   -8.4843   67.3746  H     
39   H        73.8971   -9.7722   69.3763  H     
40   H        73.9405   -8.2023   65.1780  H     
41   H        73.6387   -6.4793   64.1151  H     
42   H        72.9225   -5.0470   62.2942  H     
43   H        75.3264   -7.0284   59.6321  H     
44   H        76.1325   -8.5075   61.3426  H     
@<TRIPOS>BOND
     1    1    2 2
     2    1    6 1
     3    2    3 1
     4    3    4 2
     5    4    5 1
     6    5    6 2
     7    5    7 1
     8    7    8 2
     9    7   11 1
    10    8    9 1
    11    9   10 1
    12    9   12 1
    13   10   11 2
    14   10   22 1
    15   12   13 2
    16   12   17 1
    17   13   14 1
    18   14   15 2
    19   15   16 1
    20   15   18 1
    21   16   17 2
    22   18   19 am
    23   19   20 1
    24   19   21 2
    25   20   26 2
    26   20   30 1
    27   22   23 1
    28   22   24 1
    29   22   25 1
    30   26   27 1
    31   27   28 2
    32   28   29 1
    33   29   30 2
    34    1   31 1
    35    2   32 1
    36    4   33 1
    37    6   34 1
    38   11   35 1
    39   13   36 1
    40   14   37 1
    41   16   38 1
    42   17   39 1
    43   18   40 1
    44   26   41 1
    45   27   42 1
    46   29   43 1
    47   30   44 1
@<TRIPOS>PROPERTY_DATA
  Total_Score	| 5.7395
  Crash		| -3.0316
  Polar		| 1.9302
  FragIndex	| 1
  FragRMSD	| 1.118

