@<TRIPOS>MOLECULE
BindingDB_50330097
 47 50 0 0 0
SMALL
NO_CHARGES


@<TRIPOS>ATOM
1    N        75.4423  -11.7978   69.3592  N     
2    C        75.2030  -11.0212   68.2895  C     
3    C        75.8628  -13.0841   69.4042  C     
4    N        75.3443  -11.3173   70.5586  N     
5    C        73.9006  -10.9304   67.7426  C     
6    C        76.2362  -10.2367   67.7279  C     
7    C        76.0207  -13.3900   70.7445  C     
8    C        76.1236  -13.9826   68.2569  C     
9    C        75.6824  -12.2475   71.4677  C     
10   C        73.6435  -10.1248   66.6292  C     
11   C        75.9757   -9.4218   66.6230  C     
12   C        77.6342  -14.2536   68.0532  C     
13   C        75.6968  -12.0123   72.8719  C     
14   C        74.6934   -9.3683   66.0293  C     
15   C        75.8077  -13.0734   73.8065  C     
16   C        75.6039  -10.6994   73.4007  C     
17   N        74.4087   -8.6329   64.9247  N     
18   C        75.7978  -12.8245   75.1916  C     
19   N        75.6017  -10.4781   74.7382  N     
20   C        75.2140   -8.2960   63.9128  C     
21   C        75.6922  -11.4961   75.6423  C     
22   C        74.8121   -7.4399   62.9014  C     
23   O        76.2840   -8.9068   63.8143  O     
24   C        75.3275   -7.5781   61.5828  C     
25   C        73.9231   -6.3517   63.1259  C     
26   C        74.9090   -6.7261   60.5476  C     
27   N        73.5412   -5.5421   62.1064  N     
28   C        73.9885   -5.7017   60.8378  C     
29   H        73.1298  -11.4687   68.1633  H     
30   H        77.1705  -10.2588   68.1321  H     
31   H        76.3496  -14.2933   71.1183  H     
32   H        75.6063  -14.9361   68.4007  H     
33   H        75.7423  -13.5406   67.3357  H     
34   H        72.6900  -10.0684   66.2532  H     
35   H        76.7158   -8.8411   66.2478  H     
36   H        78.1712  -13.3169   67.8837  H     
37   H        77.7791  -14.8938   67.1737  H     
38   H        78.0594  -14.7562   68.9225  H     
39   H        75.8668  -14.0421   73.4851  H     
40   H        75.5356   -9.8839   72.7828  H     
41   H        73.4792   -8.3518   64.8297  H     
42   H        75.8674  -13.5903   75.8617  H     
43   H        75.6913  -11.2802   76.6426  H     
44   H        75.9945   -8.3207   61.3579  H     
45   H        73.5640   -6.1370   64.0577  H     
46   H        75.2515   -6.8601   59.5918  H     
47   H        73.6729   -5.0689   60.1019  H     
@<TRIPOS>BOND
     1    1    2 1
     2    1    3 1
     3    1    4 1
     4    2    5 2
     5    2    6 1
     6    3    7 2
     7    3    8 1
     8    4    9 2
     9    5   10 1
    10    6   11 2
    11    7    9 1
    12    8   12 1
    13    9   13 1
    14   10   14 2
    15   11   14 1
    16   13   15 2
    17   13   16 1
    18   14   17 1
    19   15   18 1
    20   16   19 2
    21   17   20 am
    22   18   21 2
    23   19   21 1
    24   20   22 1
    25   20   23 2
    26   22   24 2
    27   22   25 1
    28   24   26 1
    29   25   27 2
    30   26   28 2
    31   27   28 1
    32    5   29 1
    33    6   30 1
    34    7   31 1
    35    8   32 1
    36    8   33 1
    37   10   34 1
    38   11   35 1
    39   12   36 1
    40   12   37 1
    41   12   38 1
    42   15   39 1
    43   16   40 1
    44   17   41 1
    45   18   42 1
    46   21   43 1
    47   24   44 1
    48   25   45 1
    49   26   46 1
    50   28   47 1
@<TRIPOS>PROPERTY_DATA
  Total_Score	| 9.6865
  Crash		| -1.1928
  Polar		| 2.4891
  FragIndex	| 1
  FragRMSD	| 0.133

