@<TRIPOS>MOLECULE
BindingDB_50330104
 44 47 0 0 0
SMALL
NO_CHARGES


@<TRIPOS>ATOM
1    C        76.5970  -12.4712   75.4747  C     
2    C        76.8403  -11.1452   75.8633  C     
3    N        76.7118  -10.1465   74.9564  N     
4    C        76.3663  -10.3686   73.6621  C     
5    C        76.1290  -11.6842   73.1966  C     
6    C        76.2359  -12.7338   74.1427  C     
7    C        75.7998  -11.9152   71.8343  C     
8    N        75.6165  -10.9659   70.9030  N     
9    N        75.2767  -11.4673   69.7512  N     
10   C        75.2155  -12.8244   69.8713  C     
11   C        75.5795  -13.1233   71.1786  C     
12   C        74.8234  -13.8680   68.8793  C     
13   F        74.8392  -15.1489   69.3870  F     
14   F        73.5352  -13.6420   68.4521  F     
15   F        75.6804  -13.8584   67.8032  F     
16   C        75.0623  -10.6768   68.6579  C     
17   N        74.6544  -11.2563   67.4924  N     
18   C        74.4179  -10.5844   66.3514  C     
19   C        74.6649   -9.1969   66.2841  C     
20   C        75.0483   -8.5336   67.4713  C     
21   C        75.2483   -9.2723   68.6573  C     
22   N        74.4540   -8.5158   65.1281  N     
23   C        75.2796   -8.4554   64.0855  C     
24   C        74.9799   -7.6885   62.9521  C     
25   O        76.3626   -9.0461   64.1447  O     
26   C        75.6197   -7.9312   61.7081  C     
27   C        75.3001   -7.1834   60.5572  C     
28   C        74.3311   -6.1713   60.6309  C     
29   C        73.7056   -5.8833   61.8514  C     
30   C        74.0291   -6.6291   62.9994  C     
31   H        76.6867  -13.2335   76.1491  H     
32   H        77.1128  -10.9268   76.8248  H     
33   H        76.2953   -9.5624   73.0402  H     
34   H        76.0545  -13.6995   73.8712  H     
35   H        75.6632  -14.0587   71.5879  H     
36   H        74.0860  -11.0949   65.5332  H     
37   H        75.2193   -7.5247   67.4648  H     
38   H        75.5366   -8.7741   69.5066  H     
39   H        73.5957   -8.0683   65.0497  H     
40   H        76.3310   -8.6641   61.6181  H     
41   H        75.7677   -7.3813   59.6722  H     
42   H        74.0757   -5.6463   59.7916  H     
43   H        73.0220   -5.1275   61.9108  H     
44   H        73.5789   -6.3615   63.8754  H     
@<TRIPOS>BOND
     1    1    2 2
     2    1    6 1
     3    2    3 1
     4    3    4 2
     5    4    5 1
     6    5    6 2
     7    5    7 1
     8    7    8 2
     9    7   11 1
    10    8    9 1
    11    9   10 1
    12    9   16 1
    13   10   11 2
    14   10   12 1
    15   12   13 1
    16   12   14 1
    17   12   15 1
    18   16   17 2
    19   16   21 1
    20   17   18 1
    21   18   19 2
    22   19   20 1
    23   19   22 1
    24   20   21 2
    25   22   23 am
    26   23   24 1
    27   23   25 2
    28   24   26 2
    29   24   30 1
    30   26   27 1
    31   27   28 2
    32   28   29 1
    33   29   30 2
    34    1   31 1
    35    2   32 1
    36    4   33 1
    37    6   34 1
    38   11   35 1
    39   18   36 1
    40   20   37 1
    41   21   38 1
    42   22   39 1
    43   26   40 1
    44   27   41 1
    45   28   42 1
    46   29   43 1
    47   30   44 1
@<TRIPOS>PROPERTY_DATA
  Total_Score	| 5.0168
  Crash		| -3.4936
  Polar		| 2.2056
  FragIndex	| 1
  FragRMSD	| 0.767

