@<TRIPOS>MOLECULE
BindingDB_50330103
 44 47 0 0 0
SMALL
NO_CHARGES


@<TRIPOS>ATOM
1    C        75.1301  -10.3127   74.8428  C     
2    C        75.6876  -11.2586   75.7278  C     
3    N        76.1588  -12.4330   75.2431  N     
4    C        76.1259  -12.7496   73.9233  C     
5    C        75.6034  -11.8346   72.9699  C     
6    C        75.0778  -10.6177   73.4680  C     
7    C        75.6370  -12.0696   71.5694  C     
8    N        75.3248  -11.1396   70.6426  N     
9    N        75.5233  -11.5960   69.4562  N     
10   C        75.9279  -12.8867   69.5053  C     
11   C        76.0066  -13.2071   70.8576  C     
12   C        76.2181  -13.8093   68.3692  C     
13   F        76.4833  -15.0947   68.7825  F     
14   F        75.1363  -13.8580   67.5120  F     
15   F        77.3262  -13.3675   67.6768  F     
16   C        75.2602  -10.8434   68.3451  C     
17   C        76.2931  -10.2473   67.5937  C     
18   N        76.0137   -9.5844   66.4425  N     
19   C        74.7352   -9.4207   65.9840  C     
20   C        73.6557   -9.9137   66.7558  C     
21   C        73.9306  -10.6197   67.9348  C     
22   N        74.4634   -8.8029   64.8153  N     
23   C        75.3054   -8.4311   63.8633  C     
24   C        74.8842   -7.5658   62.8868  C     
25   O        76.4888   -8.7637   63.9049  O     
26   C        74.0793   -6.4270   63.2073  C     
27   C        73.7390   -5.4854   62.2213  C     
28   C        74.1550   -5.6807   60.8845  C     
29   C        74.9505   -6.7957   60.5446  C     
30   C        75.3237   -7.7228   61.5289  C     
31   H        74.7623   -9.4244   75.1848  H     
32   H        75.7355  -11.0547   76.7291  H     
33   H        76.5071  -13.6606   73.6221  H     
34   H        74.6949   -9.9106   72.8321  H     
35   H        76.3090  -14.1094   71.2485  H     
36   H        77.2668  -10.3312   67.8893  H     
37   H        72.6901   -9.7959   66.4558  H     
38   H        73.1604  -11.0183   68.4771  H     
39   H        73.5302   -8.6413   64.6369  H     
40   H        73.7725   -6.2518   64.1778  H     
41   H        73.1955   -4.6601   62.4818  H     
42   H        73.9133   -4.9890   60.1835  H     
43   H        75.2730   -6.9309   59.5761  H     
44   H        75.9399   -8.5055   61.2772  H     
@<TRIPOS>BOND
     1    1    2 2
     2    1    6 1
     3    2    3 1
     4    3    4 2
     5    4    5 1
     6    5    6 2
     7    5    7 1
     8    7    8 2
     9    7   11 1
    10    8    9 1
    11    9   10 1
    12    9   16 1
    13   10   11 2
    14   10   12 1
    15   12   13 1
    16   12   14 1
    17   12   15 1
    18   16   17 2
    19   16   21 1
    20   17   18 1
    21   18   19 2
    22   19   20 1
    23   19   22 1
    24   20   21 2
    25   22   23 am
    26   23   24 1
    27   23   25 2
    28   24   26 2
    29   24   30 1
    30   26   27 1
    31   27   28 2
    32   28   29 1
    33   29   30 2
    34    1   31 1
    35    2   32 1
    36    4   33 1
    37    6   34 1
    38   11   35 1
    39   17   36 1
    40   20   37 1
    41   21   38 1
    42   22   39 1
    43   26   40 1
    44   27   41 1
    45   28   42 1
    46   29   43 1
    47   30   44 1
@<TRIPOS>PROPERTY_DATA
  Total_Score	| 8.2486
  Crash		| -1.3969
  Polar		| 2.3963
  FragIndex	| 1
  FragRMSD	| 0.963

