@<TRIPOS>MOLECULE
BindingDB_50330101
 44 47 0 0 0
SMALL
NO_CHARGES


@<TRIPOS>ATOM
1    C        78.1061   -4.3572   54.0621  C     
2    C        77.2081   -5.2362   53.4445  C     
3    N        76.3117   -5.9275   54.1909  N     
4    C        76.2342   -5.8094   55.5366  C     
5    C        77.0948   -4.9259   56.2248  C     
6    C        78.0380   -4.2035   55.4565  C     
7    C        76.9910   -4.7630   57.6254  C     
8    N        76.4559   -5.6569   58.4781  N     
9    N        76.4814   -5.2028   59.6922  N     
10   C        77.0350   -3.9677   59.7121  C     
11   C        77.3804   -3.6764   58.3974  C     
12   C        76.1988   -6.0088   60.7473  C     
13   C        74.8988   -6.4683   61.0374  C     
14   C        74.6719   -7.3268   62.1294  C     
15   C        75.7517   -7.7839   62.9221  C     
16   C        77.0550   -7.3188   62.6035  C     
17   C        77.2755   -6.4417   61.5417  C     
18   C        77.2465   -3.0847   60.8945  C     
19   F        77.5110   -1.7879   60.5474  F     
20   F        76.1285   -3.0655   61.6896  F     
21   F        78.2976   -3.5270   61.6530  F     
22   C        75.5954   -8.6453   64.0048  C     
23   N        74.5952   -8.5869   64.8777  N     
24   O        76.4537   -9.5041   64.1628  O     
25   C        74.5827   -9.1804   66.1184  C     
26   C        73.4643   -9.9434   66.5168  C     
27   C        73.4554  -10.5628   67.7829  C     
28   N        74.5087  -10.4047   68.6277  N     
29   C        75.5904   -9.6526   68.2983  C     
30   C        75.6460   -9.0198   67.0465  C     
31   H        78.7934   -3.8426   53.5065  H     
32   H        77.2242   -5.3539   52.4368  H     
33   H        75.5301   -6.3621   56.0285  H     
34   H        78.6924   -3.5573   55.9041  H     
35   H        77.8297   -2.8189   58.0681  H     
36   H        74.1053   -6.1716   60.4702  H     
37   H        73.7128   -7.6243   62.3240  H     
38   H        77.8714   -7.6135   63.1452  H     
39   H        78.2333   -6.1314   61.3484  H     
40   H        73.8146   -8.0623   64.6410  H     
41   H        72.6711  -10.0752   65.8829  H     
42   H        72.6679  -11.1437   68.0690  H     
43   H        76.3629   -9.5438   68.9585  H     
44   H        76.4564   -8.4369   66.8333  H     
@<TRIPOS>BOND
     1    1    2 2
     2    1    6 1
     3    2    3 1
     4    3    4 2
     5    4    5 1
     6    5    6 2
     7    5    7 1
     8    7    8 2
     9    7   11 1
    10    8    9 1
    11    9   10 1
    12    9   12 1
    13   10   11 2
    14   10   18 1
    15   12   13 2
    16   12   17 1
    17   13   14 1
    18   14   15 2
    19   15   16 1
    20   15   22 1
    21   16   17 2
    22   18   19 1
    23   18   20 1
    24   18   21 1
    25   22   23 am
    26   22   24 2
    27   23   25 1
    28   25   26 2
    29   25   30 1
    30   26   27 1
    31   27   28 2
    32   28   29 1
    33   29   30 2
    34    1   31 1
    35    2   32 1
    36    4   33 1
    37    6   34 1
    38   11   35 1
    39   13   36 1
    40   14   37 1
    41   16   38 1
    42   17   39 1
    43   23   40 1
    44   26   41 1
    45   27   42 1
    46   29   43 1
    47   30   44 1
@<TRIPOS>PROPERTY_DATA
  Total_Score	| 5.1673
  Crash		| -1.8895
  Polar		| 1.9993
  FragIndex	| 1
  FragRMSD	| 1.391

