@<TRIPOS>MOLECULE
BindingDB_50330106
 43 46 0 0 0
SMALL
NO_CHARGES


@<TRIPOS>ATOM
1    C        75.7210  -12.5334   75.2366  C     
2    C        75.5861  -11.1959   75.6452  C     
3    N        75.5187  -10.2152   74.7125  N     
4    C        75.5780  -10.4650   73.3787  C     
5    C        75.7218  -11.7878   72.8925  C     
6    C        75.7829  -12.8220   73.8590  C     
7    C        75.7987  -12.0397   71.4930  C     
8    N        75.7012  -11.1125   70.5257  N     
9    N        75.8246  -11.6095   69.3242  N     
10   C        76.0265  -12.9565   69.4553  C     
11   C        76.0049  -13.2348   70.8207  C     
12   C        76.2744  -14.0140   68.4386  C     
13   F        76.5222  -15.2545   68.9781  F     
14   F        75.1776  -14.1632   67.6290  F     
15   F        77.3848  -13.6987   67.6935  F     
16   C        75.7733  -10.7347   68.2402  C     
17   C        75.8161  -11.0729   66.8667  C     
18   N        75.7976  -10.0992   65.9189  N     
19   C        75.7212   -8.7696   66.2037  C     
20   C        75.6578   -8.4114   67.5625  C     
21   N        75.6896   -9.3932   68.4947  N     
22   N        75.6851   -7.7888   65.2629  N     
23   C        75.7922   -7.9065   63.9448  C     
24   C        75.7446   -6.7655   63.1669  C     
25   O        76.0362   -8.9644   63.3815  O     
26   C        76.8942   -6.3585   62.4521  C     
27   C        76.8581   -5.2062   61.6460  C     
28   C        75.6643   -4.4695   61.5295  C     
29   C        74.5112   -4.8761   62.2215  C     
30   C        74.5487   -6.0191   63.0465  C     
31   H        75.7717  -13.2831   75.9302  H     
32   H        75.5388  -10.9581   76.6377  H     
33   H        75.5205   -9.6686   72.7408  H     
34   H        75.8699  -13.7998   73.5780  H     
35   H        76.1392  -14.1520   71.2541  H     
36   H        75.8650  -12.0307   66.5453  H     
37   H        75.6097   -7.4371   67.8555  H     
38   H        75.5868   -6.8879   65.6001  H     
39   H        77.7677   -6.8891   62.5223  H     
40   H        77.7018   -4.9062   61.1540  H     
41   H        75.6415   -3.6345   60.9453  H     
42   H        73.6418   -4.3441   62.1289  H     
43   H        73.6950   -6.3119   63.5301  H     
@<TRIPOS>BOND
     1    1    2 2
     2    1    6 1
     3    2    3 1
     4    3    4 2
     5    4    5 1
     6    5    6 2
     7    5    7 1
     8    7    8 2
     9    7   11 1
    10    8    9 1
    11    9   10 1
    12    9   16 1
    13   10   11 2
    14   10   12 1
    15   12   13 1
    16   12   14 1
    17   12   15 1
    18   16   17 2
    19   16   21 1
    20   17   18 1
    21   18   19 2
    22   19   20 1
    23   19   22 1
    24   20   21 2
    25   22   23 am
    26   23   24 1
    27   23   25 2
    28   24   26 2
    29   24   30 1
    30   26   27 1
    31   27   28 2
    32   28   29 1
    33   29   30 2
    34    1   31 1
    35    2   32 1
    36    4   33 1
    37    6   34 1
    38   11   35 1
    39   17   36 1
    40   20   37 1
    41   22   38 1
    42   26   39 1
    43   27   40 1
    44   28   41 1
    45   29   42 1
    46   30   43 1
@<TRIPOS>PROPERTY_DATA
  Total_Score	| 5.3608
  Crash		| -0.7783
  Polar		| 0.7726
  FragIndex	| 1
  FragRMSD	| 0.624

