@<TRIPOS>MOLECULE
BindingDB_50330102
 47 50 0 0 0
SMALL
NO_CHARGES


@<TRIPOS>ATOM
1    C        75.1864  -10.4967   74.9357  C     
2    C        75.8898  -11.3860   75.7579  C     
3    N        76.5128  -12.4502   75.1962  N     
4    C        76.4979  -12.6963   73.8663  C     
5    C        75.8162  -11.8334   72.9750  C     
6    C        75.1439  -10.7271   73.5486  C     
7    C        75.8185  -12.0429   71.5661  C     
8    N        75.4611  -11.1293   70.6433  N     
9    N        75.6059  -11.6165   69.4448  N     
10   C        76.0713  -12.8881   69.5063  C     
11   C        76.2057  -13.1797   70.8597  C     
12   C        75.3325  -10.8814   68.3329  C     
13   C        76.3470  -10.1170   67.7158  C     
14   C        76.0537   -9.3190   66.5936  C     
15   C        74.7532   -9.2989   66.0378  C     
16   C        73.7350  -10.0533   66.6793  C     
17   C        74.0211  -10.8371   67.8117  C     
18   C        76.4296  -13.7834   68.3780  C     
19   F        76.9335  -14.9962   68.7906  F     
20   F        75.3226  -14.0352   67.6043  F     
21   F        77.3885  -13.1758   67.6026  F     
22   C        74.4317   -8.4518   64.8543  C     
23   N        75.4806   -8.3262   63.8897  N     
24   C        76.4184   -7.3807   63.8536  C     
25   O        76.5028   -6.6120   64.8030  O     
26   C        77.2592   -7.1959   62.7448  C     
27   C        77.1376   -7.9859   61.5709  C     
28   C        77.9604   -7.7417   60.4564  C     
29   N        78.8718   -6.7387   60.5027  N     
30   C        79.0408   -5.9548   61.5962  C     
31   C        78.2551   -6.1746   62.7399  C     
32   H        74.7043   -9.6892   75.3425  H     
33   H        75.9374  -11.2417   76.7670  H     
34   H        77.0100  -13.5115   73.5297  H     
35   H        74.6180  -10.0742   72.9606  H     
36   H        76.5429  -14.0593   71.2578  H     
37   H        77.3008  -10.1321   68.0876  H     
38   H        76.7914   -8.7388   66.1914  H     
39   H        72.7712  -10.0269   66.3291  H     
40   H        73.2692  -11.3611   68.2666  H     
41   H        73.5904   -8.8924   64.3036  H     
42   H        74.0837   -7.4668   65.1984  H     
43   H        75.4122   -8.9153   63.1188  H     
44   H        76.4404   -8.7323   61.4952  H     
45   H        77.8657   -8.3038   59.6059  H     
46   H        79.7383   -5.2045   61.5755  H     
47   H        78.4048   -5.5697   63.5495  H     
@<TRIPOS>BOND
     1    1    2 2
     2    1    6 1
     3    2    3 1
     4    3    4 2
     5    4    5 1
     6    5    6 2
     7    5    7 1
     8    7    8 2
     9    7   11 1
    10    8    9 1
    11    9   10 1
    12    9   12 1
    13   10   11 2
    14   10   18 1
    15   12   13 2
    16   12   17 1
    17   13   14 1
    18   14   15 2
    19   15   16 1
    20   15   22 1
    21   16   17 2
    22   18   19 1
    23   18   20 1
    24   18   21 1
    25   22   23 1
    26   23   24 am
    27   24   25 2
    28   24   26 1
    29   26   27 2
    30   26   31 1
    31   27   28 1
    32   28   29 2
    33   29   30 1
    34   30   31 2
    35    1   32 1
    36    2   33 1
    37    4   34 1
    38    6   35 1
    39   11   36 1
    40   13   37 1
    41   14   38 1
    42   16   39 1
    43   17   40 1
    44   22   41 1
    45   22   42 1
    46   23   43 1
    47   27   44 1
    48   28   45 1
    49   30   46 1
    50   31   47 1
@<TRIPOS>PROPERTY_DATA
  Total_Score	| 7.2505
  Crash		| -1.2554
  Polar		| 0.0005
  FragIndex	| 1
  FragRMSD	| 1.109

