@<TRIPOS>MOLECULE
BindingDB_50330098
 44 47 0 0 0
SMALL
NO_CHARGES


@<TRIPOS>ATOM
1    C        75.1720  -10.3760   74.9986  C     
2    C        75.8319  -11.2920   75.8374  C     
3    N        76.4010  -12.3974   75.2864  N     
4    C        76.3754  -12.6564   73.9555  C     
5    C        75.7158  -11.7823   73.0562  C     
6    C        75.0978  -10.6307   73.6213  C     
7    C        75.6884  -12.0320   71.6642  C     
8    N        75.3109  -11.1289   70.7327  N     
9    N        75.4631  -11.6119   69.5411  N     
10   C        75.9325  -12.8766   69.6044  C     
11   C        76.1099  -13.1484   70.9537  C     
12   C        75.2195  -10.8678   68.4409  C     
13   C        76.2564  -10.1042   67.8545  C     
14   C        76.0164   -9.3536   66.6967  C     
15   C        74.7232   -9.3241   66.1064  C     
16   C        73.6752  -10.0634   66.7172  C     
17   C        73.9101  -10.8184   67.8801  C     
18   N        74.4348   -8.6010   64.9892  N     
19   C        75.2333   -8.2717   63.9621  C     
20   C        74.8056   -7.4727   62.9120  C     
21   O        76.3200   -8.8589   63.8711  O     
22   C        76.2387  -13.7956   68.4747  C     
23   F        76.5753  -15.0624   68.8914  F     
24   F        75.1345  -13.9043   67.6624  F     
25   F        77.2868  -13.3058   67.7328  F     
26   C        73.8829   -6.4079   63.1259  C     
27   N        73.5249   -5.5805   62.1104  N     
28   C        73.9769   -5.7315   60.8425  C     
29   C        74.8803   -6.7713   60.5485  C     
30   C        75.2926   -7.6339   61.5848  C     
31   H        74.7379   -9.5436   75.3955  H     
32   H        75.8788  -11.1442   76.8429  H     
33   H        76.8513  -13.5001   73.6243  H     
34   H        74.6020   -9.9620   73.0190  H     
35   H        76.4584  -14.0246   71.3499  H     
36   H        77.1933  -10.0924   68.2785  H     
37   H        76.7626   -8.7695   66.3131  H     
38   H        72.7374  -10.0676   66.2940  H     
39   H        73.1419  -11.3511   68.3067  H     
40   H        73.5097   -8.2971   64.9144  H     
41   H        73.5050   -6.1988   64.0528  H     
42   H        73.6641   -5.0853   60.1129  H     
43   H        75.2434   -6.8815   59.5897  H     
44   H        75.9331   -8.3983   61.3402  H     
@<TRIPOS>BOND
     1    1    2 2
     2    1    6 1
     3    2    3 1
     4    3    4 2
     5    4    5 1
     6    5    6 2
     7    5    7 1
     8    7    8 2
     9    7   11 1
    10    8    9 1
    11    9   10 1
    12    9   12 1
    13   10   11 2
    14   10   22 1
    15   12   13 2
    16   12   17 1
    17   13   14 1
    18   14   15 2
    19   15   16 1
    20   15   18 1
    21   16   17 2
    22   18   19 am
    23   19   20 1
    24   19   21 2
    25   20   26 2
    26   20   30 1
    27   22   23 1
    28   22   24 1
    29   22   25 1
    30   26   27 1
    31   27   28 2
    32   28   29 1
    33   29   30 2
    34    1   31 1
    35    2   32 1
    36    4   33 1
    37    6   34 1
    38   11   35 1
    39   13   36 1
    40   14   37 1
    41   16   38 1
    42   17   39 1
    43   18   40 1
    44   26   41 1
    45   28   42 1
    46   29   43 1
    47   30   44 1
@<TRIPOS>PROPERTY_DATA
  Total_Score	| 8.8791
  Crash		| -1.0695
  Polar		| 2.4552
  FragIndex	| 1
  FragRMSD	| 0.912

