@<TRIPOS>MOLECULE
BindingDB_50337278
 26 27 0 0 0
SMALL
NO_CHARGES


@<TRIPOS>ATOM
1    C        -5.4427   22.5848   24.2586  C     
2    C        -5.2359   22.3469   25.6302  C     
3    C        -5.3298   23.4070   26.5439  C     
4    C        -5.6241   24.7059   26.0941  C     
5    C        -5.8298   24.9695   24.7224  C     
6    C        -5.7543   23.8893   23.8073  C     
7    N        -6.0003   26.2674   24.3649  N     
8    C        -6.1263   26.7953   23.1223  C     
9    C        -7.4137   26.8255   22.5513  C     
10   C        -7.6332   27.4439   21.3091  C     
11   C        -6.5566   28.0223   20.6199  C     
12   C        -5.2742   28.0201   21.1909  C     
13   C        -5.0297   27.4244   22.4570  C     
14   C        -3.7166   27.4865   23.0130  C     
15   O        -3.4191   27.0490   24.2550  O     
16   O        -2.6902   28.0733   22.3520  O     
17   H        -5.3660   21.8123   23.5949  H     
18   H        -4.9947   21.4053   25.9524  H     
19   H        -5.1913   23.2298   27.5435  H     
20   H        -5.6725   25.4651   26.7773  H     
21   H        -5.8881   24.0476   22.8118  H     
22   H        -5.9061   26.9154   25.0897  H     
23   H        -8.2092   26.4298   23.0523  H     
24   H        -8.5787   27.4902   20.9212  H     
25   H        -6.7160   28.4647   19.7107  H     
26   H        -4.5263   28.4947   20.6791  H     
@<TRIPOS>BOND
     1    1    2 2
     2    1    6 1
     3    2    3 1
     4    3    4 2
     5    4    5 1
     6    5    6 2
     7    5    7 1
     8    7    8 1
     9    8    9 2
    10    8   13 1
    11    9   10 1
    12   10   11 2
    13   11   12 1
    14   12   13 2
    15   13   14 1
    16   14   15 1
    17   14   16 2
    18    1   17 1
    19    2   18 1
    20    3   19 1
    21    4   20 1
    22    6   21 1
    23    7   22 1
    24    9   23 1
    25   10   24 1
    26   11   25 1
    27   12   26 1
@<TRIPOS>PROPERTY_DATA
  Total_Score	| 3.3121
  Crash		| -0.7334
  Polar		| 1.4999
  FragIndex	| 1
  FragRMSD	| 1.062

