@<TRIPOS>MOLECULE
BindingDB_50337280
 26 27 0 0 0
SMALL
NO_CHARGES


@<TRIPOS>ATOM
1    C        -5.7597   23.0774   24.5320  C     
2    C        -5.4652   22.9393   25.9114  C     
3    C        -5.3429   24.1092   26.6970  C     
4    C        -5.4952   25.3797   26.1248  C     
5    C        -5.7879   25.5189   24.7536  C     
6    C        -5.9240   24.3516   23.9615  C     
7    N        -5.8611   26.7856   24.2763  N     
8    C        -6.1471   27.1485   23.0105  C     
9    C        -5.1222   27.6950   22.2108  C     
10   C        -5.4040   28.1101   20.8962  C     
11   C        -6.7157   28.0212   20.3966  C     
12   C        -7.7498   27.5209   21.2092  C     
13   C        -7.4638   27.0667   22.5089  C     
14   C        -5.3183   21.6616   26.5121  C     
15   O        -5.1085   21.5184   27.8428  O     
16   O        -5.4189   20.5306   25.7758  O     
17   H        -5.8387   22.2546   23.9270  H     
18   H        -5.1323   24.0493   27.6937  H     
19   H        -5.3983   26.2056   26.7196  H     
20   H        -6.1233   24.4173   22.9581  H     
21   H        -5.6077   27.5017   24.8802  H     
22   H        -4.1687   27.7839   22.5769  H     
23   H        -4.6533   28.4757   20.3090  H     
24   H        -6.9232   28.3301   19.4446  H     
25   H        -8.7082   27.4677   20.8561  H     
26   H        -8.2158   26.6980   23.0932  H     
@<TRIPOS>BOND
     1    1    2 2
     2    1    6 1
     3    2    3 1
     4    2   14 1
     5    3    4 2
     6    4    5 1
     7    5    6 2
     8    5    7 1
     9    7    8 1
    10    8    9 2
    11    8   13 1
    12    9   10 1
    13   10   11 2
    14   11   12 1
    15   12   13 2
    16   14   15 1
    17   14   16 2
    18    1   17 1
    19    3   18 1
    20    4   19 1
    21    6   20 1
    22    7   21 1
    23    9   22 1
    24   10   23 1
    25   11   24 1
    26   12   25 1
    27   13   26 1
@<TRIPOS>PROPERTY_DATA
  Total_Score	| 2.6730
  Crash		| -0.9754
  Polar		| 0.4945
  FragIndex	| 1
  FragRMSD	| 1.186

