@<TRIPOS>MOLECULE
BindingDB_50337285
 26 27 0 0 0
SMALL
NO_CHARGES


@<TRIPOS>ATOM
1    C        -5.0809   27.8645   21.8397  C     
2    C        -6.0946   28.5997   21.1866  C     
3    C        -7.4316   28.1662   21.2288  C     
4    C        -7.7715   26.9920   21.9249  C     
5    C        -6.7829   26.2319   22.5948  C     
6    C        -5.4414   26.7069   22.5746  C     
7    N        -7.2386   25.1086   23.2267  N     
8    C        -6.5800   24.1925   24.0068  C     
9    C        -5.2291   23.8087   23.8258  C     
10   C        -4.6237   22.9039   24.7120  C     
11   C        -5.3643   22.3304   25.7682  C     
12   C        -6.7348   22.6177   25.8868  C     
13   C        -7.3363   23.5207   24.9940  C     
14   C        -3.7338   28.2690   21.7600  C     
15   O        -2.7161   27.3977   21.9864  O     
16   O        -3.3881   29.5424   21.4413  O     
17   Br       -4.5592   21.1573   26.9705  Br    
18   H        -5.8719   29.4474   20.6517  H     
19   H        -8.1633   28.7055   20.7519  H     
20   H        -8.7521   26.7063   21.9627  H     
21   H        -4.7176   26.2219   23.1088  H     
22   H        -8.2018   25.0021   23.2073  H     
23   H        -4.6912   24.1397   23.0242  H     
24   H        -3.6463   22.6402   24.5597  H     
25   H        -7.2855   22.1856   26.6301  H     
26   H        -8.3402   23.7066   25.0896  H     
@<TRIPOS>BOND
     1    1    2 2
     2    1    6 1
     3    1   14 1
     4    2    3 1
     5    3    4 2
     6    4    5 1
     7    5    6 2
     8    5    7 1
     9    7    8 1
    10    8    9 2
    11    8   13 1
    12    9   10 1
    13   10   11 2
    14   11   12 1
    15   11   17 1
    16   12   13 2
    17   14   15 2
    18   14   16 1
    19    2   18 1
    20    3   19 1
    21    4   20 1
    22    6   21 1
    23    7   22 1
    24    9   23 1
    25   10   24 1
    26   12   25 1
    27   13   26 1
@<TRIPOS>PROPERTY_DATA
  Total_Score	| 5.7323
  Crash		| -1.3510
  Polar		| 2.8874
  FragIndex	| 1
  FragRMSD	| 1.192

