@<TRIPOS>MOLECULE
BindingDB_50337284
 26 27 0 0 0
SMALL
NO_CHARGES


@<TRIPOS>ATOM
1    C        -5.1032   27.8531   21.8302  C     
2    C        -6.1385   28.5704   21.1912  C     
3    C        -7.4732   28.1445   21.2960  C     
4    C        -7.7857   26.9818   22.0175  C     
5    C        -6.7805   26.2162   22.6478  C     
6    C        -5.4483   26.6931   22.5555  C     
7    N        -7.2070   25.0955   23.2975  N     
8    C        -6.5488   24.1517   24.0517  C     
9    C        -5.2041   23.7629   23.8565  C     
10   C        -4.5793   22.8352   24.7058  C     
11   C        -5.3148   22.2015   25.7176  C     
12   C        -6.6775   22.5075   25.8738  C     
13   C        -7.2963   23.4501   25.0281  C     
14   C        -3.7521   28.2781   21.7453  C     
15   O        -3.4531   29.5296   21.3249  O     
16   O        -2.7176   27.4655   22.0768  O     
17   Cl       -4.5612   21.0844   26.7354  Cl    
18   H        -5.9457   29.4374   20.6779  H     
19   H        -8.2160   28.6789   20.8419  H     
20   H        -8.7743   26.7174   22.0962  H     
21   H        -4.7184   26.2134   23.0522  H     
22   H        -8.1723   24.9812   23.2575  H     
23   H        -4.6560   24.1364   23.0826  H     
24   H        -3.6038   22.5909   24.5454  H     
25   H        -7.2318   22.0083   26.5702  H     
26   H        -8.2887   23.6631   25.1714  H     
@<TRIPOS>BOND
     1    1    2 2
     2    1    6 1
     3    1   14 1
     4    2    3 1
     5    3    4 2
     6    4    5 1
     7    5    6 2
     8    5    7 1
     9    7    8 1
    10    8    9 2
    11    8   13 1
    12    9   10 1
    13   10   11 2
    14   11   12 1
    15   11   17 1
    16   12   13 2
    17   14   15 2
    18   14   16 1
    19    2   18 1
    20    3   19 1
    21    4   20 1
    22    6   21 1
    23    7   22 1
    24    9   23 1
    25   10   24 1
    26   12   25 1
    27   13   26 1
@<TRIPOS>PROPERTY_DATA
  Total_Score	| 5.4576
  Crash		| -1.0668
  Polar		| 2.7465
  FragIndex	| 1
  FragRMSD	| 0.882

