@<TRIPOS>MOLECULE
BindingDB_50337279
 26 27 0 0 0
SMALL
NO_CHARGES


@<TRIPOS>ATOM
1    C        -5.0556   27.8721   21.9300  C     
2    C        -6.0660   28.6077   21.2732  C     
3    C        -7.4096   28.2045   21.3462  C     
4    C        -7.7566   27.0377   22.0494  C     
5    C        -6.7758   26.2649   22.7071  C     
6    C        -5.4322   26.7269   22.6727  C     
7    N        -7.2262   25.1436   23.3354  N     
8    C        -6.5442   24.1686   24.0068  C     
9    C        -5.2041   23.8246   23.7277  C     
10   C        -4.5287   22.8686   24.5038  C     
11   C        -5.2176   22.1691   25.5092  C     
12   C        -6.5818   22.4263   25.7346  C     
13   C        -7.2430   23.4143   24.9782  C     
14   C        -3.6958   28.2560   21.8199  C     
15   O        -2.6907   27.4406   22.1956  O     
16   O        -3.3385   29.4725   21.3566  O     
17   H        -5.8369   29.4331   20.7127  H     
18   H        -8.1321   28.7474   20.8737  H     
19   H        -8.7379   26.7552   22.0781  H     
20   H        -4.7172   26.2283   23.2044  H     
21   H        -8.1873   25.0326   23.3337  H     
22   H        -4.7071   24.2791   22.9553  H     
23   H        -3.5499   22.6653   24.3081  H     
24   H        -4.7436   21.4397   26.0450  H     
25   H        -7.0938   21.8917   26.4391  H     
26   H        -8.2334   23.5892   25.1532  H     
@<TRIPOS>BOND
     1    1    2 2
     2    1    6 1
     3    1   14 1
     4    2    3 1
     5    3    4 2
     6    4    5 1
     7    5    6 2
     8    5    7 1
     9    7    8 1
    10    8    9 2
    11    8   13 1
    12    9   10 1
    13   10   11 2
    14   11   12 1
    15   12   13 2
    16   14   15 2
    17   14   16 1
    18    2   17 1
    19    3   18 1
    20    4   19 1
    21    6   20 1
    22    7   21 1
    23    9   22 1
    24   10   23 1
    25   11   24 1
    26   12   25 1
    27   13   26 1
@<TRIPOS>PROPERTY_DATA
  Total_Score	| 5.5365
  Crash		| -0.8637
  Polar		| 2.7294
  FragIndex	| 1
  FragRMSD	| 1.221

