@<TRIPOS>MOLECULE
BindingDB_50337287
 30 31 0 0 0
SMALL
NO_CHARGES


@<TRIPOS>ATOM
1    C        -5.0877   27.8391   21.9053  C     
2    C        -6.1173   28.6438   21.3676  C     
3    C        -7.4619   28.2509   21.4670  C     
4    C        -7.7990   27.0439   22.1003  C     
5    C        -6.8035   26.2199   22.6674  C     
6    C        -5.4550   26.6423   22.5721  C     
7    N        -7.2496   25.1054   23.3128  N     
8    C        -6.5757   24.1387   24.0057  C     
9    C        -7.2429   23.5321   25.0910  C     
10   C        -6.5995   22.5620   25.8928  C     
11   C        -5.2840   22.1508   25.5912  C     
12   C        -4.6496   22.6937   24.4581  C     
13   C        -5.2888   23.6696   23.6676  C     
14   C        -3.7230   28.2144   21.7794  C     
15   O        -2.7119   27.3650   22.0849  O     
16   O        -3.3534   29.4394   21.3443  O     
17   O        -4.6411   21.1461   26.2712  O     
18   C        -4.5135   21.3343   27.6871  C     
19   H        -5.8966   29.5220   20.8889  H     
20   H        -8.1939   28.8435   21.0757  H     
21   H        -8.7862   26.7859   22.1659  H     
22   H        -4.7267   26.0813   23.0228  H     
23   H        -8.2172   25.0218   23.3548  H     
24   H        -8.2113   23.7796   25.2988  H     
25   H        -7.0984   22.1370   26.6801  H     
26   H        -3.7184   22.3756   24.1910  H     
27   H        -4.8181   24.0249   22.8329  H     
28   H        -4.0368   22.2898   27.9377  H     
29   H        -3.8944   20.5201   28.0818  H     
30   H        -5.4907   21.2715   28.1684  H     
@<TRIPOS>BOND
     1    1    2 2
     2    1    6 1
     3    1   14 1
     4    2    3 1
     5    3    4 2
     6    4    5 1
     7    5    6 2
     8    5    7 1
     9    7    8 1
    10    8    9 2
    11    8   13 1
    12    9   10 1
    13   10   11 2
    14   11   12 1
    15   11   17 1
    16   12   13 2
    17   14   15 2
    18   14   16 1
    19   17   18 1
    20    2   19 1
    21    3   20 1
    22    4   21 1
    23    6   22 1
    24    7   23 1
    25    9   24 1
    26   10   25 1
    27   12   26 1
    28   13   27 1
    29   18   28 1
    30   18   29 1
    31   18   30 1
@<TRIPOS>PROPERTY_DATA
  Total_Score	| 6.1647
  Crash		| -1.3966
  Polar		| 2.8818
  FragIndex	| 1
  FragRMSD	| 1.261

