@<TRIPOS>MOLECULE
BindingDB_50337288
 29 30 0 0 0
SMALL
NO_CHARGES


@<TRIPOS>ATOM
1    C        -5.0377   27.7474   21.9155  C     
2    C        -6.0552   28.4840   21.2624  C     
3    C        -7.3967   28.0690   21.3355  C     
4    C        -7.7417   26.9360   22.0876  C     
5    C        -6.7579   26.2164   22.7977  C     
6    C        -5.4050   26.6112   22.6811  C     
7    N        -7.1951   25.1511   23.5231  N     
8    C        -6.5293   24.3809   24.4394  C     
9    C        -6.7325   22.9890   24.4229  C     
10   C        -6.0826   22.1608   25.3515  C     
11   C        -5.2254   22.7056   26.3305  C     
12   C        -5.0696   24.1093   26.3809  C     
13   C        -5.7156   24.9432   25.4482  C     
14   C        -3.6842   28.1370   21.7917  C     
15   O        -3.3312   29.3845   21.3860  O     
16   O        -2.6620   27.3272   22.1693  O     
17   C        -4.5220   21.8114   27.2866  C     
18   H        -5.8313   29.3174   20.7085  H     
19   H        -8.1217   28.5971   20.8416  H     
20   H        -8.7263   26.6574   22.1371  H     
21   H        -4.6874   26.0568   23.1381  H     
22   H        -8.1041   24.8680   23.3407  H     
23   H        -7.3591   22.5700   23.7307  H     
24   H        -6.2444   21.1491   25.3145  H     
25   H        -4.4808   24.5354   27.1065  H     
26   H        -5.6177   25.9563   25.5330  H     
27   H        -5.2534   21.2279   27.8459  H     
28   H        -3.9151   22.3724   27.9972  H     
29   H        -3.8666   21.1314   26.7411  H     
@<TRIPOS>BOND
     1    1    2 2
     2    1    6 1
     3    1   14 1
     4    2    3 1
     5    3    4 2
     6    4    5 1
     7    5    6 2
     8    5    7 1
     9    7    8 1
    10    8    9 2
    11    8   13 1
    12    9   10 1
    13   10   11 2
    14   11   12 1
    15   11   17 1
    16   12   13 2
    17   14   15 2
    18   14   16 1
    19    2   18 1
    20    3   19 1
    21    4   20 1
    22    6   21 1
    23    7   22 1
    24    9   23 1
    25   10   24 1
    26   12   25 1
    27   13   26 1
    28   17   27 1
    29   17   28 1
    30   17   29 1
@<TRIPOS>PROPERTY_DATA
  Total_Score	| 6.4175
  Crash		| -0.4377
  Polar		| 2.8960
  FragIndex	| 1
  FragRMSD	| 0.184

