@<TRIPOS>MOLECULE
BindingDB_50337281
 28 29 0 0 0
SMALL
NO_CHARGES


@<TRIPOS>ATOM
1    C        -4.9792   27.7035   21.9426  C     
2    C        -5.9891   28.4093   21.2427  C     
3    C        -7.3253   27.9939   21.3173  C     
4    C        -7.6755   26.8777   22.0980  C     
5    C        -6.6883   26.1964   22.8457  C     
6    C        -5.3401   26.5933   22.7426  C     
7    N        -7.1247   25.1604   23.6143  N     
8    C        -6.4524   24.4298   24.5697  C     
9    C        -5.8002   25.0400   25.6613  C     
10   C        -5.1620   24.2447   26.6385  C     
11   C        -5.1138   22.8288   26.5210  C     
12   C        -5.7939   22.2488   25.4239  C     
13   C        -6.4759   23.0283   24.4835  C     
14   C        -3.6173   28.1021   21.8142  C     
15   O        -3.2774   29.3524   21.3775  O     
16   O        -2.5940   27.3265   22.2657  O     
17   N        -4.4115   22.0509   27.4010  N     
18   O        -4.2909   20.8589   27.2620  O     
19   O        -3.8132   22.5456   28.4521  O     
20   H        -5.7567   29.2244   20.6522  H     
21   H        -8.0477   28.4949   20.7855  H     
22   H        -8.6640   26.5915   22.1365  H     
23   H        -4.6313   26.0644   23.2240  H     
24   H        -8.0334   24.8456   23.4276  H     
25   H        -5.7993   26.0564   25.7713  H     
26   H        -4.7122   24.7062   27.4335  H     
27   H        -5.8054   21.2274   25.3020  H     
28   H        -6.9701   22.5652   23.7060  H     
@<TRIPOS>BOND
     1    1    2 2
     2    1    6 1
     3    1   14 1
     4    2    3 1
     5    3    4 2
     6    4    5 1
     7    5    6 2
     8    5    7 1
     9    7    8 1
    10    8    9 2
    11    8   13 1
    12    9   10 1
    13   10   11 2
    14   11   12 1
    15   11   17 am
    16   12   13 2
    17   14   15 2
    18   14   16 1
    19   17   18 2
    20   17   19 1
    21    2   20 1
    22    3   21 1
    23    4   22 1
    24    6   23 1
    25    7   24 1
    26    9   25 1
    27   10   26 1
    28   12   27 1
    29   13   28 1
@<TRIPOS>PROPERTY_DATA
  Total_Score	| 5.1521
  Crash		| -0.7159
  Polar		| 2.8316
  FragIndex	| 1
  FragRMSD	| 0.195

