@<TRIPOS>MOLECULE
BindingDB_50337286
 38 39 0 0 0
SMALL
NO_CHARGES


@<TRIPOS>ATOM
1    C        -5.0008   27.8731   21.7530  C     
2    C        -5.9636   28.5742   20.9812  C     
3    C        -7.3122   28.1829   20.9976  C     
4    C        -7.7206   27.0930   21.7855  C     
5    C        -6.7892   26.4016   22.5961  C     
6    C        -5.4290   26.7804   22.5450  C     
7    N        -7.2798   25.3913   23.3570  N     
8    C        -6.7109   24.7153   24.3965  C     
9    C        -5.8371   25.3027   25.3437  C     
10   C        -5.3818   24.5654   26.4640  C     
11   C        -5.8023   23.2274   26.6863  C     
12   C        -6.7040   22.6696   25.7387  C     
13   C        -7.1585   23.3985   24.6267  C     
14   C        -3.6390   28.2589   21.7237  C     
15   O        -3.2743   29.5108   21.3603  O     
16   O        -2.6566   27.4590   22.2154  O     
17   C        -5.3035   22.3877   27.8523  C     
18   C        -4.5655   21.1318   27.2707  C     
19   C        -4.2994   23.1203   28.8087  C     
20   C        -6.5151   21.9706   28.7553  C     
21   H        -5.6849   29.3585   20.3836  H     
22   H        -7.9994   28.6978   20.4463  H     
23   H        -8.7130   26.8204   21.7849  H     
24   H        -4.7445   26.2437   23.0886  H     
25   H        -8.1842   25.1132   23.1410  H     
26   H        -5.5382   26.2818   25.2297  H     
27   H        -4.7494   25.0301   27.1260  H     
28   H        -7.0527   21.7159   25.8430  H     
29   H        -7.8190   22.9634   23.9761  H     
30   H        -5.2216   20.5282   26.6457  H     
31   H        -4.1902   20.4918   28.0699  H     
32   H        -3.7208   21.4393   26.6510  H     
33   H        -3.4324   23.4645   28.2570  H     
34   H        -3.9439   22.4489   29.6106  H     
35   H        -4.7678   23.9830   29.2834  H     
36   H        -6.9824   22.8513   29.2101  H     
37   H        -6.1869   21.3049   29.5613  H     
38   H        -7.2864   21.4515   28.1886  H     
@<TRIPOS>BOND
     1    1    2 2
     2    1    6 1
     3    1   14 1
     4    2    3 1
     5    3    4 2
     6    4    5 1
     7    5    6 2
     8    5    7 1
     9    7    8 1
    10    8    9 2
    11    8   13 1
    12    9   10 1
    13   10   11 2
    14   11   12 1
    15   11   17 1
    16   12   13 2
    17   14   15 2
    18   14   16 1
    19   17   18 1
    20   17   19 1
    21   17   20 1
    22    2   21 1
    23    3   22 1
    24    4   23 1
    25    6   24 1
    26    7   25 1
    27    9   26 1
    28   10   27 1
    29   12   28 1
    30   13   29 1
    31   18   30 1
    32   18   31 1
    33   18   32 1
    34   19   33 1
    35   19   34 1
    36   19   35 1
    37   20   36 1
    38   20   37 1
    39   20   38 1
@<TRIPOS>PROPERTY_DATA
  Total_Score	| 5.3161
  Crash		| -2.6540
  Polar		| 2.7093
  FragIndex	| 1
  FragRMSD	| 0.410

