@<TRIPOS>MOLECULE
BindingDB_50337283
 29 30 0 0 0
SMALL
NO_CHARGES


@<TRIPOS>ATOM
1    C        -5.0296   27.7362   21.8817  C     
2    C        -6.0323   28.4480   21.1849  C     
3    C        -7.3687   28.0333   21.2399  C     
4    C        -7.7217   26.9135   22.0149  C     
5    C        -6.7478   26.2192   22.7619  C     
6    C        -5.3956   26.6162   22.6668  C     
7    N        -7.2023   25.1775   23.5107  N     
8    C        -6.5592   24.4426   24.4714  C     
9    C        -6.7735   23.0576   24.5259  C     
10   C        -6.1709   22.2731   25.5175  C     
11   C        -5.3436   22.8561   26.5030  C     
12   C        -5.1739   24.2638   26.4737  C     
13   C        -5.7661   25.0537   25.4692  C     
14   C        -3.6727   28.1395   21.7788  C     
15   O        -3.3219   29.3972   21.3975  O     
16   O        -2.6495   27.3335   22.1647  O     
17   C        -4.6781   21.9771   27.5247  C     
18   F        -3.8439   22.6407   28.3837  F     
19   F        -5.6302   21.3646   28.2933  F     
20   F        -3.9298   21.0072   26.9054  F     
21   H        -5.7963   29.2688   20.6089  H     
22   H        -8.0867   28.5394   20.7226  H     
23   H        -8.7095   26.6318   22.0560  H     
24   H        -4.6963   26.0646   23.1596  H     
25   H        -8.1111   24.8856   23.3196  H     
26   H        -7.3837   22.6077   23.8220  H     
27   H        -6.3413   21.2636   25.5144  H     
28   H        -4.6062   24.7210   27.2010  H     
29   H        -5.6396   26.0656   25.4915  H     
@<TRIPOS>BOND
     1    1    2 2
     2    1    6 1
     3    1   14 1
     4    2    3 1
     5    3    4 2
     6    4    5 1
     7    5    6 2
     8    5    7 1
     9    7    8 1
    10    8    9 2
    11    8   13 1
    12    9   10 1
    13   10   11 2
    14   11   12 1
    15   11   17 1
    16   12   13 2
    17   14   15 2
    18   14   16 1
    19   17   18 1
    20   17   19 1
    21   17   20 1
    22    2   21 1
    23    3   22 1
    24    4   23 1
    25    6   24 1
    26    7   25 1
    27    9   26 1
    28   10   27 1
    29   12   28 1
    30   13   29 1
@<TRIPOS>PROPERTY_DATA
  Total_Score	| 6.4850
  Crash		| -0.5107
  Polar		| 2.9039
  FragIndex	| 1
  FragRMSD	| 0.115

