@<TRIPOS>MOLECULE
BindingDB_50337282
 31 32 0 0 0
SMALL
NO_CHARGES


@<TRIPOS>ATOM
1    C        -5.0560   27.7666   21.8867  C     
2    C        -6.0972   28.4402   21.2066  C     
3    C        -7.4240   27.9852   21.2945  C     
4    C        -7.7319   26.8597   22.0779  C     
5    C        -6.7250   26.1904   22.8056  C     
6    C        -5.3877   26.6424   22.6814  C     
7    N        -7.1148   25.1307   23.5629  N     
8    C        -6.4284   24.4730   24.5430  C     
9    C        -5.6886   25.1532   25.5342  C     
10   C        -5.0811   24.4484   26.5888  C     
11   C        -5.1911   23.0373   26.6984  C     
12   C        -5.9497   22.3698   25.6994  C     
13   C        -6.5762   23.0766   24.6553  C     
14   C        -3.7124   28.1971   21.7583  C     
15   O        -3.4045   29.4453   21.3396  O     
16   O        -2.6708   27.3917   22.0618  O     
17   C        -4.6035   22.3234   27.7596  C     
18   O        -4.2898   21.1471   27.6013  O     
19   C        -4.3711   22.8789   29.0851  C     
20   H        -5.8990   29.2553   20.6201  H     
21   H        -8.1667   28.4731   20.7873  H     
22   H        -8.7060   26.5493   22.1360  H     
23   H        -4.6441   26.1345   23.1645  H     
24   H        -8.0168   24.8095   23.4016  H     
25   H        -5.6139   26.1728   25.5130  H     
26   H        -4.5582   24.9918   27.2790  H     
27   H        -6.0800   21.3550   25.7341  H     
28   H        -7.1390   22.5633   23.9718  H     
29   H        -3.6434   23.6919   29.0294  H     
30   H        -3.9824   22.1317   29.7827  H     
31   H        -5.3074   23.2649   29.4948  H     
@<TRIPOS>BOND
     1    1    2 2
     2    1    6 1
     3    1   14 1
     4    2    3 1
     5    3    4 2
     6    4    5 1
     7    5    6 2
     8    5    7 1
     9    7    8 1
    10    8    9 2
    11    8   13 1
    12    9   10 1
    13   10   11 2
    14   11   12 1
    15   11   17 1
    16   12   13 2
    17   14   15 2
    18   14   16 1
    19   17   18 2
    20   17   19 1
    21    2   20 1
    22    3   21 1
    23    4   22 1
    24    6   23 1
    25    7   24 1
    26    9   25 1
    27   10   26 1
    28   12   27 1
    29   13   28 1
    30   19   29 1
    31   19   30 1
    32   19   31 1
@<TRIPOS>PROPERTY_DATA
  Total_Score	| 6.2171
  Crash		| -0.4094
  Polar		| 2.8961
  FragIndex	| 1
  FragRMSD	| 0.180

