@<TRIPOS>MOLECULE
BindingDB_50239833
 25 26 0 0 0
SMALL
NO_CHARGES


@<TRIPOS>ATOM
1    C        44.6293   15.0493    2.0994  C     
2    C        45.7368   14.6967    2.9271  C     
3    C        46.1869   13.3516    2.8860  C     
4    C        43.9669   14.0738    1.3328  C     
5    C        44.4057   12.7380    1.3251  C     
6    C        45.5508   12.3793    2.0882  C     
7    C        46.0158   11.0571    2.0092  C     
8    C        45.3795   10.1449    1.2382  C     
9    C        44.2395   10.4929    0.5453  C     
10   C        43.7615   11.7521    0.5725  C     
11   C        46.4169   15.6800    3.8473  C     
12   P        45.5818   15.8731    5.2886  P     
13   O        45.7432   14.6492    6.2198  O     
14   O        44.1585   16.0689    5.1414  O     
15   O        46.1215   17.0564    6.1247  O     
16   F        47.7031   15.3123    4.1828  F     
17   F        46.6174   16.9030    3.2465  F     
18   Br       43.9370   16.7748    1.9422  Br    
19   C        45.8458    8.9577    1.1404  C     
20   N        46.2785    7.8984    1.0476  N     
21   H        46.9802   13.0647    3.4659  H     
22   H        43.1549   14.3429    0.7701  H     
23   H        46.8447   10.8105    2.5050  H     
24   H        43.7468    9.8149    0.0030  H     
25   H        42.9441   11.9755    0.0495  H     
@<TRIPOS>BOND
     1    1    2 2
     2    1    4 1
     3    1   18 1
     4    2    3 1
     5    2   11 1
     6    3    6 2
     7    4    5 2
     8    5    6 1
     9    5   10 1
    10    6    7 1
    11    7    8 2
    12    8    9 1
    13    8   19 1
    14    9   10 2
    15   11   12 1
    16   11   16 1
    17   11   17 1
    18   12   13 1
    19   12   14 2
    20   12   15 1
    21   19   20 3
    22    3   21 1
    23    4   22 1
    24    7   23 1
    25    9   24 1
    26   10   25 1
@<TRIPOS>PROPERTY_DATA
  Total_Score	| 9.6603
  Crash		| -0.8325
  Polar		| 5.6925
  FragIndex	| 1
  FragRMSD	| 0.838

