@<TRIPOS>MOLECULE
BindingDB_50070001
 24 25 0 0 0
SMALL
NO_CHARGES


@<TRIPOS>ATOM
1    C        46.2884   15.4426    3.8081  C     
2    P        45.6095   15.7650    5.3080  P     
3    C        45.3835   14.7095    2.8807  C     
4    C        45.5215   13.3504    2.4338  C     
5    O        46.2483   16.9677    6.0348  O     
6    O        44.0991   16.0540    5.2457  O     
7    O        45.7533   14.6639    6.2237  O     
8    F        47.5010   14.8337    4.0303  F     
9    F        46.6803   16.6543    3.2788  F     
10   C        44.5516   12.8402    1.5009  C     
11   C        44.3288   15.4235    2.3936  C     
12   C        46.5354   12.4367    2.8320  C     
13   C        43.4232   14.9169    1.5204  C     
14   C        43.5232   13.6649    1.0699  C     
15   C        44.6103   11.5203    1.0136  C     
16   C        46.6038   11.1235    2.3197  C     
17   C        45.6383   10.6559    1.4169  C     
18   H        44.2003   16.3777    2.6573  H     
19   H        47.2405   12.7052    3.5178  H     
20   H        42.6710   15.4934    1.2106  H     
21   H        42.8436   13.3338    0.4221  H     
22   H        43.9059   11.1579    0.3607  H     
23   H        47.3536   10.4934    2.6106  H     
24   H        45.6786    9.6966    1.0641  H     
@<TRIPOS>BOND
     1    1    2 1
     2    1    3 1
     3    1    8 1
     4    1    9 1
     5    2    5 1
     6    2    6 1
     7    2    7 2
     8    3    4 1
     9    3   11 2
    10    4   10 1
    11    4   12 2
    12   10   14 1
    13   10   15 2
    14   11   13 1
    15   12   16 1
    16   13   14 2
    17   15   17 1
    18   16   17 2
    19   11   18 1
    20   12   19 1
    21   13   20 1
    22   14   21 1
    23   15   22 1
    24   16   23 1
    25   17   24 1
@<TRIPOS>PROPERTY_DATA
  Total_Score	| 8.6890
  Crash		| -1.2373
  Polar		| 5.5054
  FragIndex	| 1
  FragRMSD	| 1.363

