@<TRIPOS>MOLECULE
BindingDB_50070003
 30 31 0 0 0
SMALL
NO_CHARGES


@<TRIPOS>ATOM
1    P        44.1308    8.6310   -1.5468  P     
2    C        43.6557   10.1900   -1.1794  C     
3    C        46.3541   15.6502    3.9673  C     
4    P        45.5455   15.8812    5.4052  P     
5    C        45.6289   14.7127    3.0487  C     
6    C        44.1236   10.8960    0.0408  C     
7    C        45.9833   13.3438    2.9310  C     
8    C        43.7019   12.1738    0.2391  C     
9    O        45.5673    8.3195   -1.0813  O     
10   C        44.2755   13.0051    1.2069  C     
11   C        45.3199   12.4880    2.0197  C     
12   O        43.2190    7.6592   -1.0007  O     
13   O        44.1371   16.1228    5.2364  O     
14   C        44.5483   15.1864    2.2638  C     
15   C        45.0614   10.3827    0.9287  C     
16   F        42.2801   10.1381   -1.1851  F     
17   F        44.0306   10.9474   -2.2679  F     
18   F        47.6258   15.2200    4.2679  F     
19   F        46.5444   16.8740    3.3647  F     
20   O        44.1072    8.4154   -3.0749  O     
21   O        45.6844   14.6574    6.3287  O     
22   O        46.1224   17.0732    6.1900  O     
23   C        45.6616   11.1415    1.8699  C     
24   C        43.8820   14.3505    1.3537  C     
25   H        46.7411   12.9666    3.5067  H     
26   H        43.0188   12.5677   -0.3691  H     
27   H        44.2461   16.1613    2.3362  H     
28   H        45.3139    9.4252    0.8919  H     
29   H        46.3445   10.7307    2.4650  H     
30   H        43.1233   14.7382    0.7857  H     
@<TRIPOS>BOND
     1    1    2 1
     2    1    9 1
     3    1   12 2
     4    1   20 1
     5    2    6 1
     6    2   16 1
     7    2   17 1
     8    3    4 1
     9    3    5 1
    10    3   18 1
    11    3   19 1
    12    4   13 2
    13    4   21 1
    14    4   22 1
    15    5    7 1
    16    5   14 2
    17    6    8 2
    18    6   15 1
    19    7   11 2
    20    8   10 1
    21   10   11 1
    22   10   24 2
    23   11   23 1
    24   14   24 1
    25   15   23 2
    26    7   25 1
    27    8   26 1
    28   14   27 1
    29   15   28 1
    30   23   29 1
    31   24   30 1
@<TRIPOS>PROPERTY_DATA
  Total_Score	| 10.2055
  Crash		| -1.0596
  Polar		| 7.1613
  FragIndex	| 1
  FragRMSD	| 0.851

