@<TRIPOS>MOLECULE
BindingDB_50075312
 24 25 0 0 0
SMALL
NO_CHARGES


@<TRIPOS>ATOM
1    C        46.4019   15.6028    3.9224  C     
2    P        45.6103   15.8406    5.3750  P     
3    C        45.7249   14.5990    3.0589  C     
4    C        46.1883   13.3379    2.9250  C     
5    O        45.7585   14.7326    6.2723  O     
6    C        45.5367   12.3905    2.1141  C     
7    C        44.5589   14.9515    2.3779  C     
8    F        47.7110   15.2802    4.2232  F     
9    F        46.5077   16.8102    3.2587  F     
10   O        46.1684   17.0546    6.1332  O     
11   O        44.1007   16.0478    5.2239  O     
12   C        44.3538   12.7867    1.4261  C     
13   C        43.8931   14.0921    1.5891  C     
14   C        46.0305   11.0821    1.9585  C     
15   C        43.6876   11.8559    0.5933  C     
16   C        45.3573   10.1608    1.1278  C     
17   C        44.1916   10.5503    0.4506  C     
18   H        47.0019   13.0506    3.4234  H     
19   H        44.1886   15.8715    2.4809  H     
20   H        43.0657   14.3977    1.1264  H     
21   H        46.8829   10.7820    2.4362  H     
22   H        42.8449   12.1242    0.0832  H     
23   H        45.7274    9.2114    1.0161  H     
24   H        43.7056    9.8791   -0.1537  H     
@<TRIPOS>BOND
     1    1    2 1
     2    1    3 1
     3    1    8 1
     4    1    9 1
     5    2    5 2
     6    2   10 1
     7    2   11 1
     8    3    4 2
     9    3    7 1
    10    4    6 1
    11    6   12 1
    12    6   14 2
    13    7   13 2
    14   12   13 1
    15   12   15 2
    16   14   16 1
    17   15   17 1
    18   16   17 2
    19    4   18 1
    20    7   19 1
    21   13   20 1
    22   14   21 1
    23   15   22 1
    24   16   23 1
    25   17   24 1
@<TRIPOS>PROPERTY_DATA
  Total_Score	| 9.4545
  Crash		| -0.6000
  Polar		| 5.6482
  FragIndex	| 1
  FragRMSD	| 0.822

