@<TRIPOS>MOLECULE
BindingDB_33280
 38 37 0 0 0
SMALL
NO_CHARGES


@<TRIPOS>ATOM
1    S        -5.5622    1.6191   15.9719  S     
2    O        -5.2570    2.7137   14.7092  O     
3    N        -6.9104    2.0121   16.8985  N     
4    O        -5.7650    0.0675   15.3450  O     
5    O        -4.2053    1.4820   16.9824  O     
6    C        -6.0725    3.8411   14.3466  C     
7    C        -5.1996    5.0462   13.9475  C     
8    C        -4.0364    5.3767   14.9196  C     
9    C        -2.8174    6.0408   14.2334  C     
10   C        -2.8782    7.5816   14.0941  C     
11   C        -1.6109    8.2229   13.4648  C     
12   C        -0.4744    8.5643   14.4648  C     
13   C        -0.6102    9.9814   15.1282  C     
14   C         0.7476   10.7286   15.2300  C     
15   C         0.6959   12.0105   16.0898  C     
16   H        -7.1900    1.4233   17.6009  H     
17   H        -7.4934    2.7090   16.5898  H     
18   H        -6.6579    3.5263   13.4848  H     
19   H        -6.7637    4.1264   15.1451  H     
20   H        -4.7848    4.8148   12.9583  H     
21   H        -5.8385    5.9213   13.8353  H     
22   H        -4.4135    6.0335   15.7277  H     
23   H        -3.6830    4.4624   15.4054  H     
24   H        -1.9292    5.7784   14.8064  H     
25   H        -2.6848    5.6046   13.2351  H     
26   H        -3.7174    7.8564   13.4508  H     
27   H        -3.0724    8.0361   15.0760  H     
28   H        -1.2044    7.5478   12.7073  H     
29   H        -1.8972    9.1392   12.9458  H     
30   H        -0.4536    7.8149   15.2851  H     
31   H         0.4962    8.4559   13.9498  H     
32   H        -1.2937   10.6094   14.5644  H     
33   H        -1.0321    9.8716   16.1261  H     
34   H         1.5355   10.0581   15.6371  H     
35   H         1.0597   11.0215   14.2124  H     
36   H        -0.0695   12.7011   15.7090  H     
37   H         1.6602   12.5140   16.0608  H     
38   H         0.4589   11.7640   17.1365  H     
@<TRIPOS>BOND
     1    1    2 1
     2    1    3 am
     3    1    4 2
     4    1    5 2
     5    2    6 1
     6    6    7 1
     7    7    8 1
     8    8    9 1
     9    9   10 1
    10   10   11 1
    11   11   12 1
    12   12   13 1
    13   13   14 1
    14   14   15 1
    15    3   16 1
    16    3   17 1
    17    6   18 1
    18    6   19 1
    19    7   20 1
    20    7   21 1
    21    8   22 1
    22    8   23 1
    23    9   24 1
    24    9   25 1
    25   10   26 1
    26   10   27 1
    27   11   28 1
    28   11   29 1
    29   12   30 1
    30   12   31 1
    31   13   32 1
    32   13   33 1
    33   14   34 1
    34   14   35 1
    35   15   36 1
    36   15   37 1
    37   15   38 1
@<TRIPOS>PROPERTY_DATA
  Total_Score	| 6.6758
  Crash		| -0.7659
  Polar		| 3.3024
  FragIndex	| 1
  FragRMSD	| 1.218

