@<TRIPOS>MOLECULE
BindingDB_33281
 38 37 0 0 0
SMALL
NO_CHARGES


@<TRIPOS>ATOM
1    S        -5.4060    1.7173   15.8150  S     
2    O        -4.9372    2.5552   14.4151  O     
3    N        -6.6999    2.4366   16.6035  N     
4    O        -5.9041    0.1711   15.3529  O     
5    O        -4.0936    1.4697   16.8487  O     
6    C        -5.6555    3.6131   13.7755  C     
7    C        -5.7091    4.9232   14.5976  C     
8    C        -4.3433    5.5154   15.0384  C     
9    C        -3.5866    6.2949   13.9327  C     
10   C        -2.4948    7.2401   14.5078  C     
11   C        -1.7713    8.0446   13.3965  C     
12   C        -0.5298    8.8457   13.8795  C     
13   C        -0.8123    9.9876   14.8973  C     
14   O        -0.3637   11.2562   14.4064  O     
15   S        -1.3295   12.6276   14.1646  S     
16   N        -1.0014   13.7750   15.3467  N     
17   O        -0.8768   13.3169   12.6896  O     
18   O        -2.9820   12.2763   14.1398  O     
19   H        -6.7598    2.3915   17.5719  H     
20   H        -7.3404    2.9680   16.1033  H     
21   H        -5.1750    3.8120   12.8181  H     
22   H        -6.6735    3.2754   13.5732  H     
23   H        -6.2470    5.6768   14.0135  H     
24   H        -6.2985    4.7313   15.4951  H     
25   H        -4.5407    6.2038   15.8653  H     
26   H        -3.7058    4.7143   15.4233  H     
27   H        -3.1251    5.5821   13.2411  H     
28   H        -4.3067    6.8972   13.3710  H     
29   H        -2.9622    7.9428   15.2031  H     
30   H        -1.7619    6.6479   15.0658  H     
31   H        -1.4417    7.3430   12.6212  H     
32   H        -2.4795    8.7407   12.9344  H     
33   H         0.1813    8.1363   14.3194  H     
34   H        -0.0456    9.2666   12.9937  H     
35   H        -1.8699   10.0317   15.1484  H     
36   H        -0.2674    9.7874   15.8193  H     
37   H        -1.7167   14.3342   15.6828  H     
38   H        -0.1226   13.8276   15.7435  H     
@<TRIPOS>BOND
     1    1    2 1
     2    1    3 am
     3    1    4 2
     4    1    5 2
     5    2    6 1
     6    6    7 1
     7    7    8 1
     8    8    9 1
     9    9   10 1
    10   10   11 1
    11   11   12 1
    12   12   13 1
    13   13   14 1
    14   14   15 1
    15   15   16 am
    16   15   17 2
    17   15   18 2
    18    3   19 1
    19    3   20 1
    20    6   21 1
    21    6   22 1
    22    7   23 1
    23    7   24 1
    24    8   25 1
    25    8   26 1
    26    9   27 1
    27    9   28 1
    28   10   29 1
    29   10   30 1
    30   11   31 1
    31   11   32 1
    32   12   33 1
    33   12   34 1
    34   13   35 1
    35   13   36 1
    36   16   37 1
    37   16   38 1
@<TRIPOS>PROPERTY_DATA
  Total_Score	| 6.8557
  Crash		| -0.9799
  Polar		| 4.4654
  FragIndex	| 1
  FragRMSD	| 1.086

