@<TRIPOS>MOLECULE
BindingDB_50159810
 50 49 0 0 0
SMALL
NO_CHARGES


@<TRIPOS>ATOM
1    S        -5.5904    1.6728   15.8893  S     
2    S         2.3544    5.7736   11.4147  S     
3    O        -5.8682    0.0662   15.4371  O     
4    O        -4.4198    1.6688   17.1105  O     
5    O         2.0345    6.4714    9.9014  O     
6    O         3.4002    4.4569   11.1911  O     
7    N        -7.0317    2.3154   16.4859  N     
8    N         0.9265    5.2556   12.1473  N     
9    O        -4.9409    2.5602   14.5899  O     
10   O         3.1046    6.9108   12.4324  O     
11   C         4.0594    7.8762   11.9879  C     
12   C        -5.5910    3.5590   13.7953  C     
13   C        -5.7531    4.9108   14.5359  C     
14   C         3.6758    9.2962   12.4762  C     
15   C         3.1778    9.3932   13.9547  C     
16   C        -4.4302    5.5351   15.0644  C     
17   C        -3.6118    6.3288   14.0037  C     
18   C        -2.5344    7.2483   14.6476  C     
19   C        -1.8292    8.1818   13.6261  C     
20   C        -0.7480    9.1114   14.2605  C     
21   C         0.6091    9.0761   13.5140  C     
22   C         1.7299    9.9339   14.1646  C     
23   H        -7.0552    3.2262   16.8441  H     
24   H        -7.7941    1.7242   16.6467  H     
25   H         0.9702    4.7123   12.9617  H     
26   H         0.0810    5.3098   11.6536  H     
27   H         5.0478    7.6010   12.3706  H     
28   H         4.0995    7.8795   10.8905  H     
29   H        -4.9838    3.7067   12.9004  H     
30   H        -6.5700    3.1867   13.4801  H     
31   H        -6.2369    5.6194   13.8583  H     
32   H        -6.4260    4.7601   15.3822  H     
33   H         4.5685    9.9184   12.3666  H     
34   H         2.9190    9.7100   11.8048  H     
35   H         3.2678    8.4164   14.4399  H     
36   H         3.8514   10.0708   14.4924  H     
37   H        -4.7048    6.2214   15.8733  H     
38   H        -3.8008    4.7503   15.4941  H     
39   H        -3.1240    5.6269   13.3197  H     
40   H        -4.2995    6.9491   13.4203  H     
41   H        -3.0210    7.8728   15.4036  H     
42   H        -1.7879    6.6260   15.1491  H     
43   H        -1.3997    7.5643   12.8326  H     
44   H        -2.5928    8.8089   13.1610  H     
45   H        -1.1130   10.1418   14.2479  H     
46   H        -0.5754    8.8438   15.3069  H     
47   H         0.9507    8.0409   13.4555  H     
48   H         0.4481    9.4466   12.4974  H     
49   H         1.5490    9.9936   15.2453  H     
50   H         1.6747   10.9562   13.7723  H     
@<TRIPOS>BOND
     1    1    3 2
     2    1    4 2
     3    1    7 am
     4    1    9 1
     5    2    5 2
     6    2    6 2
     7    2    8 am
     8    2   10 1
     9    9   12 1
    10   10   11 1
    11   11   14 1
    12   12   13 1
    13   13   16 1
    14   14   15 1
    15   15   22 1
    16   16   17 1
    17   17   18 1
    18   18   19 1
    19   19   20 1
    20   20   21 1
    21   21   22 1
    22    7   23 1
    23    7   24 1
    24    8   25 1
    25    8   26 1
    26   11   27 1
    27   11   28 1
    28   12   29 1
    29   12   30 1
    30   13   31 1
    31   13   32 1
    32   14   33 1
    33   14   34 1
    34   15   35 1
    35   15   36 1
    36   16   37 1
    37   16   38 1
    38   17   39 1
    39   17   40 1
    40   18   41 1
    41   18   42 1
    42   19   43 1
    43   19   44 1
    44   20   45 1
    45   20   46 1
    46   21   47 1
    47   21   48 1
    48   22   49 1
    49   22   50 1
@<TRIPOS>PROPERTY_DATA
  Total_Score	| 7.2354
  Crash		| -0.6961
  Polar		| 5.5834
  FragIndex	| 1
  FragRMSD	| 1.250

