@<TRIPOS>MOLECULE
BindingDB_33282
 44 43 0 0 0
SMALL
NO_CHARGES


@<TRIPOS>ATOM
1    S        -5.5206    1.5494   15.8180  S     
2    O        -4.9238    2.4996   14.5356  O     
3    N        -7.0807    1.9538   16.3014  N     
4    O        -5.5501   -0.0870   15.3899  O     
5    O        -4.4798    1.6252   17.1559  O     
6    C        -5.5961    3.5779   13.8743  C     
7    C        -5.7123    4.8647   14.7442  C     
8    C        -4.3975    5.6259   15.0457  C     
9    C        -3.7810    6.4065   13.8402  C     
10   C        -2.8611    7.6071   14.2059  C     
11   C        -1.3409    7.2702   14.3589  C     
12   C        -0.3490    8.3847   13.9133  C     
13   C        -0.2322    9.6167   14.8443  C     
14   C         1.1692   10.3072   14.7664  C     
15   C         1.1228   11.8543   14.7775  C     
16   O         0.1961   12.3002   13.7858  O     
17   S        -1.1932   13.2391   14.0754  S     
18   N        -1.0360   14.1567   15.4762  N     
19   O        -1.4811   14.2488   12.7471  O     
20   O        -2.5627   12.2520   14.2046  O     
21   H        -7.4311    1.6086   17.1606  H     
22   H        -7.5508    2.6842   15.8721  H     
23   H        -5.0469    3.7829   12.9604  H     
24   H        -6.5837    3.2167   13.5830  H     
25   H        -6.4194    5.5230   14.2414  H     
26   H        -6.1811    4.5666   15.6810  H     
27   H        -4.6265    6.3430   15.8305  H     
28   H        -3.6596    4.9283   15.4410  H     
29   H        -3.2267    5.7119   13.2008  H     
30   H        -4.6016    6.8132   13.2472  H     
31   H        -2.9558    8.3571   13.4143  H     
32   H        -3.2012    8.0713   15.1402  H     
33   H        -1.1291    7.0129   15.4087  H     
34   H        -1.1132    6.3927   13.7452  H     
35   H         0.6534    7.9410   13.8222  H     
36   H        -0.6333    8.7413   12.9115  H     
37   H        -1.0202   10.3341   14.5951  H     
38   H        -0.4006    9.3184   15.8824  H     
39   H         1.8039    9.9929   15.5995  H     
40   H         1.6900   10.0245   13.8253  H     
41   H         0.8672   12.2408   15.7808  H     
42   H         2.1035   12.2631   14.5023  H     
43   H        -1.8114   14.5665   15.8990  H     
44   H        -0.1543   14.2661   15.8810  H     
@<TRIPOS>BOND
     1    1    2 1
     2    1    3 am
     3    1    4 2
     4    1    5 2
     5    2    6 1
     6    6    7 1
     7    7    8 1
     8    8    9 1
     9    9   10 1
    10   10   11 1
    11   11   12 1
    12   12   13 1
    13   13   14 1
    14   14   15 1
    15   15   16 1
    16   16   17 1
    17   17   18 am
    18   17   19 2
    19   17   20 2
    20    3   21 1
    21    3   22 1
    22    6   23 1
    23    6   24 1
    24    7   25 1
    25    7   26 1
    26    8   27 1
    27    8   28 1
    28    9   29 1
    29    9   30 1
    30   10   31 1
    31   10   32 1
    32   11   33 1
    33   11   34 1
    34   12   35 1
    35   12   36 1
    36   13   37 1
    37   13   38 1
    38   14   39 1
    39   14   40 1
    40   15   41 1
    41   15   42 1
    42   18   43 1
    43   18   44 1
@<TRIPOS>PROPERTY_DATA
  Total_Score	| 7.2466
  Crash		| -1.0036
  Polar		| 4.2466
  FragIndex	| 1
  FragRMSD	| 1.162

