@<TRIPOS>MOLECULE
BindingDB_50159803
 62 61 0 0 0
SMALL
NO_CHARGES


@<TRIPOS>ATOM
1    S        -5.4634    1.6728   15.9002  S     
2    S        -7.1645    7.9760    8.9607  S     
3    O        -5.8941    0.1099   15.4448  O     
4    O        -4.1736    1.5840   16.9921  O     
5    O        -5.7813    8.4682    8.1323  O     
6    O        -6.8642    6.4575    9.6469  O     
7    N        -6.8105    2.4086   16.5969  N     
8    N        -8.5021    7.8626    7.9560  N     
9    O        -4.9263    2.5100   14.5235  O     
10   O        -7.5178    9.0049   10.2723  O     
11   C        -6.5284    9.6285   11.0923  C     
12   C        -5.5802    3.5973   13.8565  C     
13   C        -5.6958    4.8946   14.7081  C     
14   C        -6.3036   11.1065   10.6770  C     
15   C        -2.1198   11.3920   12.6790  C     
16   C        -1.8342   12.1477   11.3387  C     
17   C        -2.4043   11.5061   10.0439  C     
18   C        -3.9270   11.6866    9.7726  C     
19   C        -4.8775   11.6295   11.0093  C     
20   C        -4.3388    5.5692   15.0598  C     
21   C        -3.6442    6.3303   13.8966  C     
22   C        -2.4842    7.2329   14.4022  C     
23   C        -1.5445    7.7682   13.2832  C     
24   C        -0.3857    8.6734   13.7957  C     
25   C        -0.7740   10.0130   14.5073  C     
26   C        -0.8781   11.2870   13.6210  C     
27   H        -6.6861    3.0867   17.2845  H     
28   H        -7.6982    2.0359   16.4434  H     
29   H        -9.3839    7.7279    8.3437  H     
30   H        -8.4252    8.1167    7.0185  H     
31   H        -6.8825    9.5937   12.1271  H     
32   H        -5.5935    9.0657   11.0512  H     
33   H        -5.0077    3.8158   12.9551  H     
34   H        -6.5795    3.2727   13.5477  H     
35   H        -6.3295    5.6126   14.1816  H     
36   H        -6.2016    4.6471   15.6395  H     
37   H        -6.4764   11.2174    9.6058  H     
38   H        -7.0401   11.7267   11.1950  H     
39   H        -2.9153   11.9321   13.2171  H     
40   H        -2.4902   10.3737   12.4805  H     
41   H        -2.2063   13.1803   11.4289  H     
42   H        -0.7448   12.2268   11.1855  H     
43   H        -1.8767   11.9775    9.2065  H     
44   H        -2.1465   10.4423   10.0013  H     
45   H        -4.0906   12.6258    9.2331  H     
46   H        -4.1997   10.8873    9.0820  H     
47   H        -4.9681   12.6391   11.4243  H     
48   H        -4.4636   10.9870   11.7921  H     
49   H        -4.5386    6.2844   15.8656  H     
50   H        -3.6508    4.8221   15.4622  H     
51   H        -3.2562    5.6167   13.1644  H     
52   H        -4.3775    6.9638   13.3869  H     
53   H        -2.9382    8.0614   14.9461  H     
54   H        -1.8801    6.6602   15.1181  H     
55   H        -1.0980    6.9040   12.7743  H     
56   H        -2.1352    8.3199   12.5455  H     
57   H         0.2204    8.0712   14.4820  H     
58   H         0.2772    8.8924   12.9529  H     
59   H        -1.7091    9.8977   15.0555  H     
60   H        -0.0064   10.2135   15.2585  H     
61   H         0.0595   11.3855   13.0519  H     
62   H        -0.8998   12.1442   14.3044  H     
@<TRIPOS>BOND
     1    1    3 2
     2    1    4 2
     3    1    7 am
     4    1    9 1
     5    2    5 2
     6    2    6 2
     7    2    8 am
     8    2   10 1
     9    9   12 1
    10   10   11 1
    11   11   14 1
    12   12   13 1
    13   13   20 1
    14   14   19 1
    15   15   16 1
    16   15   26 1
    17   16   17 1
    18   17   18 1
    19   18   19 1
    20   20   21 1
    21   21   22 1
    22   22   23 1
    23   23   24 1
    24   24   25 1
    25   25   26 1
    26    7   27 1
    27    7   28 1
    28    8   29 1
    29    8   30 1
    30   11   31 1
    31   11   32 1
    32   12   33 1
    33   12   34 1
    34   13   35 1
    35   13   36 1
    36   14   37 1
    37   14   38 1
    38   15   39 1
    39   15   40 1
    40   16   41 1
    41   16   42 1
    42   17   43 1
    43   17   44 1
    44   18   45 1
    45   18   46 1
    46   19   47 1
    47   19   48 1
    48   20   49 1
    49   20   50 1
    50   21   51 1
    51   21   52 1
    52   22   53 1
    53   22   54 1
    54   23   55 1
    55   23   56 1
    56   24   57 1
    57   24   58 1
    58   25   59 1
    59   25   60 1
    60   26   61 1
    61   26   62 1
@<TRIPOS>PROPERTY_DATA
  Total_Score	| 7.8467
  Crash		| -1.1076
  Polar		| 4.4333
  FragIndex	| 1
  FragRMSD	| 1.104

