@<TRIPOS>MOLECULE
BindingDB_50154471
 35 34 0 0 0
SMALL
NO_CHARGES


@<TRIPOS>ATOM
1    S        -5.0996    1.3559   15.5226  S     
2    S         0.7022    5.8588   11.6853  S     
3    O        -4.2081    1.5405   16.9473  O     
4    O        -6.2324    0.1177   15.7450  O     
5    O         0.0845    6.4537   10.2276  O     
6    O         2.2362    6.5224   11.9327  O     
7    N        -4.0792    1.0003   14.2385  N     
8    N         0.7712    4.1780   11.6603  N     
9    O        -5.9510    2.7854   15.2205  O     
10   O        -0.3066    6.3470   12.9562  O     
11   C        -0.3164    7.6713   13.4948  C     
12   C        -5.7013    3.7542   14.1999  C     
13   C        -5.6413    5.1771   14.8142  C     
14   C        -1.2673    7.7659   14.7172  C     
15   C        -3.4636    6.4281   14.0116  C     
16   C        -2.7880    7.7847   14.3821  C     
17   C        -4.2191    5.7071   15.1738  C     
18   H        -4.4475    0.6488   13.4105  H     
19   H        -3.1435    1.2542   14.2830  H     
20   H         1.0816    3.7071   12.4513  H     
21   H         0.3208    3.6827   10.9555  H     
22   H         0.6972    7.9307   13.8072  H     
23   H        -0.6244    8.3846   12.7202  H     
24   H        -4.7855    3.5259   13.6454  H     
25   H        -6.5382    3.6956   13.4979  H     
26   H        -6.1204    5.8805   14.1336  H     
27   H        -6.2445    5.1828   15.7271  H     
28   H        -1.0486    6.9537   15.4139  H     
29   H        -1.0245    8.6999   15.2335  H     
30   H        -4.1814    6.6466   13.2175  H     
31   H        -2.7247    5.7522   13.5777  H     
32   H        -3.3079    8.2278   15.2330  H     
33   H        -2.9291    8.4784   13.5452  H     
34   H        -4.3561    6.4150   15.9942  H     
35   H        -3.6042    4.8896   15.5571  H     
@<TRIPOS>BOND
     1    1    3 2
     2    1    4 2
     3    1    7 am
     4    1    9 1
     5    2    5 2
     6    2    6 2
     7    2    8 am
     8    2   10 1
     9    9   12 1
    10   10   11 1
    11   11   14 1
    12   12   13 1
    13   13   17 1
    14   14   16 1
    15   15   16 1
    16   15   17 1
    17    7   18 1
    18    7   19 1
    19    8   20 1
    20    8   21 1
    21   11   22 1
    22   11   23 1
    23   12   24 1
    24   12   25 1
    25   13   26 1
    26   13   27 1
    27   14   28 1
    28   14   29 1
    29   15   30 1
    30   15   31 1
    31   16   32 1
    32   16   33 1
    33   17   34 1
    34   17   35 1
@<TRIPOS>PROPERTY_DATA
  Total_Score	| 7.2039
  Crash		| -0.8187
  Polar		| 4.9232
  FragIndex	| 1
  FragRMSD	| 1.106

