@<TRIPOS>MOLECULE
BindingDB_14312
 72 75 0 0 0
SMALL
NO_CHARGES


@<TRIPOS>ATOM
1    C        65.2886   42.4995   82.3682  C     
2    O        64.5728   42.9986   81.3316  O     
3    N        65.4337   43.2955   83.4461  N     
4    C        66.1376   42.9749   84.6632  C     
5    C        65.2895   42.4602   85.7474  C     
6    O        65.8218   42.3721   86.8492  O     
7    C        66.9494   44.2535   85.0958  C     
8    C        68.3327   44.4183   84.4093  C     
9    C        69.5503   43.9939   85.2812  C     
10   C        70.8704   44.6628   84.8212  C     
11   N        72.0061   43.7333   84.9070  N     
12   C        63.9760   41.9883   85.6878  C     
13   N        63.1888   41.8198   84.6146  N     
14   N        63.2908   41.5815   86.7769  N     
15   O        62.1133   41.1726   86.4029  O     
16   C        62.0311   41.3136   85.0627  C     
17   C        60.8769   40.9102   84.2284  C     
18   C        59.6999   40.5086   85.0491  C     
19   C        58.2446   38.7765   85.9928  C     
20   C        57.4954   39.7382   86.7210  C     
21   C        57.8906   41.0985   86.5947  C     
22   C        58.9743   41.4715   85.7814  C     
23   C        59.3207   39.1526   85.1684  C     
24   C        56.4252   39.3532   87.5410  C     
25   O        56.3683   38.1955   87.9446  O     
26   N        55.4544   40.1946   87.8829  N     
27   C        54.3162   39.9036   88.7161  C     
28   C        53.3553   41.1259   88.8141  C     
29   C        53.4598   38.7113   88.1891  C     
30   C        52.0677   40.6239   88.3369  C     
31   C        50.9896   38.6141   87.4746  C     
32   C        49.7815   39.3323   87.3401  C     
33   C        49.7196   40.6913   87.7072  C     
34   C        50.8672   41.3429   88.2062  C     
35   C        52.1287   39.2759   87.9790  C     
36   O        65.7692   41.2236   82.3315  O     
37   C        65.6039   40.2581   81.2827  C     
38   C        66.9661   39.7256   80.7960  C     
39   H        65.0329   44.1804   83.3894  H     
40   H        66.8609   42.1797   84.4469  H     
41   H        66.3478   45.1451   84.8797  H     
42   H        67.1170   44.2813   86.1806  H     
43   H        68.3600   43.8385   83.4853  H     
44   H        68.4419   45.4757   84.1418  H     
45   H        69.3758   44.2658   86.3291  H     
46   H        69.6592   42.9079   85.2274  H     
47   H        70.7891   44.9964   83.7878  H     
48   H        71.0910   45.5320   85.4504  H     
49   H        72.0357   43.3006   85.8316  H     
50   H        72.8834   44.2391   84.7507  H     
51   H        71.9030   43.0065   84.1966  H     
52   H        60.6046   41.7394   83.5740  H     
53   H        61.1981   40.0933   83.5784  H     
54   H        58.0076   37.7852   86.0516  H     
55   H        57.4067   41.8325   87.1150  H     
56   H        59.2347   42.4618   85.7330  H     
57   H        59.8296   38.4292   84.6642  H     
58   H        55.5124   41.0992   87.5397  H     
59   H        54.6806   39.6722   89.7212  H     
60   H        53.2584   41.4679   89.8468  H     
61   H        53.6703   41.9660   88.1904  H     
62   H        53.8369   38.3104   87.2453  H     
63   H        53.4062   37.9104   88.9297  H     
64   H        51.0390   37.6279   87.2042  H     
65   H        48.9524   38.8638   86.9681  H     
66   H        48.8451   41.2093   87.5964  H     
67   H        50.8242   42.3335   88.4602  H     
68   H        65.0105   39.4270   81.6740  H     
69   H        65.0651   40.6789   80.4279  H     
70   H        67.5810   40.5424   80.4181  H     
71   H        66.8190   39.0022   79.9943  H     
72   H        67.4938   39.2365   81.6153  H     
@<TRIPOS>BOND
     1    1    2 2
     2    1    3 am
     3    1   36 1
     4    3    4 1
     5    4    5 1
     6    4    7 1
     7    5    6 2
     8    5   12 1
     9    7    8 1
    10    8    9 1
    11    9   10 1
    12   10   11 1
    13   12   13 1
    14   12   14 2
    15   13   16 2
    16   14   15 1
    17   15   16 1
    18   16   17 1
    19   17   18 1
    20   18   22 1
    21   18   23 2
    22   19   20 2
    23   19   23 1
    24   20   21 1
    25   20   24 1
    26   21   22 2
    27   24   25 2
    28   24   26 am
    29   26   27 1
    30   27   28 1
    31   27   29 1
    32   28   30 1
    33   29   35 1
    34   30   34 1
    35   30   35 2
    36   31   32 2
    37   31   35 1
    38   32   33 1
    39   33   34 2
    40   36   37 1
    41   37   38 1
    42    3   39 1
    43    4   40 1
    44    7   41 1
    45    7   42 1
    46    8   43 1
    47    8   44 1
    48    9   45 1
    49    9   46 1
    50   10   47 1
    51   10   48 1
    52   11   49 1
    53   11   50 1
    54   11   51 1
    55   17   52 1
    56   17   53 1
    57   19   54 1
    58   21   55 1
    59   22   56 1
    60   23   57 1
    61   26   58 1
    62   27   59 1
    63   28   60 1
    64   28   61 1
    65   29   62 1
    66   29   63 1
    67   31   64 1
    68   32   65 1
    69   33   66 1
    70   34   67 1
    71   37   68 1
    72   37   69 1
    73   38   70 1
    74   38   71 1
    75   38   72 1
@<TRIPOS>PROPERTY_DATA
  Total_Score	| 9.9579
  Crash		| -2.1213
  Polar		| 6.2174
  FragIndex	| 1
  FragRMSD	| 1.025

