@<TRIPOS>MOLECULE
BindingDB_14314
 77 81 0 0 0
SMALL
NO_CHARGES


@<TRIPOS>ATOM
1    C        65.8260   39.8541   73.5474  C     
2    O        66.5037   38.8176   74.1029  O     
3    N        64.4733   39.7810   73.5489  N     
4    C        63.5804   40.7503   72.9930  C     
5    C        62.4651   40.9770   73.9175  C     
6    O        61.3223   40.6496   73.6058  O     
7    C        63.1906   40.2942   71.5464  C     
8    C        62.3168   39.0024   71.4595  C     
9    C        62.6149   41.6054   75.1388  C     
10   N        61.6339   41.8181   76.0288  N     
11   N        63.7808   42.0121   75.6849  N     
12   O        63.5419   42.4717   76.8798  O     
13   C        62.2108   42.3542   77.1143  C     
14   C        61.4964   42.7082   78.3554  C     
15   C        62.3543   42.5979   79.5659  C     
16   C        63.7336   41.2412   81.0726  C     
17   C        64.1207   42.3799   81.8260  C     
18   C        63.5539   43.6290   81.4405  C     
19   C        62.6902   43.7334   80.3398  C     
20   C        62.8722   41.3485   79.9592  C     
21   C        65.0255   42.2645   82.8929  C     
22   O        65.5180   41.1729   83.1408  O     
23   N        65.3976   43.3009   83.6477  N     
24   C        66.2428   43.2443   84.8115  C     
25   C        67.6171   42.5586   84.5522  C     
26   C        66.6010   44.6797   85.2922  C     
27   C        68.5806   43.6590   84.5028  C     
28   C        68.7399   46.0607   84.8530  C     
29   C        70.1004   46.0144   84.4868  C     
30   C        70.7034   44.7841   84.1449  C     
31   C        69.9493   43.5976   84.1494  C     
32   C        67.9920   44.8597   84.8707  C     
33   C        62.8210   37.8937   70.4808  C     
34   C        63.6813   36.7925   71.1363  C     
35   C        61.6574   37.0339   69.9306  C     
36   C        62.6504   35.8067   71.7194  C     
37   N        61.4072   36.0088   70.9581  N     
38   O        66.4805   40.9052   72.9882  O     
39   C        67.9026   41.1328   72.8852  C     
40   C        68.3625   42.3202   73.5777  C     
41   C        67.6016   43.1133   74.3440  C     
42   H        64.0838   38.9821   73.9200  H     
43   H        64.0788   41.7220   72.8867  H     
44   H        62.6538   41.1146   71.0591  H     
45   H        64.1103   40.1565   70.9749  H     
46   H        62.2048   38.5653   72.4542  H     
47   H        61.3099   39.2942   71.1417  H     
48   H        61.0997   43.7203   78.2360  H     
49   H        60.6429   42.0363   78.4806  H     
50   H        64.0817   40.3074   81.3149  H     
51   H        63.7699   44.4846   81.9537  H     
52   H        62.3105   44.6503   80.0905  H     
53   H        62.6269   40.5028   79.4390  H     
54   H        65.0103   44.1618   83.4336  H     
55   H        65.7093   42.7183   85.6057  H     
56   H        67.8801   41.8806   85.3718  H     
57   H        67.6252   42.0207   83.6039  H     
58   H        65.9630   45.4464   84.8533  H     
59   H        66.5410   44.7433   86.3815  H     
60   H        68.3005   46.9516   85.0940  H     
61   H        70.6570   46.8765   84.4703  H     
62   H        71.6935   44.7550   83.8846  H     
63   H        70.3765   42.7050   83.9011  H     
64   H        63.3626   38.3684   69.6567  H     
65   H        64.2732   36.2812   70.3665  H     
66   H        64.3611   37.1696   71.9055  H     
67   H        60.7537   37.6163   69.7309  H     
68   H        61.9572   36.5391   69.0000  H     
69   H        62.9931   34.7749   71.6300  H     
70   H        62.4635   36.0276   72.7722  H     
71   H        60.6790   36.3419   71.5909  H     
72   H        61.1046   35.1371   70.5220  H     
73   H        68.4568   40.2616   73.2538  H     
74   H        68.1298   41.2538   71.8240  H     
75   H        69.3238   42.5487   73.4875  H     
76   H        68.0005   43.9054   74.7929  H     
77   H        66.6324   42.9405   74.4730  H     
@<TRIPOS>BOND
     1    1    2 2
     2    1    3 am
     3    1   38 1
     4    3    4 1
     5    4    5 1
     6    4    7 1
     7    5    6 2
     8    5    9 1
     9    7    8 1
    10    8   33 1
    11    9   10 1
    12    9   11 2
    13   10   13 2
    14   11   12 1
    15   12   13 1
    16   13   14 1
    17   14   15 1
    18   15   19 1
    19   15   20 2
    20   16   17 2
    21   16   20 1
    22   17   18 1
    23   17   21 1
    24   18   19 2
    25   21   22 2
    26   21   23 am
    27   23   24 1
    28   24   25 1
    29   24   26 1
    30   25   27 1
    31   26   32 1
    32   27   31 1
    33   27   32 2
    34   28   29 2
    35   28   32 1
    36   29   30 1
    37   30   31 2
    38   33   34 1
    39   33   35 1
    40   34   36 1
    41   35   37 1
    42   36   37 1
    43   38   39 1
    44   39   40 1
    45   40   41 2
    46    3   42 1
    47    4   43 1
    48    7   44 1
    49    7   45 1
    50    8   46 1
    51    8   47 1
    52   14   48 1
    53   14   49 1
    54   16   50 1
    55   18   51 1
    56   19   52 1
    57   20   53 1
    58   23   54 1
    59   24   55 1
    60   25   56 1
    61   25   57 1
    62   26   58 1
    63   26   59 1
    64   28   60 1
    65   29   61 1
    66   30   62 1
    67   31   63 1
    68   33   64 1
    69   34   65 1
    70   34   66 1
    71   35   67 1
    72   35   68 1
    73   36   69 1
    74   36   70 1
    75   37   71 1
    76   37   72 1
    77   39   73 1
    78   39   74 1
    79   40   75 1
    80   41   76 1
    81   41   77 1
@<TRIPOS>PROPERTY_DATA
  Total_Score	| 8.4058
  Crash		| -2.7202
  Polar		| 2.2988
  FragIndex	| 1
  FragRMSD	| 1.333

