@<TRIPOS>MOLECULE
BindingDB_14317
 79 84 0 0 0
SMALL
NO_CHARGES


@<TRIPOS>ATOM
1    C        65.1088   42.5558   82.6202  C     
2    O        65.5739   41.4149   82.6178  O     
3    N        65.3386   43.3367   83.6793  N     
4    C        66.0632   43.0330   84.8904  C     
5    C        65.2141   42.4381   85.9395  C     
6    O        65.7067   42.2895   87.0486  O     
7    C        66.7861   44.3545   85.3711  C     
8    C        68.3020   44.2285   85.6896  C     
9    C        63.9066   41.9809   85.8100  C     
10   N        63.2018   41.7686   84.6775  N     
11   N        63.0996   41.6489   86.8417  N     
12   O        61.9341   41.2697   86.4104  O     
13   C        61.9858   41.3274   85.0558  C     
14   C        60.9190   40.8804   84.1272  C     
15   C        59.5801   40.7061   84.7551  C     
16   C        58.1436   39.6949   86.4749  C     
17   C        56.9970   40.4027   86.0106  C     
18   C        57.1896   41.2384   84.8746  C     
19   C        58.4445   41.3990   84.2709  C     
20   C        59.4026   39.8196   85.8479  C     
21   C        55.7419   40.3195   86.6459  C     
22   O        54.7836   40.9027   86.1509  O     
23   N        55.5624   39.6655   87.7956  N     
24   C        54.3700   39.5949   88.6013  C     
25   C        53.6880   40.9694   88.8671  C     
26   C        53.2638   38.6301   88.0769  C     
27   C        52.2769   40.7240   88.5895  C     
28   C        50.7254   39.0033   87.8510  C     
29   C        49.6631   39.9205   87.9748  C     
30   C        49.9110   41.2445   88.4024  C     
31   C        51.2237   41.6490   88.7135  C     
32   C        52.0375   39.4193   88.1563  C     
33   C        69.2161   44.1979   84.4134  C     
34   C        70.2787   45.3189   84.3525  C     
35   C        70.1014   42.9359   84.3001  C     
36   C        71.5048   44.7244   85.0697  C     
37   N        71.3778   43.2616   84.9584  N     
38   C        64.2556   42.9421   81.5659  C     
39   C        62.4195   43.5839   79.4661  C     
40   C        62.3424   44.2517   80.7009  C     
41   C        63.2510   43.9402   81.7264  C     
42   C        64.3181   42.3016   80.2935  C     
43   C        63.4133   42.6103   79.2580  C     
44   F        63.4811   41.9707   78.1181  F     
45   F        61.5624   43.8849   78.5174  F     
46   H        64.9758   44.2436   83.6322  H     
47   H        66.8238   42.2811   84.6856  H     
48   H        66.6753   45.1494   84.6274  H     
49   H        66.2998   44.7432   86.2684  H     
50   H        68.5791   45.0765   86.3209  H     
51   H        68.4560   43.3451   86.3141  H     
52   H        60.8785   41.6052   83.3045  H     
53   H        61.2257   39.9162   83.7013  H     
54   H        58.0764   39.0712   87.2901  H     
55   H        56.4059   41.7746   84.4913  H     
56   H        58.5300   42.0128   83.4543  H     
57   H        60.2289   39.3117   86.2080  H     
58   H        56.3315   39.2081   88.1662  H     
59   H        54.6939   39.2093   89.5716  H     
60   H        53.8082   41.2806   89.9070  H     
61   H        54.0585   41.7619   88.2162  H     
62   H        53.4322   38.3165   87.0466  H     
63   H        53.1766   37.7400   88.7066  H     
64   H        50.5452   38.0440   87.5400  H     
65   H        48.7081   39.6297   87.7560  H     
66   H        49.1395   41.9083   88.4855  H     
67   H        51.4111   42.6076   89.0243  H     
68   H        68.5948   44.2645   83.5110  H     
69   H        70.5432   45.5266   83.3110  H     
70   H        69.9484   46.2589   84.8111  H     
71   H        69.6458   42.0497   84.7504  H     
72   H        70.3052   42.7217   83.2433  H     
73   H        72.4407   45.0581   84.6119  H     
74   H        71.4996   45.0130   86.1264  H     
75   H        71.4087   42.8604   85.9008  H     
76   H        72.1376   42.8792   84.3900  H     
77   H        61.6112   44.9529   80.8657  H     
78   H        63.1370   44.4371   82.6084  H     
79   H        65.0204   41.5839   80.1064  H     
@<TRIPOS>BOND
     1    1    2 2
     2    1    3 am
     3    1   38 1
     4    3    4 1
     5    4    5 1
     6    4    7 1
     7    5    6 2
     8    5    9 1
     9    7    8 1
    10    8   33 1
    11    9   10 1
    12    9   11 2
    13   10   13 2
    14   11   12 1
    15   12   13 1
    16   13   14 1
    17   14   15 1
    18   15   19 1
    19   15   20 2
    20   16   17 2
    21   16   20 1
    22   17   18 1
    23   17   21 1
    24   18   19 2
    25   21   22 2
    26   21   23 am
    27   23   24 1
    28   24   25 1
    29   24   26 1
    30   25   27 1
    31   26   32 1
    32   27   31 1
    33   27   32 2
    34   28   29 2
    35   28   32 1
    36   29   30 1
    37   30   31 2
    38   33   34 1
    39   33   35 1
    40   34   36 1
    41   35   37 1
    42   36   37 1
    43   38   41 2
    44   38   42 1
    45   39   40 2
    46   39   43 1
    47   39   45 1
    48   40   41 1
    49   42   43 2
    50   43   44 1
    51    3   46 1
    52    4   47 1
    53    7   48 1
    54    7   49 1
    55    8   50 1
    56    8   51 1
    57   14   52 1
    58   14   53 1
    59   16   54 1
    60   18   55 1
    61   19   56 1
    62   20   57 1
    63   23   58 1
    64   24   59 1
    65   25   60 1
    66   25   61 1
    67   26   62 1
    68   26   63 1
    69   28   64 1
    70   29   65 1
    71   30   66 1
    72   31   67 1
    73   33   68 1
    74   34   69 1
    75   34   70 1
    76   35   71 1
    77   35   72 1
    78   36   73 1
    79   36   74 1
    80   37   75 1
    81   37   76 1
    82   40   77 1
    83   41   78 1
    84   42   79 1
@<TRIPOS>PROPERTY_DATA
  Total_Score	| 9.1907
  Crash		| -3.5012
  Polar		| 4.6573
  FragIndex	| 1
  FragRMSD	| 1.177

