@<TRIPOS>MOLECULE
BindingDB_14316
 86 91 0 0 0
SMALL
NO_CHARGES


@<TRIPOS>ATOM
1    C        64.5266   41.5804   82.4390  C     
2    O        64.9188   40.4504   82.6890  O     
3    N        64.8244   42.5704   83.2873  N     
4    C        65.5952   42.4910   84.5123  C     
5    C        64.8051   42.1209   85.6987  C     
6    O        65.3403   42.2254   86.7937  O     
7    C        66.3001   43.8848   84.6352  C     
8    C        67.5492   44.0055   85.5788  C     
9    C        63.5047   41.6311   85.7366  C     
10   N        62.7005   41.2934   84.7277  N     
11   N        62.8139   41.4160   86.8699  N     
12   O        61.6283   40.9745   86.5816  O     
13   C        61.5435   40.8919   85.2379  C     
14   C        60.3809   40.4684   84.4358  C     
15   C        59.1516   40.3417   85.2588  C     
16   C        56.9317   41.1440   85.9334  C     
17   C        56.8213   40.1295   86.9258  C     
18   C        57.9003   39.2158   87.0418  C     
19   C        59.0429   39.3247   86.2297  C     
20   C        58.0724   41.2481   85.1163  C     
21   C        55.6927   40.0071   87.7495  C     
22   O        55.5351   38.9836   88.4079  O     
23   N        54.7739   40.9654   87.8357  N     
24   C        53.5728   40.9077   88.6232  C     
25   C        52.6412   42.1238   88.3803  C     
26   C        52.6959   39.6492   88.3606  C     
27   C        51.3010   41.5485   88.4724  C     
28   C        50.1451   39.4049   88.5185  C     
29   C        48.9075   40.0825   88.5791  C     
30   C        48.8722   41.4941   88.5713  C     
31   C        50.0766   42.2405   88.5097  C     
32   C        51.3358   40.1516   88.4741  C     
33   C        68.9362   44.1580   84.8577  C     
34   C        69.9247   45.0951   85.5852  C     
35   C        69.7682   42.8533   84.6864  C     
36   C        71.2806   44.6632   85.0157  C     
37   N        71.1728   43.2034   84.9844  N     
38   C        63.5953   41.7796   81.3133  C     
39   C        62.4213   42.7658   81.5845  C     
40   C        62.8612   44.0833   80.9255  C     
41   C        63.7512   43.6084   79.7657  C     
42   N        64.2275   42.2952   80.1194  N     
43   C        65.0431   41.6051   79.2993  C     
44   C        65.5032   40.2438   79.5515  C     
45   O        65.4394   42.1225   78.2584  O     
46   H        64.4258   43.4295   83.0851  H     
47   H        66.3833   41.7507   84.3996  H     
48   H        66.5989   44.1960   83.6291  H     
49   H        65.5487   44.6193   84.9461  H     
50   H        67.3862   44.8894   86.2018  H     
51   H        67.5868   43.1627   86.2709  H     
52   H        60.2287   41.1856   83.6236  H     
53   H        60.5992   39.5006   83.9805  H     
54   H        56.1799   41.8225   85.7981  H     
55   H        57.8829   38.4599   87.7358  H     
56   H        59.8104   38.6562   86.3576  H     
57   H        58.1106   41.9988   84.4256  H     
58   H        54.9325   41.7955   87.3565  H     
59   H        53.8544   40.9194   89.6759  H     
60   H        52.7807   42.8985   89.1388  H     
61   H        52.7709   42.5637   87.3832  H     
62   H        52.8489   39.2450   87.3550  H     
63   H        52.9003   38.8724   89.0979  H     
64   H        50.1671   38.3795   88.5117  H     
65   H        48.0301   39.5525   88.6223  H     
66   H        47.9664   41.9857   88.5999  H     
67   H        50.0445   43.2571   88.4894  H     
68   H        68.7865   44.5941   83.8614  H     
69   H        69.7147   46.1483   85.3709  H     
70   H        69.9039   44.9386   86.6706  H     
71   H        69.4571   42.0619   85.3758  H     
72   H        69.6867   42.4764   83.6615  H     
73   H        71.4197   45.0512   84.0032  H     
74   H        72.1083   44.9859   85.6492  H     
75   H        71.4235   42.8684   85.9164  H     
76   H        71.8024   42.7916   84.2969  H     
77   H        63.1226   40.8167   81.0812  H     
78   H        61.5099   42.4125   81.0928  H     
79   H        62.2025   42.9244   82.6428  H     
80   H        62.0080   44.6676   80.5766  H     
81   H        63.4487   44.6893   81.6302  H     
82   H        63.1603   43.5542   78.8422  H     
83   H        64.5818   44.3041   79.6169  H     
84   H        66.1295   40.2145   80.4456  H     
85   H        66.0949   39.8558   78.7155  H     
86   H        64.6459   39.5800   79.6830  H     
@<TRIPOS>BOND
     1    1    2 2
     2    1    3 am
     3   38    1 1
     4    3    4 1
     5    4    5 1
     6    4    7 1
     7    5    6 2
     8    5    9 1
     9    7    8 1
    10    8   33 1
    11    9   10 1
    12    9   11 2
    13   10   13 2
    14   11   12 1
    15   12   13 1
    16   13   14 1
    17   14   15 1
    18   15   19 1
    19   15   20 2
    20   16   17 2
    21   16   20 1
    22   17   18 1
    23   17   21 1
    24   18   19 2
    25   21   22 2
    26   21   23 am
    27   23   24 1
    28   24   25 1
    29   24   26 1
    30   25   27 1
    31   26   32 1
    32   27   31 1
    33   27   32 2
    34   28   29 2
    35   28   32 1
    36   29   30 1
    37   30   31 2
    38   33   34 1
    39   33   35 1
    40   34   36 1
    41   35   37 1
    42   36   37 1
    43   38   39 1
    44   38   42 1
    45   39   40 1
    46   40   41 1
    47   41   42 1
    48   42   43 am
    49   43   44 1
    50   43   45 2
    51    3   46 1
    52    4   47 1
    53    7   48 1
    54    7   49 1
    55    8   50 1
    56    8   51 1
    57   14   52 1
    58   14   53 1
    59   16   54 1
    60   18   55 1
    61   19   56 1
    62   20   57 1
    63   23   58 1
    64   24   59 1
    65   25   60 1
    66   25   61 1
    67   26   62 1
    68   26   63 1
    69   28   64 1
    70   29   65 1
    71   30   66 1
    72   31   67 1
    73   33   68 1
    74   34   69 1
    75   34   70 1
    76   35   71 1
    77   35   72 1
    78   36   73 1
    79   36   74 1
    80   37   75 1
    81   37   76 1
    82   38   77 1
    83   39   78 1
    84   39   79 1
    85   40   80 1
    86   40   81 1
    87   41   82 1
    88   41   83 1
    89   44   84 1
    90   44   85 1
    91   44   86 1
@<TRIPOS>PROPERTY_DATA
  Total_Score	| 10.4386
  Crash		| -3.6477
  Polar		| 5.7714
  FragIndex	| 1
  FragRMSD	| 0.959

