@<TRIPOS>MOLECULE
BindingDB_14315
 73 77 0 0 0
SMALL
NO_CHARGES


@<TRIPOS>ATOM
1    C        65.5217   42.3813   82.5287  C     
2    O        65.6314   41.0309   82.4069  O     
3    N        65.5041   43.0049   83.7300  N     
4    C        65.5072   42.3702   85.0246  C     
5    C        64.1765   41.8943   85.4461  C     
6    O        64.0739   41.4387   86.5758  O     
7    C        66.1548   43.3463   86.0652  C     
8    C        67.6922   43.2863   86.2706  C     
9    C        63.0392   41.7948   84.6541  C     
10   N        62.0164   40.9416   84.8525  N     
11   N        62.7892   42.4833   83.5252  N     
12   O        61.6668   42.0713   83.0160  O     
13   C        61.1722   41.1133   83.8231  C     
14   C        59.9504   40.3389   83.5311  C     
15   C        58.9814   40.3277   84.6586  C     
16   C        57.8877   39.1298   86.4944  C     
17   C        56.9569   40.1803   86.6940  C     
18   C        57.1055   41.3344   85.8794  C     
19   C        58.1014   41.4060   84.8826  C     
20   C        58.8738   39.1939   85.4955  C     
21   C        55.9341   40.0600   87.6521  C     
22   O        55.8796   39.0658   88.3706  O     
23   N        54.9465   40.9500   87.7544  N     
24   C        53.8286   40.8657   88.6508  C     
25   C        52.8058   42.0201   88.4433  C     
26   C        53.0267   39.5341   88.4957  C     
27   C        51.5004   41.3534   88.4280  C     
28   C        50.4924   39.1348   88.2771  C     
29   C        49.2108   39.7278   88.2339  C     
30   C        49.0759   41.1329   88.3174  C     
31   C        50.2219   41.9528   88.4147  C     
32   C        51.6313   39.9654   88.3974  C     
33   C        68.5786   44.0006   85.2047  C     
34   C        69.7928   44.7507   85.8104  C     
35   C        69.2236   43.0558   84.1643  C     
36   C        71.0218   44.3174   84.9868  C     
37   N        70.4566   43.7338   83.7732  N     
38   O        65.3751   43.1580   81.4214  O     
39   C        65.3482   42.6712   80.0802  C     
40   H        65.3618   43.9693   83.7139  H     
41   H        66.1356   41.4720   84.9782  H     
42   H        65.8975   44.3824   85.8168  H     
43   H        65.7331   43.1584   87.0613  H     
44   H        67.8916   43.7548   87.2396  H     
45   H        67.9849   42.2365   86.3603  H     
46   H        59.4884   40.7614   82.6344  H     
47   H        60.2298   39.3134   83.2775  H     
48   H        57.8497   38.2926   87.0726  H     
49   H        56.4878   42.1418   85.9859  H     
50   H        58.1603   42.2483   84.3062  H     
51   H        59.4883   38.3906   85.3609  H     
52   H        54.9769   41.7182   87.1619  H     
53   H        54.2163   40.9283   89.6794  H     
54   H        52.8644   42.7437   89.2658  H     
55   H        52.9512   42.5393   87.4951  H     
56   H        53.3075   38.9801   87.5958  H     
57   H        53.1551   38.9038   89.3806  H     
58   H        50.6047   38.1169   88.2211  H     
59   H        48.3759   39.1397   88.1431  H     
60   H        48.1493   41.5593   88.2993  H     
61   H        50.1256   42.9644   88.4654  H     
62   H        67.9647   44.7315   84.6625  H     
63   H        69.6491   45.8369   85.7132  H     
64   H        69.9610   44.5106   86.8653  H     
65   H        69.4654   42.0780   84.5790  H     
66   H        68.5960   42.9339   83.2889  H     
67   H        71.6795   45.1612   84.7455  H     
68   H        71.5998   43.5449   85.5103  H     
69   H        71.1188   43.0929   83.3307  H     
70   H        70.2240   44.4890   83.1316  H     
71   H        66.3070   42.2326   79.8139  H     
72   H        65.1544   43.4998   79.4055  H     
73   H        64.5555   41.9292   79.9625  H     
@<TRIPOS>BOND
     1    1    2 2
     2    1    3 am
     3    1   38 1
     4    3    4 1
     5    4    5 1
     6    4    7 1
     7    5    6 2
     8    5    9 1
     9    7    8 1
    10    8   33 1
    11    9   10 1
    12    9   11 2
    13   10   13 2
    14   11   12 1
    15   12   13 1
    16   13   14 1
    17   14   15 1
    18   15   19 1
    19   15   20 2
    20   16   17 2
    21   16   20 1
    22   17   18 1
    23   17   21 1
    24   18   19 2
    25   21   22 2
    26   21   23 am
    27   23   24 1
    28   24   25 1
    29   24   26 1
    30   25   27 1
    31   26   32 1
    32   27   31 1
    33   27   32 2
    34   28   29 2
    35   28   32 1
    36   29   30 1
    37   30   31 2
    38   33   34 1
    39   33   35 1
    40   34   36 1
    41   35   37 1
    42   36   37 1
    43   38   39 1
    44    3   40 1
    45    4   41 1
    46    7   42 1
    47    7   43 1
    48    8   44 1
    49    8   45 1
    50   14   46 1
    51   14   47 1
    52   16   48 1
    53   18   49 1
    54   19   50 1
    55   20   51 1
    56   23   52 1
    57   24   53 1
    58   25   54 1
    59   25   55 1
    60   26   56 1
    61   26   57 1
    62   28   58 1
    63   29   59 1
    64   30   60 1
    65   31   61 1
    66   33   62 1
    67   34   63 1
    68   34   64 1
    69   35   65 1
    70   35   66 1
    71   36   67 1
    72   36   68 1
    73   37   69 1
    74   37   70 1
    75   39   71 1
    76   39   72 1
    77   39   73 1
@<TRIPOS>PROPERTY_DATA
  Total_Score	| 9.7920
  Crash		| -3.2866
  Polar		| 4.3912
  FragIndex	| 1
  FragRMSD	| 0.994

