@<TRIPOS>MOLECULE
BindingDB_14313
 82 87 0 0 0
SMALL
NO_CHARGES


@<TRIPOS>ATOM
1    C        65.0054   42.0490   82.4844  C     
2    O        65.5115   40.9387   82.4226  O     
3    N        65.1641   42.7674   83.5954  N     
4    C        65.8284   42.3560   84.8032  C     
5    C        64.8890   42.3199   85.9391  C     
6    O        65.3262   42.5355   87.0625  O     
7    C        67.0558   43.2939   85.0484  C     
8    C        68.0803   43.3477   83.8749  C     
9    C        63.5847   41.8506   85.8610  C     
10   N        62.8645   41.5853   84.7548  N     
11   N        62.8036   41.6190   86.9356  N     
12   O        61.6376   41.2325   86.5252  O     
13   C        61.6481   41.2137   85.1732  C     
14   C        60.5106   40.8629   84.3024  C     
15   C        59.2674   40.6615   85.0932  C     
16   C        57.6580   39.1695   86.1799  C     
17   C        56.9908   40.2635   86.7862  C     
18   C        57.4782   41.5659   86.5102  C     
19   C        58.6038   41.7582   85.6889  C     
20   C        58.7702   39.3626   85.3452  C     
21   C        55.9073   40.0528   87.6411  C     
22   O        55.8363   38.9951   88.2628  O     
23   N        54.9230   40.9396   87.7636  N     
24   C        53.7563   40.7844   88.5908  C     
25   C        52.7515   41.9652   88.4419  C     
26   C        52.9425   39.4914   88.2920  C     
27   C        51.4369   41.3167   88.3635  C     
28   C        50.4175   39.1139   88.1359  C     
29   C        49.1441   39.7126   88.1096  C     
30   C        49.0181   41.1150   88.2024  C     
31   C        50.1679   41.9251   88.3200  C     
32   C        51.5558   39.9309   88.2729  C     
33   C        64.2051   42.4926   81.4275  C     
34   C        62.5100   43.3026   79.2734  C     
35   C        63.4302   42.2583   79.0937  C     
36   C        64.2620   41.8556   80.1578  C     
37   C        63.2613   43.5405   81.5834  C     
38   C        62.4193   43.9427   80.5225  C     
39   F        61.5482   44.8955   80.7159  F     
40   F        61.7425   43.6647   78.2799  F     
41   C        69.3889   44.1591   84.1450  C     
42   C        69.1487   45.5398   84.8362  C     
43   C        70.4805   46.3085   85.0211  C     
44   C        71.7663   44.1675   85.0782  C     
45   C        70.4595   43.3446   84.9324  C     
46   N        71.4903   45.4773   85.7193  N     
47   H        64.8273   43.6742   83.5801  H     
48   H        66.2170   41.3386   84.7070  H     
49   H        66.6852   44.3081   85.2295  H     
50   H        67.5815   42.9545   85.9446  H     
51   H        68.3570   42.3246   83.5865  H     
52   H        67.5900   43.7914   83.0009  H     
53   H        60.3542   41.6597   83.5729  H     
54   H        60.7696   39.9642   83.7375  H     
55   H        57.3338   38.2088   86.3366  H     
56   H        57.0392   42.3866   86.9388  H     
57   H        58.9611   42.7077   85.5535  H     
58   H        59.2386   38.5476   84.9481  H     
59   H        54.9909   41.7627   87.2504  H     
60   H        54.0845   40.7493   89.6363  H     
61   H        52.8039   42.6390   89.3022  H     
62   H        52.9188   42.5392   87.5248  H     
63   H        53.2053   39.0554   87.3225  H     
64   H        53.0942   38.7468   89.0803  H     
65   H        50.5102   38.1001   88.0620  H     
66   H        48.3054   39.1310   88.0165  H     
67   H        48.0884   41.5472   88.1736  H     
68   H        50.0760   42.9450   88.3656  H     
69   H        63.4962   41.7772   78.1911  H     
70   H        64.9181   41.0881   79.9870  H     
71   H        63.1504   44.0117   82.4871  H     
72   H        69.8248   44.3619   83.1617  H     
73   H        68.4678   46.1476   84.2396  H     
74   H        68.6995   45.3855   85.8209  H     
75   H        70.8692   46.6166   84.0492  H     
76   H        70.3048   47.2070   85.6203  H     
77   H        72.4797   43.6113   85.6897  H     
78   H        72.2271   44.3328   84.0947  H     
79   H        70.0813   43.0879   85.9262  H     
80   H        70.6908   42.4122   84.4004  H     
81   H        72.3750   45.9813   85.7900  H     
82   H        71.1475   45.2996   86.6649  H     
@<TRIPOS>BOND
     1    1    2 2
     2    1    3 am
     3    1   33 1
     4    3    4 1
     5    4    5 1
     6    4    7 1
     7    5    6 2
     8    5    9 1
     9    7    8 1
    10    8   41 1
    11    9   10 1
    12    9   11 2
    13   10   13 2
    14   11   12 1
    15   12   13 1
    16   13   14 1
    17   14   15 1
    18   15   19 1
    19   15   20 2
    20   16   17 2
    21   16   20 1
    22   17   18 1
    23   17   21 1
    24   18   19 2
    25   21   22 2
    26   21   23 am
    27   23   24 1
    28   24   25 1
    29   24   26 1
    30   25   27 1
    31   26   32 1
    32   27   31 1
    33   27   32 2
    34   28   29 2
    35   28   32 1
    36   29   30 1
    37   30   31 2
    38   33   36 2
    39   33   37 1
    40   34   35 2
    41   34   38 1
    42   34   40 1
    43   35   36 1
    44   37   38 2
    45   38   39 1
    46   41   42 1
    47   41   45 1
    48   42   43 1
    49   43   46 1
    50   44   45 1
    51   44   46 1
    52    3   47 1
    53    4   48 1
    54    7   49 1
    55    7   50 1
    56    8   51 1
    57    8   52 1
    58   14   53 1
    59   14   54 1
    60   16   55 1
    61   18   56 1
    62   19   57 1
    63   20   58 1
    64   23   59 1
    65   24   60 1
    66   25   61 1
    67   25   62 1
    68   26   63 1
    69   26   64 1
    70   28   65 1
    71   29   66 1
    72   30   67 1
    73   31   68 1
    74   35   69 1
    75   36   70 1
    76   37   71 1
    77   41   72 1
    78   42   73 1
    79   42   74 1
    80   43   75 1
    81   43   76 1
    82   44   77 1
    83   44   78 1
    84   45   79 1
    85   45   80 1
    86   46   81 1
    87   46   82 1
@<TRIPOS>PROPERTY_DATA
  Total_Score	| 9.2161
  Crash		| -4.4702
  Polar		| 4.1926
  FragIndex	| 1
  FragRMSD	| 0.640

