@<TRIPOS>MOLECULE
BindingDB_14318
 76 81 0 0 0
SMALL
NO_CHARGES


@<TRIPOS>ATOM
1    C        64.9237   42.2278   83.1582  C     
2    O        65.0246   41.0057   83.1109  O     
3    N        65.4023   42.9480   84.1662  N     
4    C        66.1000   42.4374   85.3215  C     
5    C        65.1751   42.4107   86.4650  C     
6    O        65.5562   42.7402   87.5830  O     
7    C        67.4865   43.1691   85.5255  C     
8    C        68.0640   43.9514   84.3097  C     
9    C        63.8753   41.9176   86.3805  C     
10   N        63.2029   41.6321   85.2502  N     
11   N        63.0553   41.6946   87.4244  N     
12   O        61.8948   41.3001   86.9760  O     
13   C        61.9660   41.2645   85.6261  C     
14   C        60.8848   40.9135   84.6838  C     
15   C        59.6212   40.5534   85.3799  C     
16   C        58.0925   38.8486   86.2472  C     
17   C        57.2659   39.8304   86.8467  C     
18   C        57.6380   41.1923   86.6767  C     
19   C        58.8012   41.5442   85.9673  C     
20   C        59.2390   39.2008   85.5146  C     
21   C        56.1468   39.4650   87.6025  C     
22   O        56.1052   38.3411   88.1057  O     
23   N        55.0996   40.2625   87.7569  N     
24   C        53.9157   39.9672   88.5256  C     
25   C        52.7862   41.0137   88.3070  C     
26   C        53.2868   38.5750   88.2096  C     
27   C        51.5901   40.2155   88.0427  C     
28   C        50.8412   37.9197   87.7313  C     
29   C        49.5235   38.3845   87.5314  C     
30   C        49.2442   39.7663   87.5789  C     
31   C        50.2807   40.6896   87.8304  C     
32   C        51.8674   38.8513   87.9884  C     
33   C        64.1943   42.8298   82.1554  C     
34   C        62.6697   43.8696   80.0105  C     
35   C        64.0756   43.8391   79.9341  C     
36   C        64.8361   43.3124   80.9967  C     
37   C        62.7816   42.8879   82.2406  C     
38   C        62.0219   43.3987   81.1682  C     
39   F        60.7179   43.4082   81.2622  F     
40   F        61.9772   44.3286   78.9994  F     
41   C        69.6158   44.1643   84.2795  C     
42   C        70.1238   45.6254   84.2630  C     
43   C        70.4523   43.9807   85.5619  C     
44   N        70.9533   45.3595   85.4478  N     
45   H        65.2526   43.9100   84.1293  H     
46   H        66.3416   41.3824   85.1643  H     
47   H        67.4069   43.8828   86.3454  H     
48   H        68.2268   42.4258   85.8268  H     
49   H        67.7927   43.4207   83.3928  H     
50   H        67.5641   44.9196   84.2793  H     
51   H        60.7092   41.7542   84.0082  H     
52   H        61.2283   40.0821   84.0640  H     
53   H        57.8680   37.8527   86.3330  H     
54   H        57.0867   41.9403   87.1082  H     
55   H        59.0631   42.5327   85.9023  H     
56   H        59.8140   38.4590   85.1079  H     
57   H        55.1361   41.1269   87.3176  H     
58   H        54.1954   39.9903   89.5850  H     
59   H        52.6384   41.6222   89.2030  H     
60   H        52.9822   41.6652   87.4527  H     
61   H        53.7171   38.1226   87.3130  H     
62   H        53.4010   37.8861   89.0515  H     
63   H        51.0435   36.9174   87.6940  H     
64   H        48.7682   37.7178   87.3503  H     
65   H        48.2899   40.1003   87.4238  H     
66   H        50.0793   41.6918   87.8562  H     
67   H        64.5532   44.1979   79.1092  H     
68   H        65.8577   43.2726   80.9143  H     
69   H        62.2909   42.5457   83.0768  H     
70   H        70.0665   43.5957   83.4572  H     
71   H        70.7309   45.8696   83.3868  H     
72   H        69.3619   46.3848   84.4676  H     
73   H        69.8714   43.8406   86.4750  H     
74   H        71.2554   43.2449   85.4496  H     
75   H        71.9580   45.4003   85.2499  H     
76   H        70.6896   45.9321   86.2523  H     
@<TRIPOS>BOND
     1    1    2 2
     2    1    3 am
     3    1   33 1
     4    3    4 1
     5    4    5 1
     6    4    7 1
     7    5    6 2
     8    5    9 1
     9    7    8 1
    10    8   41 1
    11    9   10 1
    12    9   11 2
    13   10   13 2
    14   11   12 1
    15   12   13 1
    16   13   14 1
    17   14   15 1
    18   15   19 1
    19   15   20 2
    20   16   17 2
    21   16   20 1
    22   17   18 1
    23   17   21 1
    24   18   19 2
    25   21   22 2
    26   21   23 am
    27   23   24 1
    28   24   25 1
    29   24   26 1
    30   25   27 1
    31   26   32 1
    32   27   31 1
    33   27   32 2
    34   28   29 2
    35   28   32 1
    36   29   30 1
    37   30   31 2
    38   33   36 2
    39   33   37 1
    40   34   35 2
    41   34   38 1
    42   34   40 1
    43   35   36 1
    44   37   38 2
    45   38   39 1
    46   41   42 1
    47   41   43 1
    48   42   44 1
    49   43   44 1
    50    3   45 1
    51    4   46 1
    52    7   47 1
    53    7   48 1
    54    8   49 1
    55    8   50 1
    56   14   51 1
    57   14   52 1
    58   16   53 1
    59   18   54 1
    60   19   55 1
    61   20   56 1
    62   23   57 1
    63   24   58 1
    64   25   59 1
    65   25   60 1
    66   26   61 1
    67   26   62 1
    68   28   63 1
    69   29   64 1
    70   30   65 1
    71   31   66 1
    72   35   67 1
    73   36   68 1
    74   37   69 1
    75   41   70 1
    76   42   71 1
    77   42   72 1
    78   43   73 1
    79   43   74 1
    80   44   75 1
    81   44   76 1
@<TRIPOS>PROPERTY_DATA
  Total_Score	| 7.9039
  Crash		| -3.8685
  Polar		| 4.2695
  FragIndex	| 1
  FragRMSD	| 0.748

