@<TRIPOS>MOLECULE
BindingDB_14311
 75 79 0 0 0
SMALL
NO_CHARGES


@<TRIPOS>ATOM
1    C        62.6665   43.3980   79.3616  C     
2    C        63.6178   42.3813   79.1935  C     
3    C        64.4557   42.0181   80.2591  C     
4    C        64.3857   42.6882   81.5111  C     
5    C        63.4300   43.7355   81.6485  C     
6    C        62.5852   44.0850   80.5814  C     
7    F        61.6923   45.0272   80.7518  F     
8    F        61.8676   43.7061   78.3688  F     
9    C        65.1932   42.2674   82.5821  C     
10   O        65.7188   41.1587   82.5605  O     
11   N        65.3432   43.0225   83.6674  N     
12   C        65.9674   42.6883   84.9158  C     
13   C        64.9655   42.4163   85.9729  C     
14   O        65.3471   42.4563   87.1395  O     
15   C        66.9963   43.8216   85.2729  C     
16   C        68.4538   43.6362   84.7357  C     
17   C        69.4895   44.5159   85.4954  C     
18   C        70.7963   44.8403   84.7212  C     
19   N        71.8534   43.8348   84.9111  N     
20   C        63.6534   41.9662   85.8036  C     
21   N        62.9459   41.7606   84.6656  N     
22   N        62.8423   41.6922   86.8373  N     
23   O        61.6837   41.3200   86.3825  O     
24   C        61.7163   41.3560   85.0357  C     
25   C        60.5950   40.9666   84.1620  C     
26   C        59.3351   40.7594   84.9349  C     
27   C        57.6097   41.6327   86.4667  C     
28   C        57.0020   40.3558   86.5636  C     
29   C        57.5495   39.3038   85.7875  C     
30   C        58.6867   39.5018   84.9803  C     
31   C        58.7632   41.8214   85.6761  C     
32   C        55.9059   40.1370   87.3963  C     
33   O        55.7524   39.0220   87.8866  O     
34   N        55.0255   41.0938   87.6836  N     
35   C        53.8674   40.9440   88.5295  C     
36   C        52.8801   42.1354   88.3942  C     
37   C        53.0370   39.6554   88.2509  C     
38   C        51.5607   41.5006   88.3799  C     
39   C        50.4809   39.3159   88.2292  C     
40   C        49.2218   39.9472   88.2475  C     
41   C        49.1320   41.3541   88.3364  C     
42   C        50.3040   42.1342   88.3902  C     
43   C        51.6414   40.1111   88.2931  C     
44   H        63.6796   41.8831   78.3052  H     
45   H        65.1384   41.2759   80.0967  H     
46   H        63.3328   44.2396   82.5240  H     
47   H        64.9270   43.8973   83.6440  H     
48   H        66.5486   41.7700   84.8202  H     
49   H        66.6440   44.7973   84.8765  H     
50   H        67.0829   43.9592   86.3650  H     
51   H        68.7476   42.5767   84.8466  H     
52   H        68.4822   43.8853   83.6659  H     
53   H        69.0168   45.4795   85.7524  H     
54   H        69.7602   44.0356   86.4476  H     
55   H        70.5842   44.9505   83.6509  H     
56   H        71.1791   45.7977   85.0867  H     
57   H        71.8843   43.5376   85.8921  H     
58   H        72.7535   44.2622   84.6702  H     
59   H        71.6981   43.0216   84.3057  H     
60   H        60.4309   41.7386   83.4084  H     
61   H        60.8802   40.0575   83.6271  H     
62   H        57.2405   42.4284   86.9936  H     
63   H        57.1209   38.3776   85.8050  H     
64   H        59.0404   38.7064   84.4461  H     
65   H        59.1898   42.7491   85.6542  H     
66   H        55.1563   41.9673   87.2703  H     
67   H        54.2123   40.9285   89.5684  H     
68   H        52.9521   42.8206   89.2446  H     
69   H        53.0031   42.6978   87.4641  H     
70   H        53.2652   39.2359   87.2673  H     
71   H        53.2249   38.9092   89.0224  H     
72   H        50.5546   38.2949   88.1771  H     
73   H        48.3731   39.3799   88.2050  H     
74   H        48.2105   41.7986   88.3419  H     
75   H        50.2313   43.1531   88.4342  H     
@<TRIPOS>BOND
     1    1    2 1
     2    1    6 2
     3    1    8 1
     4    2    3 2
     5    3    4 1
     6    4    5 2
     7    4    9 1
     8    5    6 1
     9    6    7 1
    10    9   10 2
    11    9   11 am
    12   11   12 1
    13   12   13 1
    14   12   15 1
    15   13   14 2
    16   13   20 1
    17   15   16 1
    18   16   17 1
    19   17   18 1
    20   18   19 1
    21   20   21 1
    22   20   22 2
    23   21   24 2
    24   22   23 1
    25   23   24 1
    26   24   25 1
    27   25   26 1
    28   26   30 1
    29   26   31 2
    30   27   28 2
    31   27   31 1
    32   28   29 1
    33   28   32 1
    34   29   30 2
    35   32   33 2
    36   32   34 am
    37   34   35 1
    38   35   36 1
    39   35   37 1
    40   36   38 1
    41   37   43 1
    42   38   42 1
    43   38   43 2
    44   39   40 2
    45   39   43 1
    46   40   41 1
    47   41   42 2
    48    2   44 1
    49    3   45 1
    50    5   46 1
    51   11   47 1
    52   12   48 1
    53   15   49 1
    54   15   50 1
    55   16   51 1
    56   16   52 1
    57   17   53 1
    58   17   54 1
    59   18   55 1
    60   18   56 1
    61   19   57 1
    62   19   58 1
    63   19   59 1
    64   25   60 1
    65   25   61 1
    66   27   62 1
    67   29   63 1
    68   30   64 1
    69   31   65 1
    70   34   66 1
    71   35   67 1
    72   36   68 1
    73   36   69 1
    74   37   70 1
    75   37   71 1
    76   39   72 1
    77   40   73 1
    78   41   74 1
    79   42   75 1
@<TRIPOS>PROPERTY_DATA
  Total_Score	| 11.2137
  Crash		| -2.8468
  Polar		| 6.4642
  FragIndex	| 1
  FragRMSD	| 0.683

