@<TRIPOS>MOLECULE
BindingDB_15379
 52 54 0 0 0
SMALL
NO_CHARGES


@<TRIPOS>ATOM
1    C        -1.6414   11.0314   25.5441  C     
2    C        -1.1593    9.8383   27.5492  C     
3    N         0.1517    9.7304   27.1957  N     
4    N        -2.0366   10.4764   26.7241  N     
5    N        -2.5210   11.6438   24.7326  N     
6    C        -0.2857   10.9310   25.1893  C     
7    C         0.6002   10.2647   26.0299  C     
8    C         1.6804   10.9920   24.2823  C     
9    N         0.3947   11.3699   24.1286  N     
10   N         1.8168   10.2862   25.4406  N     
11   C         2.9934    9.6632   26.0019  C     
12   C         3.0227    8.1148   25.8064  C     
13   C         3.4459    7.6365   24.3802  C     
14   C         4.9802    7.5038   24.1963  C     
15   C         2.6770   11.3352   23.2334  C     
16   C         3.7722   12.2346   23.7116  C     
17   C         5.0832   11.7132   23.8160  C     
18   C         6.1539   12.4899   24.3004  C     
19   C         3.5579   13.5972   24.0696  C     
20   C         5.9246   13.8265   24.6793  C     
21   C         4.6293   14.3768   24.5712  C     
22   O         7.3802   11.9349   24.5625  O     
23   C         8.1677   11.6277   23.3964  C     
24   Cl        2.0281   14.3348   23.8966  Cl    
25   O         6.9551   14.5538   25.2079  O     
26   C         7.4868   15.5609   24.3314  C     
27   O         4.4245   15.6785   24.9530  O     
28   C         4.4446   15.8694   26.3787  C     
29   H        -1.4946    9.4435   28.4268  H     
30   H        -2.2163   12.0191   23.8868  H     
31   H        -3.4600   11.6940   24.9709  H     
32   H         3.9138   10.0734   25.5789  H     
33   H         3.0200    9.8753   27.0778  H     
34   H         3.7114    7.6973   26.5526  H     
35   H         2.0307    7.7108   26.0394  H     
36   H         2.9984    6.6523   24.1836  H     
37   H         3.0686    8.3260   23.6160  H     
38   H         5.4722    8.4455   24.4495  H     
39   H         5.2119    7.2515   23.1605  H     
40   H         5.3661    6.7123   24.8422  H     
41   H         3.0714   10.3974   22.8321  H     
42   H         2.1786   11.8411   22.3971  H     
43   H         5.2677   10.7417   23.5506  H     
44   H         7.7323   10.7907   22.8398  H     
45   H         9.1677   11.3324   23.7270  H     
46   H         8.2605   12.4964   22.7354  H     
47   H         7.8144   15.1366   23.3785  H     
48   H         8.3506   16.0179   24.8191  H     
49   H         6.7472   16.3419   24.1500  H     
50   H         3.6856   15.2605   26.8784  H     
51   H         4.2270   16.9193   26.5775  H     
52   H         5.4269   15.6377   26.7990  H     
@<TRIPOS>BOND
     1    1    4 1
     2    1    5 1
     3    1    6 2
     4    2    3 1
     5    2    4 2
     6    3    7 2
     7    6    7 1
     8    6    9 1
     9    7   10 1
    10    8    9 2
    11    8   10 1
    12    8   15 1
    13   10   11 1
    14   11   12 1
    15   12   13 1
    16   13   14 1
    17   15   16 1
    18   16   17 2
    19   16   19 1
    20   17   18 1
    21   18   20 2
    22   18   22 1
    23   19   21 2
    24   19   24 1
    25   20   21 1
    26   20   25 1
    27   21   27 1
    28   22   23 1
    29   25   26 1
    30   27   28 1
    31    2   29 1
    32    5   30 1
    33    5   31 1
    34   11   32 1
    35   11   33 1
    36   12   34 1
    37   12   35 1
    38   13   36 1
    39   13   37 1
    40   14   38 1
    41   14   39 1
    42   14   40 1
    43   15   41 1
    44   15   42 1
    45   17   43 1
    46   23   44 1
    47   23   45 1
    48   23   46 1
    49   26   47 1
    50   26   48 1
    51   26   49 1
    52   28   50 1
    53   28   51 1
    54   28   52 1
@<TRIPOS>PROPERTY_DATA
  Total_Score	| 8.9720
  Crash		| -0.5542
  Polar		| 1.3328
  FragIndex	| 1
  FragRMSD	| 0.182

