@<TRIPOS>MOLECULE
BindingDB_50165283
 56 58 0 0 0
SMALL
NO_CHARGES


@<TRIPOS>ATOM
1    N         0.4709   11.4883   24.1556  N     
2    C        -0.2218   11.0565   25.2118  C     
3    C         1.7380   11.0539   24.3092  C     
4    N         1.8486   10.3284   25.4595  N     
5    C         0.6380   10.3561   26.0526  C     
6    C        -1.5834   11.1424   25.5374  C     
7    N         0.1766    9.7990   27.2034  N     
8    C         6.0171   13.8394   24.7378  C     
9    N        -2.0066   10.5656   26.6950  N     
10   C         4.7167   14.3800   24.5946  C     
11   C         6.2441   12.4780   24.4348  C     
12   C         2.7707   11.3602   23.2876  C     
13   C         3.8807   12.2048   23.8030  C     
14   C        -1.1437    9.9174   27.5311  C     
15   C         3.6658   13.5657   24.1164  C     
16   C         5.1846   11.6796   23.9650  C     
17   C         2.9960    9.6051   25.9434  C     
18   N        -2.4510   11.7459   24.7082  N     
19   O         7.0434   14.5930   25.2450  O     
20   O         4.4692   15.7015   24.8575  O     
21   O         7.4659   11.9159   24.7078  O     
22   C         2.9822    8.0743   25.6724  C     
23   O         1.6978    7.6109   25.2062  O     
24   C         1.6495    6.6779   24.0950  C     
25   C         7.5820   15.5588   24.3253  C     
26   C         8.2261   11.5588   23.5390  C     
27   C         4.4566   16.0290   26.2594  C     
28   C         0.6559    5.5403   24.4498  C     
29   C         1.2033    7.4543   22.8294  C     
30   H         3.1339   10.4118   22.8943  H     
31   H         2.3114   11.8912   22.4489  H     
32   H        -1.4933    9.4980   28.3933  H     
33   H         2.7366   13.9778   24.0020  H     
34   H         5.3652   10.6943   23.7551  H     
35   H         3.8986   10.0125   25.4886  H     
36   H         3.0973    9.7737   27.0175  H     
37   H        -3.3943   11.7768   24.9190  H     
38   H        -2.1334   12.1212   23.8727  H     
39   H         3.7930    7.8314   24.9762  H     
40   H         3.1940    7.5458   26.6056  H     
41   H         2.6188    6.1984   23.8966  H     
42   H         7.9368   15.0927   23.4039  H     
43   H         8.4303   16.0481   24.8062  H     
44   H         6.8455   16.3245   24.0795  H     
45   H         7.7218   10.7904   22.9461  H     
46   H         9.1862   11.1581   23.8693  H     
47   H         8.4158   12.4348   22.9126  H     
48   H         3.7029   15.4528   26.8011  H     
49   H         4.2126   17.0881   26.3598  H     
50   H         5.4376   15.8607   26.7131  H     
51   H         0.9951    5.0203   25.3501  H     
52   H         0.6051    4.8092   23.6359  H     
53   H        -0.3469    5.9386   24.6314  H     
54   H         0.2468    7.9531   23.0047  H     
55   H         1.0999    6.7788   21.9759  H     
56   H         1.9489    8.2150   22.5825  H     
@<TRIPOS>BOND
     1    1    2 1
     2    1    3 2
     3    2    5 1
     4    2    6 2
     5    3    4 1
     6    3   12 1
     7    4    5 1
     8    4   17 1
     9    5    7 2
    10    6    9 1
    11    6   18 1
    12    7   14 1
    13    8   10 2
    14    8   11 1
    15    8   19 1
    16    9   14 2
    17   10   15 1
    18   10   20 1
    19   11   16 2
    20   11   21 1
    21   12   13 1
    22   13   15 2
    23   13   16 1
    24   17   22 1
    25   19   25 1
    26   20   27 1
    27   21   26 1
    28   22   23 1
    29   23   24 1
    30   24   28 1
    31   24   29 1
    32   12   30 1
    33   12   31 1
    34   14   32 1
    35   15   33 1
    36   16   34 1
    37   17   35 1
    38   17   36 1
    39   18   37 1
    40   18   38 1
    41   22   39 1
    42   22   40 1
    43   24   41 1
    44   25   42 1
    45   25   43 1
    46   25   44 1
    47   26   45 1
    48   26   46 1
    49   26   47 1
    50   27   48 1
    51   27   49 1
    52   27   50 1
    53   28   51 1
    54   28   52 1
    55   28   53 1
    56   29   54 1
    57   29   55 1
    58   29   56 1
@<TRIPOS>PROPERTY_DATA
  Total_Score	| 10.3100
  Crash		| -0.4979
  Polar		| 1.3749
  FragIndex	| 1
  FragRMSD	| 0.121

