@<TRIPOS>MOLECULE
BindingDB_50165297
 51 53 0 0 0
SMALL
NO_CHARGES


@<TRIPOS>ATOM
1    N        -2.0058   10.6000   26.7183  N     
2    C        -1.1191    9.9437   27.5168  C     
3    N         0.1882    9.8405   27.1458  N     
4    C        -1.6264   11.1817   25.5453  C     
5    N        -2.5197   11.8041   24.7660  N     
6    C        -0.2769   11.0841   25.1638  C     
7    C         0.6126   10.3990   25.9815  C     
8    N         1.8181   10.4248   25.3816  N     
9    C         1.6633   11.1231   24.2185  C     
10   N         0.3814   11.5203   24.0878  N     
11   C         3.0165    9.8290   25.9137  C     
12   C         3.4695    8.5559   25.1299  C     
13   C         3.0028    7.1901   25.7301  C     
14   C         3.9719    6.5580   26.4549  C     
15   C         4.8444    5.9911   27.0436  C     
16   C         2.6666   11.4419   23.1683  C     
17   C         3.7946   12.2682   23.6706  C     
18   C         3.5867   13.6076   24.0865  C     
19   C         4.6380   14.3792   24.6188  C     
20   C         5.9439   13.8337   24.6870  C     
21   C         6.1626   12.4975   24.2907  C     
22   C         5.0984   11.7318   23.7759  C     
23   O         6.9815   14.5414   25.2340  O     
24   C         7.5625   15.5376   24.3754  C     
25   O         4.3865   15.6756   24.9886  O     
26   C         4.2658   15.8907   26.4056  C     
27   O         7.3823   11.9180   24.5261  O     
28   C         8.1522   11.6528   23.3440  C     
29   H        -1.4378    9.5254   28.3925  H     
30   H        -2.2297   12.2137   23.9341  H     
31   H        -3.4564   11.8260   25.0156  H     
32   H         3.8133   10.5658   25.8695  H     
33   H         2.9005    9.5819   26.9745  H     
34   H         3.0958    8.6076   24.1038  H     
35   H         4.5598    8.5734   25.0369  H     
36   H         2.1077    7.3230   26.3498  H     
37   H         2.7262    6.5199   24.9129  H     
38   H         5.5235    5.5569   27.4829  H     
39   H         3.0217   10.5035   22.7396  H     
40   H         2.1878   11.9878   22.3478  H     
41   H         2.6497   14.0179   24.0188  H     
42   H         5.2713   10.7612   23.5045  H     
43   H         7.9497   15.0991   23.4520  H     
44   H         8.3942   16.0002   24.9125  H     
45   H         6.8430   16.3213   24.1320  H     
46   H         3.4488   15.3045   26.8323  H     
47   H         4.0519   16.9477   26.5686  H     
48   H         5.1928   15.6542   26.9304  H     
49   H         7.6911   10.8666   22.7433  H     
50   H         9.1401   11.3099   23.6525  H     
51   H         8.2729   12.5518   22.7365  H     
@<TRIPOS>BOND
     1    1    2 2
     2    1    4 1
     3    2    3 1
     4    3    7 2
     5    4    5 1
     6    4    6 2
     7    6    7 1
     8    6   10 1
     9    7    8 1
    10    8    9 1
    11    8   11 1
    12    9   10 2
    13    9   16 1
    14   11   12 1
    15   12   13 1
    16   13   14 1
    17   14   15 3
    18   16   17 1
    19   17   18 2
    20   17   22 1
    21   18   19 1
    22   19   20 2
    23   19   25 1
    24   20   21 1
    25   20   23 1
    26   21   22 2
    27   21   27 1
    28   23   24 1
    29   25   26 1
    30   27   28 1
    31    2   29 1
    32    5   30 1
    33    5   31 1
    34   11   32 1
    35   11   33 1
    36   12   34 1
    37   12   35 1
    38   13   36 1
    39   13   37 1
    40   15   38 1
    41   16   39 1
    42   16   40 1
    43   18   41 1
    44   22   42 1
    45   24   43 1
    46   24   44 1
    47   24   45 1
    48   26   46 1
    49   26   47 1
    50   26   48 1
    51   28   49 1
    52   28   50 1
    53   28   51 1
@<TRIPOS>PROPERTY_DATA
  Total_Score	| 9.0223
  Crash		| -0.6271
  Polar		| 1.3323
  FragIndex	| 1
  FragRMSD	| 0.389

