@<TRIPOS>MOLECULE
BindingDB_15381
 51 53 0 0 0
SMALL
NO_CHARGES


@<TRIPOS>ATOM
1    C        -1.5795   11.1175   25.5076  C     
2    C        -1.1273    9.9160   27.5126  C     
3    N         0.1858    9.7917   27.1742  N     
4    N        -1.9909   10.5654   26.6833  N     
5    N        -2.4539   11.7384   24.7024  N     
6    C        -0.2228   11.0048   25.1631  C     
7    C         0.6434   10.3227   26.0101  C     
8    C         1.7484   11.0401   24.2798  C     
9    N         0.4684   11.4293   24.1058  N     
10   N         1.8660   10.3302   25.4365  N     
11   C         3.0325    9.6922   25.9943  C     
12   C         3.0370    8.1397   25.8985  C     
13   C         3.0080    7.5689   24.4552  C     
14   C         2.7738   11.3494   23.2545  C     
15   C         3.8636   12.2526   23.7421  C     
16   C         5.1771   11.7368   23.8577  C     
17   C         6.2411   12.5227   24.3403  C     
18   C         3.6429   13.6185   24.0809  C     
19   C         6.0045   13.8628   24.7042  C     
20   C         4.7021   14.4044   24.5949  C     
21   O         7.4839   11.9888   24.5551  O     
22   C         8.2090   11.6153   23.3706  C     
23   Cl        2.1186   14.3558   23.8829  Cl    
24   O         7.0277   14.6025   25.2334  O     
25   C         7.5833   15.5681   24.3234  C     
26   O         4.4914   15.7046   24.9782  O     
27   C         4.3305   15.8462   26.4011  C     
28   C         1.7668    7.6014   23.8850  C     
29   C         0.6742    7.6286   23.3975  C     
30   F        -1.5647    9.4111   28.6288  F     
31   H        -2.1506   12.1200   23.8627  H     
32   H        -3.3922   11.7945   24.9426  H     
33   H         3.9410   10.0548   25.5150  H     
34   H         3.1108    9.9720   27.0485  H     
35   H         3.9596    7.7848   26.3671  H     
36   H         2.2094    7.7261   26.4805  H     
37   H         3.7044    8.1203   23.8201  H     
38   H         3.3307    6.5259   24.4796  H     
39   H         3.1655   10.3961   22.8966  H     
40   H         2.3037   11.8252   22.3902  H     
41   H         5.3707   10.7631   23.6101  H     
42   H         7.7930   10.7046   22.9309  H     
43   H         9.2482   11.4187   23.6469  H     
44   H         8.1979   12.4166   22.6280  H     
45   H         7.9160   15.1026   23.3926  H     
46   H         8.4499   16.0267   24.8007  H     
47   H         6.8605   16.3548   24.1009  H     
48   H         3.4906   15.2559   26.7787  H     
49   H         4.1342   16.8957   26.6184  H     
50   H         5.2415   15.5552   26.9278  H     
51   H        -0.1676    7.6513   23.0269  H     
@<TRIPOS>BOND
     1    1    4 1
     2    1    5 1
     3    1    6 2
     4    2    3 1
     5    2    4 2
     6    2   30 1
     7    3    7 2
     8    6    7 1
     9    6    9 1
    10    7   10 1
    11    8    9 2
    12    8   10 1
    13    8   14 1
    14   10   11 1
    15   11   12 1
    16   12   13 1
    17   13   28 1
    18   14   15 1
    19   15   16 2
    20   15   18 1
    21   16   17 1
    22   17   19 2
    23   17   21 1
    24   18   20 2
    25   18   23 1
    26   19   20 1
    27   19   24 1
    28   20   26 1
    29   21   22 1
    30   24   25 1
    31   26   27 1
    32   28   29 3
    33    5   31 1
    34    5   32 1
    35   11   33 1
    36   11   34 1
    37   12   35 1
    38   12   36 1
    39   13   37 1
    40   13   38 1
    41   14   39 1
    42   14   40 1
    43   16   41 1
    44   22   42 1
    45   22   43 1
    46   22   44 1
    47   25   45 1
    48   25   46 1
    49   25   47 1
    50   27   48 1
    51   27   49 1
    52   27   50 1
    53   29   51 1
@<TRIPOS>PROPERTY_DATA
  Total_Score	| 9.3726
  Crash		| -0.7886
  Polar		| 1.3681
  FragIndex	| 1
  FragRMSD	| 0.130

