@<TRIPOS>MOLECULE
BindingDB_50165270
 51 53 0 0 0
SMALL
NO_CHARGES


@<TRIPOS>ATOM
1    C         0.6787   10.3559   26.0114  C     
2    C        -0.1926   11.0304   25.1654  C     
3    N         0.5030   11.4644   24.1059  N     
4    N         1.9030   10.3656   25.4423  N     
5    C         1.7816   11.0646   24.2769  C     
6    N         0.2430    9.8072   27.1737  N     
7    N        -1.9530   10.5213   26.6841  N     
8    C        -1.5566   11.0929   25.5127  C     
9    C        -1.0710    9.8960   27.5131  C     
10   C         6.0232   13.8017   24.7654  C     
11   C         6.2759   12.4656   24.3940  C     
12   C         4.7109   14.3245   24.6541  C     
13   C         2.8141   11.3310   23.2378  C     
14   C         3.9263   12.1911   23.7279  C     
15   C         1.7848    7.6232   23.8806  C     
16   C         0.7151    7.6407   23.3602  C     
17   C         3.6853   13.5288   24.1100  C     
18   C         5.2353   11.6785   23.8538  C     
19   N        -2.4531   11.6831   24.7056  N     
20   F        -1.4786    9.3695   28.6296  F     
21   C         3.0397    9.7027   26.0159  C     
22   O         7.0246   14.5408   25.3369  O     
23   O         7.4967   11.9103   24.6763  O     
24   O         4.4204   15.6131   25.0317  O     
25   C         3.0135    7.5837   24.4876  C     
26   C         7.5889   15.5536   24.4818  C     
27   C         4.2649   15.8044   26.4499  C     
28   C         8.3070   11.6467   23.5224  C     
29   C         2.9962    8.1507   25.9331  C     
30   H         3.1805   10.3669   22.8802  H     
31   H         2.3575   11.8271   22.3747  H     
32   H        -0.1178    7.6509   22.9622  H     
33   H         2.7472   13.9253   24.0120  H     
34   H         5.4325   10.7075   23.5966  H     
35   H        -3.3935   11.7092   24.9440  H     
36   H        -2.1601   12.0814   23.8725  H     
37   H         3.9587   10.0430   25.5512  H     
38   H         3.1167    9.9820   27.0689  H     
39   H         3.3286    6.5418   24.5170  H     
40   H         3.7314    8.1366   23.8843  H     
41   H         8.0724   15.1219   23.5986  H     
42   H         8.3475   16.0911   25.0552  H     
43   H         6.8313   16.2757   24.1621  H     
44   H         3.4372   15.2159   26.8567  H     
45   H         4.0441   16.8594   26.6204  H     
46   H         5.1825   15.5602   26.9915  H     
47   H         7.8667   10.8615   22.9011  H     
48   H         9.2849   11.2989   23.8613  H     
49   H         8.4506   12.5503   22.9235  H     
50   H         3.8848    7.7731   26.4456  H     
51   H         2.1350    7.7671   26.4814  H     
@<TRIPOS>BOND
     1    1    2 1
     2    1    4 1
     3    1    6 2
     4    2    3 1
     5    2    8 2
     6    3    5 2
     7    4    5 1
     8    4   21 1
     9    5   13 1
    10    6    9 1
    11    7    8 1
    12    7    9 2
    13    8   19 1
    14    9   20 1
    15   10   11 1
    16   10   12 2
    17   10   22 1
    18   11   18 2
    19   11   23 1
    20   12   17 1
    21   12   24 1
    22   13   14 1
    23   14   17 2
    24   14   18 1
    25   15   16 3
    26   15   25 1
    27   21   29 1
    28   22   26 1
    29   23   28 1
    30   24   27 1
    31   25   29 1
    32   13   30 1
    33   13   31 1
    34   16   32 1
    35   17   33 1
    36   18   34 1
    37   19   35 1
    38   19   36 1
    39   21   37 1
    40   21   38 1
    41   25   39 1
    42   25   40 1
    43   26   41 1
    44   26   42 1
    45   26   43 1
    46   27   44 1
    47   27   45 1
    48   27   46 1
    49   28   47 1
    50   28   48 1
    51   28   49 1
    52   29   50 1
    53   29   51 1
@<TRIPOS>PROPERTY_DATA
  Total_Score	| 9.0426
  Crash		| -0.5799
  Polar		| 1.3320
  FragIndex	| 1
  FragRMSD	| 0.131

