@<TRIPOS>MOLECULE
BindingDB_18019
 57 59 0 0 0
SMALL
NO_CHARGES


@<TRIPOS>ATOM
1    C        27.6841  108.0553  131.5397  C     
2    C        26.3365  108.1165  129.5738  C     
3    C        26.8168  106.8228  129.2037  C     
4    C        27.7590  106.2051  130.0647  C     
5    N        26.7887  108.6654  130.7312  N     
6    N        28.1602  106.8362  131.1963  N     
7    N        28.0544  108.6561  132.6774  N     
8    N        28.2985  104.9970  129.8119  N     
9    C        25.3180  108.9151  128.8388  C     
10   C        23.9549  108.9744  129.5632  C     
11   C        26.2813  106.1193  128.0962  C     
12   C        26.5334  106.5174  126.7747  C     
13   C        25.8522  105.8933  125.7202  C     
14   C        25.4080  105.0274  128.3350  C     
15   C        24.6164  104.4496  127.3027  C     
16   C        24.8879  104.8886  125.9707  C     
17   C        24.1357  104.3558  124.8081  C     
18   C        23.4130  103.0369  125.1347  C     
19   C        22.6908  103.1640  126.4952  C     
20   N        23.6051  103.5351  127.5696  N     
21   C        23.2312  103.0650  128.9153  C     
22   C        22.1898  103.9851  129.6580  C     
23   C        22.7898  104.9429  130.7402  C     
24   C        22.0114  106.2778  130.9664  C     
25   C        20.9143  106.2047  131.9475  C     
26   C        20.1030  105.2470  134.0825  C     
27   O        19.9858  107.1879  131.9566  O     
28   O        20.9797  105.2918  132.9571  O     
29   H        28.6260  108.2055  133.3106  H     
30   H        27.6862  109.5211  132.8973  H     
31   H        28.9603  104.6220  130.4201  H     
32   H        28.0372  104.4880  129.0262  H     
33   H        25.6634  109.9433  128.6962  H     
34   H        25.1703  108.4973  127.8402  H     
35   H        23.5353  107.9730  129.6786  H     
36   H        23.2523  109.5859  128.9964  H     
37   H        24.0743  109.4269  130.5526  H     
38   H        27.1892  107.2761  126.5710  H     
39   H        26.0513  106.2050  124.7670  H     
40   H        25.3793  104.6679  129.2686  H     
41   H        23.4113  105.1107  124.4902  H     
42   H        24.8185  104.1743  123.9755  H     
43   H        22.7000  102.7959  124.3375  H     
44   H        24.1455  102.2270  125.1992  H     
45   H        21.9153  103.9304  126.4134  H     
46   H        22.1833  102.2121  126.6826  H     
47   H        22.8001  102.0592  128.8403  H     
48   H        24.1167  102.8993  129.5397  H     
49   H        21.6484  104.5721  128.8980  H     
50   H        21.4512  103.3441  130.1531  H     
51   H        22.8688  104.3870  131.6875  H     
52   H        23.7939  105.2308  130.4732  H     
53   H        22.7134  107.0162  131.3508  H     
54   H        21.6370  106.6529  130.0081  H     
55   H        20.2215  106.1590  134.6716  H     
56   H        20.3566  104.3858  134.7032  H     
57   H        19.0663  105.1520  133.7538  H     
@<TRIPOS>BOND
     1    1    5 2
     2    1    6 1
     3    1    7 1
     4    2    3 2
     5    2    5 1
     6    2    9 1
     7    3    4 1
     8    3   11 1
     9    4    6 2
    10    4    8 1
    11    9   10 1
    12   11   12 2
    13   11   14 1
    14   12   13 1
    15   13   16 2
    16   14   15 2
    17   15   16 1
    18   15   20 1
    19   16   17 1
    20   17   18 1
    21   18   19 1
    22   19   20 1
    23   20   21 1
    24   21   22 1
    25   22   23 1
    26   23   24 1
    27   24   25 1
    28   25   27 2
    29   25   28 1
    30   26   28 1
    31    7   29 1
    32    7   30 1
    33    8   31 1
    34    8   32 1
    35    9   33 1
    36    9   34 1
    37   10   35 1
    38   10   36 1
    39   10   37 1
    40   12   38 1
    41   13   39 1
    42   14   40 1
    43   17   41 1
    44   17   42 1
    45   18   43 1
    46   18   44 1
    47   19   45 1
    48   19   46 1
    49   21   47 1
    50   21   48 1
    51   22   49 1
    52   22   50 1
    53   23   51 1
    54   23   52 1
    55   24   53 1
    56   24   54 1
    57   26   55 1
    58   26   56 1
    59   26   57 1
@<TRIPOS>PROPERTY_DATA
  Total_Score	| 12.4567
  Crash		| -2.3691
  Polar		| 6.7806
  FragIndex	| 1
  FragRMSD	| 0.292

