@<TRIPOS>MOLECULE
BindingDB_18037
 52 54 0 0 0
SMALL
NO_CHARGES


@<TRIPOS>ATOM
1    C        27.5888  108.0620  131.5599  C     
2    C        26.1220  108.0770  129.6790  C     
3    C        26.6353  106.8152  129.2668  C     
4    C        27.6519  106.2248  130.0636  C     
5    N        26.6227  108.6415  130.8102  N     
6    N        28.0901  106.8635  131.1777  N     
7    N        28.0235  108.6745  132.6723  N     
8    N        28.2111  105.0283  129.7887  N     
9    C        25.0688  108.8440  128.9686  C     
10   C        23.6846  108.7021  129.6418  C     
11   C        26.1311  106.1313  128.1353  C     
12   C        26.8115  106.1765  126.9063  C     
13   C        26.2985  105.5024  125.7896  C     
14   C        24.9151  105.4185  128.2205  C     
15   C        24.3619  104.7160  127.1133  C     
16   C        25.0877  104.7821  125.8870  C     
17   C        24.6187  103.9980  124.7225  C     
18   C        23.0836  104.0562  124.6390  C     
19   C        22.4809  103.5580  125.9829  C     
20   N        23.1840  103.9834  127.1887  N     
21   C        22.5967  103.6108  128.4709  C     
22   C        21.6366  102.3908  128.5210  C     
23   C        21.3313  101.8920  129.9635  C     
24   O        22.5382  101.3831  130.5712  O     
25   C        22.4977  100.0450  131.1025  C     
26   H        28.6529  108.2310  133.2606  H     
27   H        27.6517  109.5334  132.9289  H     
28   H        28.9072  104.6666  130.3684  H     
29   H        27.9172  104.5167  129.0162  H     
30   H        25.3474  109.9000  128.9487  H     
31   H        24.9733  108.5256  127.9301  H     
32   H        23.3779  107.6544  129.6734  H     
33   H        22.9438  109.2608  129.0671  H     
34   H        23.7074  109.0983  130.6616  H     
35   H        27.6812  106.7011  126.8220  H     
36   H        26.8294  105.5268  124.9171  H     
37   H        24.4159  105.4360  129.1113  H     
38   H        25.0440  104.3575  123.7822  H     
39   H        24.9255  102.9601  124.8652  H     
40   H        22.7698  105.0837  124.4356  H     
41   H        22.7390  103.4260  123.8119  H     
42   H        21.4455  103.9067  126.0123  H     
43   H        22.4695  102.4660  125.9530  H     
44   H        23.4047  103.3590  129.1644  H     
45   H        22.0752  104.4807  128.8911  H     
46   H        20.6956  102.6496  128.0439  H     
47   H        22.0950  101.5665  127.9566  H     
48   H        20.9809  102.7365  130.5680  H     
49   H        20.5255  101.1462  129.9302  H     
50   H        21.8046   99.9806  131.9488  H     
51   H        23.4991   99.7966  131.4629  H     
52   H        22.2167   99.3153  130.3367  H     
@<TRIPOS>BOND
     1    1    5 2
     2    1    6 1
     3    1    7 1
     4    2    3 2
     5    2    5 1
     6    2    9 1
     7    3    4 1
     8    3   11 1
     9    4    6 2
    10    4    8 1
    11    9   10 1
    12   11   12 2
    13   11   14 1
    14   12   13 1
    15   13   16 2
    16   14   15 2
    17   15   16 1
    18   15   20 1
    19   16   17 1
    20   17   18 1
    21   18   19 1
    22   19   20 1
    23   20   21 1
    24   21   22 1
    25   22   23 1
    26   23   24 1
    27   24   25 1
    28    7   26 1
    29    7   27 1
    30    8   28 1
    31    8   29 1
    32    9   30 1
    33    9   31 1
    34   10   32 1
    35   10   33 1
    36   10   34 1
    37   12   35 1
    38   13   36 1
    39   14   37 1
    40   17   38 1
    41   17   39 1
    42   18   40 1
    43   18   41 1
    44   19   42 1
    45   19   43 1
    46   21   44 1
    47   21   45 1
    48   22   46 1
    49   22   47 1
    50   23   48 1
    51   23   49 1
    52   25   50 1
    53   25   51 1
    54   25   52 1
@<TRIPOS>PROPERTY_DATA
  Total_Score	| 11.2693
  Crash		| -2.2512
  Polar		| 4.7058
  FragIndex	| 1
  FragRMSD	| 0.095

