@<TRIPOS>MOLECULE
BindingDB_17972
 53 55 0 0 0
SMALL
NO_CHARGES


@<TRIPOS>ATOM
1    C        27.6937  108.1410  131.4781  C     
2    C        27.7410  106.2740  130.0238  C     
3    C        26.7364  106.8685  129.2151  C     
4    C        26.2137  108.1329  129.6167  C     
5    N        26.7230  108.7247  130.7345  N     
6    N        28.1873  106.9344  131.1251  N     
7    N        28.1147  108.7652  132.5914  N     
8    N        28.2899  105.0707  129.7535  N     
9    C        25.1501  108.8935  128.9327  C     
10   C        23.7820  108.7983  129.6609  C     
11   C        26.1485  106.1371  128.1662  C     
12   C        24.9327  105.4497  128.4143  C     
13   C        26.7178  106.0905  126.8705  C     
14   C        26.1071  105.3223  125.8579  C     
15   C        24.2786  104.7178  127.4017  C     
16   C        24.9221  104.6155  126.1375  C     
17   C        23.6740  102.6762  125.6132  C     
18   C        22.5345  103.1985  126.5392  C     
19   O        24.4352  103.8117  125.1320  O     
20   N        23.0662  104.0702  127.5858  N     
21   C        22.2126  104.2721  128.7551  C     
22   C        22.4305  103.1674  129.8388  C     
23   C        21.4049  101.9730  129.8283  C     
24   O        22.1180  100.7211  129.7332  O     
25   C        21.5413   99.6434  130.5228  C     
26   C        24.5522  101.5871  126.3226  C     
27   H        28.7061  108.3158  133.2129  H     
28   H        27.7814  109.6409  132.8272  H     
29   H        28.9817  104.7083  130.3370  H     
30   H        27.9741  104.5480  128.9937  H     
31   H        25.4558  109.9440  128.8873  H     
32   H        25.0013  108.5607  127.8974  H     
33   H        23.4703  107.7547  129.7275  H     
34   H        23.0246  109.3539  129.1053  H     
35   H        23.8450  109.2150  130.6730  H     
36   H        24.5549  105.4714  129.3639  H     
37   H        27.5693  106.6053  126.6693  H     
38   H        26.5340  105.2637  124.9294  H     
39   H        23.2111  102.2167  124.7350  H     
40   H        21.8182  103.7926  125.9442  H     
41   H        22.0022  102.3349  126.9566  H     
42   H        22.4099  105.2781  129.1780  H     
43   H        21.1490  104.3083  128.4375  H     
44   H        23.4650  102.7826  129.7353  H     
45   H        22.3924  103.6855  130.8048  H     
46   H        20.8012  102.0733  130.7343  H     
47   H        20.7251  102.0606  128.9801  H     
48   H        21.7566   99.7812  131.5912  H     
49   H        21.9825   98.7140  130.1807  H     
50   H        20.4544   99.5895  130.3714  H     
51   H        24.9416  101.9249  127.2958  H     
52   H        25.4110  101.3458  125.6926  H     
53   H        23.9481  100.6863  126.4819  H     
@<TRIPOS>BOND
     1    1    5 2
     2    1    6 1
     3    1    7 1
     4    2    3 1
     5    2    6 2
     6    2    8 1
     7    3    4 2
     8    3   11 1
     9    4    5 1
    10    4    9 1
    11    9   10 1
    12   11   12 1
    13   11   13 2
    14   12   15 2
    15   13   14 1
    16   14   16 2
    17   15   16 1
    18   15   20 1
    19   16   19 1
    20   17   18 1
    21   17   19 1
    22   17   26 1
    23   18   20 1
    24   20   21 1
    25   21   22 1
    26   22   23 1
    27   23   24 1
    28   24   25 1
    29    7   27 1
    30    7   28 1
    31    8   29 1
    32    8   30 1
    33    9   31 1
    34    9   32 1
    35   10   33 1
    36   10   34 1
    37   10   35 1
    38   12   36 1
    39   13   37 1
    40   14   38 1
    41   17   39 1
    42   18   40 1
    43   18   41 1
    44   21   42 1
    45   21   43 1
    46   22   44 1
    47   22   45 1
    48   23   46 1
    49   23   47 1
    50   25   48 1
    51   25   49 1
    52   25   50 1
    53   26   51 1
    54   26   52 1
    55   26   53 1
@<TRIPOS>PROPERTY_DATA
  Total_Score	| 10.7829
  Crash		| -1.6369
  Polar		| 4.8279
  FragIndex	| 1
  FragRMSD	| 0.193

