@<TRIPOS>MOLECULE
BindingDB_18036
 45 47 0 0 0
SMALL
NO_CHARGES


@<TRIPOS>ATOM
1    C        27.6293  108.0522  131.5723  C     
2    C        26.1721  108.1319  129.6903  C     
3    C        26.6963  106.8895  129.2325  C     
4    C        27.7074  106.2737  130.0133  C     
5    N        26.6624  108.6591  130.8435  N     
6    N        28.1373  106.8720  131.1526  N     
7    N        28.0605  108.6265  132.7069  N     
8    N        28.2549  105.0771  129.7043  N     
9    C        25.1046  108.9161  129.0080  C     
10   C        23.7231  108.7441  129.6784  C     
11   C        26.1630  106.2331  128.1052  C     
12   C        25.0805  105.3591  128.2762  C     
13   C        24.5038  104.7130  127.1506  C     
14   C        26.6724  106.4661  126.8046  C     
15   C        26.1181  105.8049  125.7000  C     
16   C        25.0424  104.9180  125.8529  C     
17   N        24.5780  104.2608  124.7623  N     
18   C        23.3649  103.5512  124.6154  C     
19   C        23.1336  102.3216  125.4338  C     
20   C        21.8564  101.7187  125.3949  C     
21   C        21.5562  100.6186  126.2161  C     
22   C        22.5331  100.1093  127.0945  C     
23   C        23.8180  100.6653  127.1239  C     
24   C        24.1294  101.7619  126.2735  C     
25   F        24.7226  100.2113  127.9452  F     
26   F        20.3654  100.0856  126.1791  F     
27   H        28.6991  108.1737  133.2746  H     
28   H        27.6909  109.4725  132.9899  H     
29   H        28.9357  104.6897  130.2788  H     
30   H        27.9492  104.5829  128.9263  H     
31   H        25.3764  109.9750  129.0243  H     
32   H        25.0115  108.6323  127.9575  H     
33   H        23.3921  107.7050  129.6274  H     
34   H        22.9914  109.3576  129.1535  H     
35   H        23.7551  109.0558  130.7249  H     
36   H        24.6784  105.1591  129.1940  H     
37   H        23.6997  104.1224  127.3095  H     
38   H        27.4361  107.1291  126.6636  H     
39   H        26.5188  105.9753  124.7681  H     
40   H        25.1632  104.2887  123.9703  H     
41   H        22.5470  104.2548  124.8113  H     
42   H        23.2886  103.2520  123.5597  H     
43   H        21.1217  102.1018  124.7886  H     
44   H        22.3089   99.3265  127.7135  H     
45   H        25.0759  102.1284  126.2956  H     
@<TRIPOS>BOND
     1    1    5 2
     2    1    6 1
     3    1    7 1
     4    2    3 2
     5    2    5 1
     6    2    9 1
     7    3    4 1
     8    3   11 1
     9    4    6 2
    10    4    8 1
    11    9   10 1
    12   11   12 2
    13   11   14 1
    14   12   13 1
    15   13   16 2
    16   14   15 2
    17   15   16 1
    18   16   17 1
    19   17   18 1
    20   18   19 1
    21   19   20 2
    22   19   24 1
    23   20   21 1
    24   21   22 2
    25   21   26 1
    26   22   23 1
    27   23   24 2
    28   23   25 1
    29    7   27 1
    30    7   28 1
    31    8   29 1
    32    8   30 1
    33    9   31 1
    34    9   32 1
    35   10   33 1
    36   10   34 1
    37   10   35 1
    38   12   36 1
    39   13   37 1
    40   14   38 1
    41   15   39 1
    42   17   40 1
    43   18   41 1
    44   18   42 1
    45   20   43 1
    46   22   44 1
    47   24   45 1
@<TRIPOS>PROPERTY_DATA
  Total_Score	| 10.2627
  Crash		| -1.1708
  Polar		| 4.5596
  FragIndex	| 1
  FragRMSD	| 0.121

