@<TRIPOS>MOLECULE
BindingDB_18020
 52 54 0 0 0
SMALL
NO_CHARGES


@<TRIPOS>ATOM
1    C        27.5926  108.0211  131.5214  C     
2    C        26.1236  107.9916  129.6494  C     
3    C        26.6143  106.7077  129.2750  C     
4    C        27.6433  106.1449  130.0724  C     
5    N        26.6297  108.5883  130.7606  N     
6    N        28.0915  106.8124  131.1670  N     
7    N        28.0250  108.6609  132.6172  N     
8    N        28.2143  104.9558  129.8021  N     
9    C        25.0731  108.7565  128.9247  C     
10   C        23.7110  108.6738  129.6462  C     
11   C        26.0851  106.0190  128.1535  C     
12   C        26.6024  106.2830  126.8744  C     
13   C        25.9706  105.7497  125.7455  C     
14   C        24.9510  105.1844  128.2853  C     
15   C        24.2519  104.6529  127.1618  C     
16   C        24.8100  104.9531  125.8757  C     
17   C        24.1380  104.5156  124.6252  C     
18   C        23.3626  103.2069  124.8477  C     
19   C        22.4270  103.3811  126.0625  C     
20   N        23.0812  103.9041  127.2642  N     
21   C        22.3240  103.7043  128.4943  C     
22   C        22.1098  102.2210  128.8949  C     
23   C        23.9613  101.2481  130.1981  C     
24   C        24.3691  100.7935  131.5033  C     
25   N        22.7716  101.8267  130.0955  N     
26   O        24.7009  101.0436  129.2404  O     
27   H        28.6566  108.2387  133.2164  H     
28   H        27.6486  109.5226  132.8541  H     
29   H        28.9289  104.6171  130.3671  H     
30   H        27.9259  104.4363  129.0352  H     
31   H        25.3775  109.8046  128.8509  H     
32   H        24.9405  108.3964  127.9031  H     
33   H        23.3892  107.6341  129.7387  H     
34   H        22.9621  109.2172  129.0688  H     
35   H        23.7742  109.1175  130.6431  H     
36   H        27.4153  106.8947  126.7535  H     
37   H        26.3469  105.9778  124.8211  H     
38   H        24.6343  104.9891  129.2327  H     
39   H        23.4501  105.3018  124.3001  H     
40   H        24.8601  104.3516  123.8217  H     
41   H        22.7820  102.9579  123.9543  H     
42   H        24.0633  102.3895  125.0380  H     
43   H        21.6177  104.0571  125.7786  H     
44   H        21.9739  102.4032  126.2444  H     
45   H        22.7350  104.2384  129.3487  H     
46   H        21.3316  104.1425  128.3701  H     
47   H        21.0383  102.0840  129.0710  H     
48   H        22.3783  101.5458  128.0796  H     
49   H        24.5257  101.6529  132.1576  H     
50   H        25.2938  100.2179  131.4451  H     
51   H        23.5993  100.1518  131.9354  H     
52   H        22.2458  101.8982  130.9112  H     
@<TRIPOS>BOND
     1    1    5 2
     2    1    6 1
     3    1    7 1
     4    2    3 2
     5    2    5 1
     6    2    9 1
     7    3    4 1
     8    3   11 1
     9    4    6 2
    10    4    8 1
    11    9   10 1
    12   11   12 2
    13   11   14 1
    14   12   13 1
    15   13   16 2
    16   14   15 2
    17   15   16 1
    18   15   20 1
    19   16   17 1
    20   17   18 1
    21   18   19 1
    22   19   20 1
    23   20   21 1
    24   21   22 1
    25   22   25 1
    26   23   24 1
    27   23   25 am
    28   23   26 2
    29    7   27 1
    30    7   28 1
    31    8   29 1
    32    8   30 1
    33    9   31 1
    34    9   32 1
    35   10   33 1
    36   10   34 1
    37   10   35 1
    38   12   36 1
    39   13   37 1
    40   14   38 1
    41   17   39 1
    42   17   40 1
    43   18   41 1
    44   18   42 1
    45   19   43 1
    46   19   44 1
    47   21   45 1
    48   21   46 1
    49   22   47 1
    50   22   48 1
    51   24   49 1
    52   24   50 1
    53   24   51 1
    54   25   52 1
@<TRIPOS>PROPERTY_DATA
  Total_Score	| 11.5163
  Crash		| -1.4000
  Polar		| 5.9848
  FragIndex	| 1
  FragRMSD	| 0.173

