@<TRIPOS>MOLECULE
BindingDB_18018
 54 56 0 0 0
SMALL
NO_CHARGES


@<TRIPOS>ATOM
1    C        27.6611  108.0417  131.4887  C     
2    C        26.2296  108.0091  129.5823  C     
3    C        26.7565  106.7366  129.2067  C     
4    C        27.7518  106.1674  130.0469  C     
5    N        26.7083  108.5992  130.7064  N     
6    N        28.1666  106.8312  131.1510  N     
7    N        28.0561  108.6857  132.5939  N     
8    N        28.2896  104.9511  129.8242  N     
9    C        25.1638  108.7575  128.8634  C     
10   C        23.8403  108.8146  129.6598  C     
11   C        26.1988  105.9904  128.1449  C     
12   C        26.7628  105.9972  126.8537  C     
13   C        26.1445  105.2735  125.8267  C     
14   C        25.0127  105.2656  128.3775  C     
15   C        24.2743  104.6461  127.3377  C     
16   C        24.9156  104.6020  126.0540  C     
17   C        24.3417  103.7629  124.9757  C     
18   C        22.8021  103.8050  125.0038  C     
19   C        22.2909  103.4679  126.4266  C     
20   N        23.0084  104.1024  127.5279  N     
21   C        22.3283  104.0521  128.8270  C     
22   C        22.1786  105.4115  129.5818  C     
23   C        20.9223  105.5138  130.4908  C     
24   C        21.1219  106.2854  131.7302  C     
25   O        22.2373  106.0426  132.4733  O     
26   O        20.1627  107.1283  132.2101  O     
27   C        20.2611  107.8817  133.4206  C     
28   H        28.6644  108.2667  133.2181  H     
29   H        27.6613  109.5442  132.8157  H     
30   H        28.9646  104.6050  130.4226  H     
31   H        27.9926  104.4110  129.0729  H     
32   H        25.5136  109.7801  128.6871  H     
33   H        24.9537  108.3224  127.8897  H     
34   H        23.4619  107.8023  129.8365  H     
35   H        23.0875  109.3730  129.0996  H     
36   H        23.9813  109.3090  130.6272  H     
37   H        27.6239  106.5072  126.6562  H     
38   H        26.5896  105.2442  124.9011  H     
39   H        24.6959  105.2002  129.3392  H     
40   H        24.6783  104.0860  123.9855  H     
41   H        24.6696  102.7353  125.1357  H     
42   H        22.4644  104.8019  124.7061  H     
43   H        22.4038  103.0808  124.2833  H     
44   H        21.2291  103.7347  126.4402  H     
45   H        22.3594  102.3876  126.5694  H     
46   H        21.3195  103.6378  128.7180  H     
47   H        22.8564  103.3512  129.4748  H     
48   H        23.0504  105.5585  130.2140  H     
49   H        22.1616  106.2349  128.8595  H     
50   H        20.1160  105.9771  129.9176  H     
51   H        20.5855  104.5210  130.7852  H     
52   H        20.3060  107.2077  134.2793  H     
53   H        19.3842  108.5189  133.5110  H     
54   H        21.1556  108.5066  133.4084  H     
@<TRIPOS>BOND
     1    1    5 2
     2    1    6 1
     3    1    7 1
     4    2    3 2
     5    2    5 1
     6    2    9 1
     7    3    4 1
     8    3   11 1
     9    4    6 2
    10    4    8 1
    11    9   10 1
    12   11   12 2
    13   11   14 1
    14   12   13 1
    15   13   16 2
    16   14   15 2
    17   15   16 1
    18   15   20 1
    19   16   17 1
    20   17   18 1
    21   18   19 1
    22   19   20 1
    23   20   21 1
    24   21   22 1
    25   22   23 1
    26   23   24 1
    27   24   25 2
    28   24   26 1
    29   26   27 1
    30    7   28 1
    31    7   29 1
    32    8   30 1
    33    8   31 1
    34    9   32 1
    35    9   33 1
    36   10   34 1
    37   10   35 1
    38   10   36 1
    39   12   37 1
    40   13   38 1
    41   14   39 1
    42   17   40 1
    43   17   41 1
    44   18   42 1
    45   18   43 1
    46   19   44 1
    47   19   45 1
    48   21   46 1
    49   21   47 1
    50   22   48 1
    51   22   49 1
    52   23   50 1
    53   23   51 1
    54   27   52 1
    55   27   53 1
    56   27   54 1
@<TRIPOS>PROPERTY_DATA
  Total_Score	| 12.4193
  Crash		| -2.4577
  Polar		| 5.6904
  FragIndex	| 1
  FragRMSD	| 0.214

