@<TRIPOS>MOLECULE
BindingDB_18039
 53 56 0 0 0
SMALL
NO_CHARGES


@<TRIPOS>ATOM
1    C        27.8608  108.1587  131.4064  C     
2    C        26.4210  108.1045  129.5088  C     
3    C        26.8781  106.7932  129.1845  C     
4    C        27.8661  106.2268  130.0336  C     
5    N        26.9313  108.7209  130.6026  N     
6    N        28.3182  106.9180  131.1119  N     
7    N        28.2542  108.8162  132.5088  N     
8    N        28.3700  104.9971  129.8329  N     
9    C        25.3623  108.8651  128.7929  C     
10   C        24.0892  109.0874  129.6494  C     
11   C        26.1852  105.9699  128.2573  C     
12   C        26.3053  106.0880  126.8551  C     
13   C        25.4690  105.3338  125.9965  C     
14   C        25.2765  105.0338  128.7891  C     
15   C        24.5033  104.4748  126.5604  C     
16   C        24.4121  104.3264  127.9443  C     
17   C        22.8378  103.0677  127.1178  C     
18   C        23.5125  103.6523  126.0333  C     
19   C        21.7551  102.1949  126.8879  C     
20   C        23.1319  103.3768  124.7031  C     
21   C        22.0567  102.4934  124.4812  C     
22   C        21.3765  101.9023  125.5629  C     
23   N        23.3999  103.4899  128.2744  N     
24   C        23.0101  103.1526  129.6262  C     
25   C        22.2950  104.2876  130.4129  C     
26   C        22.4275  105.7249  129.8317  C     
27   O        21.8131  106.7676  130.6084  O     
28   C        20.4414  106.5636  130.9872  C     
29   H        28.8169  108.3877  133.1804  H     
30   H        27.8762  109.6928  132.6882  H     
31   H        29.0577  104.6488  130.4161  H     
32   H        28.0612  104.4538  129.0903  H     
33   H        25.7697  109.8405  128.5018  H     
34   H        25.0539  108.3787  127.8664  H     
35   H        23.7218  108.1304  130.0246  H     
36   H        23.3142  109.5493  129.0391  H     
37   H        24.3007  109.7428  130.4975  H     
38   H        26.9882  106.7386  126.4558  H     
39   H        25.5557  105.4286  124.9860  H     
40   H        25.2698  104.8549  129.7878  H     
41   H        21.2408  101.7691  127.6652  H     
42   H        23.6232  103.8061  123.9177  H     
43   H        21.7632  102.2750  123.5287  H     
44   H        20.6057  101.2543  125.3892  H     
45   H        22.3569  102.2815  129.6244  H     
46   H        23.8927  102.8281  130.1875  H     
47   H        21.2352  104.0290  130.5135  H     
48   H        22.7242  104.3171  131.4227  H     
49   H        23.4907  105.9793  129.8065  H     
50   H        22.0359  105.7603  128.8059  H     
51   H        19.8223  106.1748  130.1718  H     
52   H        20.0351  107.5209  131.3065  H     
53   H        20.4009  105.8758  131.8343  H     
@<TRIPOS>BOND
     1    1    5 1
     2    1    6 2
     3    1    7 1
     4    2    3 1
     5    2    5 2
     6    2    9 1
     7    3    4 2
     8    3   11 1
     9    4    6 1
    10    4    8 1
    11    9   10 1
    12   11   12 1
    13   11   14 2
    14   12   13 2
    15   13   15 1
    16   14   16 1
    17   15   16 2
    18   15   18 1
    19   16   23 1
    20   17   18 2
    21   17   19 1
    22   17   23 1
    23   18   20 1
    24   19   22 2
    25   20   21 2
    26   21   22 1
    27   23   24 1
    28   24   25 1
    29   25   26 1
    30   26   27 1
    31   27   28 1
    32    7   29 1
    33    7   30 1
    34    8   31 1
    35    8   32 1
    36    9   33 1
    37    9   34 1
    38   10   35 1
    39   10   36 1
    40   10   37 1
    41   12   38 1
    42   13   39 1
    43   14   40 1
    44   19   41 1
    45   20   42 1
    46   21   43 1
    47   22   44 1
    48   24   45 1
    49   24   46 1
    50   25   47 1
    51   25   48 1
    52   26   49 1
    53   26   50 1
    54   28   51 1
    55   28   52 1
    56   28   53 1
@<TRIPOS>PROPERTY_DATA
  Total_Score	| 11.0224
  Crash		| -1.9397
  Polar		| 4.9497
  FragIndex	| 1
  FragRMSD	| 0.525

