@<TRIPOS>MOLECULE
BindingDB_18014
 45 47 0 0 0
SMALL
NO_CHARGES


@<TRIPOS>ATOM
1    C        27.6397  108.0454  131.5597  C     
2    C        26.2099  108.1305  129.6627  C     
3    C        26.7039  106.8692  129.2280  C     
4    C        27.7046  106.2452  130.0280  C     
5    N        26.6888  108.6630  130.8187  N     
6    N        28.1397  106.8516  131.1639  N     
7    N        28.0514  108.6145  132.6997  N     
8    N        28.2356  105.0394  129.7411  N     
9    C        25.1431  108.9074  128.9804  C     
10   C        23.7889  108.7571  129.7166  C     
11   C        26.1584  106.1914  128.1105  C     
12   C        26.7215  106.3570  126.8198  C     
13   C        26.1609  105.6774  125.7177  C     
14   C        25.0448  104.8286  125.8741  C     
15   C        24.4590  104.6999  127.1582  C     
16   C        25.0138  105.3770  128.2722  C     
17   N        24.5778  104.1896  124.7711  N     
18   C        23.3125  103.5518  124.6173  C     
19   C        23.0393  102.3305  125.4393  C     
20   C        21.7416  101.7551  125.3689  C     
21   C        21.4262  100.5901  126.0915  C     
22   C        22.4052   99.9512  126.8788  C     
23   C        23.7018  100.5259  126.9910  C     
24   C        24.0044  101.6947  126.2641  C     
25   Cl       24.9248   99.8140  127.9323  Cl    
26   Cl       21.9916   98.5018  127.6652  Cl    
27   H        28.6876  108.1572  133.2654  H     
28   H        27.6574  109.4482  133.0044  H     
29   H        28.9331  104.6649  130.3132  H     
30   H        27.9228  104.5237  128.9721  H     
31   H        25.4312  109.9686  128.9539  H     
32   H        25.0338  108.5902  127.9341  H     
33   H        23.4408  107.7240  129.6225  H     
34   H        23.0616  109.4336  129.2589  H     
35   H        23.9084  109.0159  130.7790  H     
36   H        27.5275  106.9726  126.6704  H     
37   H        26.5962  105.7881  124.7912  H     
38   H        23.6176  104.1229  127.2876  H     
39   H        24.5957  105.2570  129.2031  H     
40   H        25.1350  104.2522  123.9785  H     
41   H        22.5273  104.2955  124.8699  H     
42   H        23.2344  103.2596  123.5578  H     
43   H        21.0199  102.2034  124.8028  H     
44   H        20.4809  100.1987  126.0163  H     
45   H        24.9489  102.0873  126.3520  H     
@<TRIPOS>BOND
     1    1    5 2
     2    1    6 1
     3    1    7 1
     4    2    3 2
     5    2    5 1
     6    2    9 1
     7    3    4 1
     8    3   11 1
     9    4    6 2
    10    4    8 1
    11    9   10 1
    12   11   12 2
    13   11   16 1
    14   12   13 1
    15   13   14 2
    16   14   15 1
    17   14   17 1
    18   15   16 2
    19   17   18 1
    20   18   19 1
    21   19   20 2
    22   19   24 1
    23   20   21 1
    24   21   22 2
    25   22   23 1
    26   22   26 1
    27   23   24 2
    28   23   25 1
    29    7   27 1
    30    7   28 1
    31    8   29 1
    32    8   30 1
    33    9   31 1
    34    9   32 1
    35   10   33 1
    36   10   34 1
    37   10   35 1
    38   12   36 1
    39   13   37 1
    40   15   38 1
    41   16   39 1
    42   17   40 1
    43   18   41 1
    44   18   42 1
    45   20   43 1
    46   21   44 1
    47   24   45 1
@<TRIPOS>PROPERTY_DATA
  Total_Score	| 10.0670
  Crash		| -1.1449
  Polar		| 4.6326
  FragIndex	| 1
  FragRMSD	| 0.113

