@<TRIPOS>MOLECULE
BindingDB_18017
 51 53 0 0 0
SMALL
NO_CHARGES


@<TRIPOS>ATOM
1    C        27.6478  108.0637  131.5727  C     
2    C        26.1219  108.1100  129.7470  C     
3    C        26.5295  106.8017  129.3644  C     
4    C        27.5564  106.1867  130.1240  C     
5    N        26.6879  108.6798  130.8402  N     
6    N        28.0747  106.8322  131.2005  N     
7    N        28.1302  108.6836  132.6540  N     
8    N        28.0826  104.9809  129.8229  N     
9    C        25.0535  108.9053  129.0860  C     
10   C        23.7006  108.6750  129.7888  C     
11   C        25.9659  106.1466  128.2446  C     
12   C        26.4471  106.4608  126.9628  C     
13   C        25.8554  105.8854  125.8325  C     
14   C        24.9092  105.2160  128.3869  C     
15   C        24.3129  104.5750  127.2615  C     
16   C        24.8021  104.9545  125.9670  C     
17   C        24.2683  104.3588  124.7116  C     
18   C        23.4621  103.0657  124.9697  C     
19   C        22.5354  103.2856  126.1775  C     
20   N        23.3160  103.6107  127.3652  N     
21   C        23.1285  102.7307  128.5160  C     
22   C        21.6497  102.5654  129.0210  C     
23   C        21.3432  101.1842  129.4641  C     
24   O        20.1349  100.6314  129.1761  O     
25   C        19.7249   99.2892  129.4662  C     
26   O        22.2859  100.4659  130.1307  O     
27   H        28.7470  108.2288  133.2435  H     
28   H        27.7780  109.5509  132.9083  H     
29   H        28.8108  104.6194  130.3539  H     
30   H        27.7587  104.4809  129.0583  H     
31   H        25.2975  109.9724  129.1305  H     
32   H        24.9617  108.6499  128.0314  H     
33   H        23.4216  107.6219  129.7481  H     
34   H        22.9256  109.2588  129.2922  H     
35   H        23.7583  108.9873  130.8366  H     
36   H        27.2132  107.1237  126.8443  H     
37   H        26.2120  106.1436  124.9083  H     
38   H        24.5420  105.0353  129.3265  H     
39   H        23.6193  105.0928  124.2236  H     
40   H        25.0888  104.1182  124.0284  H     
41   H        22.8814  102.7978  124.0743  H     
42   H        24.1561  102.2420  125.1876  H     
43   H        21.8538  104.1112  125.9607  H     
44   H        21.9280  102.3822  126.2868  H     
45   H        23.5401  101.7593  128.2080  H     
46   H        23.7380  103.0211  129.3797  H     
47   H        21.4880  103.2441  129.8727  H     
48   H        20.9372  102.8470  128.2387  H     
49   H        20.3139   98.5927  128.8686  H     
50   H        18.6725   99.1728  129.2091  H     
51   H        19.8591   99.0575  130.5244  H     
@<TRIPOS>BOND
     1    1    5 2
     2    1    6 1
     3    1    7 1
     4    2    3 2
     5    2    5 1
     6    2    9 1
     7    3    4 1
     8    3   11 1
     9    4    6 2
    10    4    8 1
    11    9   10 1
    12   11   12 2
    13   11   14 1
    14   12   13 1
    15   13   16 2
    16   14   15 2
    17   15   16 1
    18   15   20 1
    19   16   17 1
    20   17   18 1
    21   18   19 1
    22   19   20 1
    23   20   21 1
    24   21   22 1
    25   22   23 1
    26   23   24 1
    27   23   26 2
    28   24   25 1
    29    7   27 1
    30    7   28 1
    31    8   29 1
    32    8   30 1
    33    9   31 1
    34    9   32 1
    35   10   33 1
    36   10   34 1
    37   10   35 1
    38   12   36 1
    39   13   37 1
    40   14   38 1
    41   17   39 1
    42   17   40 1
    43   18   41 1
    44   18   42 1
    45   19   43 1
    46   19   44 1
    47   21   45 1
    48   21   46 1
    49   22   47 1
    50   22   48 1
    51   25   49 1
    52   25   50 1
    53   25   51 1
@<TRIPOS>PROPERTY_DATA
  Total_Score	| 11.5696
  Crash		| -1.1526
  Polar		| 5.7665
  FragIndex	| 1
  FragRMSD	| 0.205

