@<TRIPOS>MOLECULE
BindingDB_17971
 53 55 0 0 0
SMALL
NO_CHARGES


@<TRIPOS>ATOM
1    C        27.7405  108.1372  131.5483  C     
2    C        27.7609  106.2174  130.1559  C     
3    C        26.7226  106.7714  129.3659  C     
4    C        26.2303  108.0599  129.7222  C     
5    N        26.7578  108.6850  130.8041  N     
6    N        28.2405  106.9201  131.2172  N     
7    N        28.1870  108.8046  132.6286  N     
8    N        28.3079  105.0096  129.9046  N     
9    C        25.1433  108.7882  129.0111  C     
10   C        23.7885  108.6623  129.7465  C     
11   C        26.0988  106.0079  128.3461  C     
12   C        25.1078  105.0584  128.6875  C     
13   C        26.3681  106.2717  126.9900  C     
14   C        25.6254  105.6129  126.0014  C     
15   C        24.3289  104.3756  127.7127  C     
16   C        24.6142  104.6992  126.3484  C     
17   C        23.4354  102.8520  125.5579  C     
18   C        22.6181  102.8510  126.8733  C     
19   O        23.9005  104.1815  125.2986  O     
20   N        23.3085  103.4745  127.9909  N     
21   C        22.8638  103.1344  129.3559  C     
22   C        21.4245  102.5497  129.5754  C     
23   C        21.3651  101.0187  129.8134  C     
24   O        20.0652  100.5353  129.4293  O     
25   C        19.8566   99.1260  129.6119  C     
26   C        22.6041  102.4099  124.3369  C     
27   H        28.8307  108.3935  133.2262  H     
28   H        27.8041  109.6665  132.8683  H     
29   H        29.0001  104.6598  130.4796  H     
30   H        27.9855  104.4658  129.1657  H     
31   H        25.4042  109.8489  128.9209  H     
32   H        25.0277  108.4121  127.9892  H     
33   H        23.4842  107.6171  129.8025  H     
34   H        23.0296  109.2143  129.1930  H     
35   H        23.8601  109.0720  130.7525  H     
36   H        24.9610  104.8794  129.6900  H     
37   H        27.0601  106.9714  126.7249  H     
38   H        25.7993  105.8388  125.0184  H     
39   H        24.2934  102.1705  125.6592  H     
40   H        21.6791  103.3956  126.6926  H     
41   H        22.3799  101.8056  127.0708  H     
42   H        23.6177  102.4326  129.7658  H     
43   H        22.8969  104.0495  129.9757  H     
44   H        20.9796  103.0374  130.4564  H     
45   H        20.7844  102.8033  128.7375  H     
46   H        22.1340  100.5205  129.2186  H     
47   H        21.5493  100.8195  130.8803  H     
48   H        20.5913   98.5581  129.0385  H     
49   H        18.8629   98.8738  129.2401  H     
50   H        19.9162   98.8453  130.6657  H     
51   H        22.3210  101.3604  124.4319  H     
52   H        23.2129  102.5405  123.4398  H     
53   H        21.6965  103.0124  124.2368  H     
@<TRIPOS>BOND
     1    1    5 2
     2    1    6 1
     3    1    7 1
     4    2    3 1
     5    2    6 2
     6    2    8 1
     7    3    4 2
     8    3   11 1
     9    4    5 1
    10    4    9 1
    11    9   10 1
    12   11   12 1
    13   11   13 2
    14   12   15 2
    15   13   14 1
    16   14   16 2
    17   15   16 1
    18   15   20 1
    19   16   19 1
    20   17   18 1
    21   17   19 1
    22   17   26 1
    23   18   20 1
    24   20   21 1
    25   21   22 1
    26   22   23 1
    27   23   24 1
    28   24   25 1
    29    7   27 1
    30    7   28 1
    31    8   29 1
    32    8   30 1
    33    9   31 1
    34    9   32 1
    35   10   33 1
    36   10   34 1
    37   10   35 1
    38   12   36 1
    39   13   37 1
    40   14   38 1
    41   17   39 1
    42   18   40 1
    43   18   41 1
    44   21   42 1
    45   21   43 1
    46   22   44 1
    47   22   45 1
    48   23   46 1
    49   23   47 1
    50   25   48 1
    51   25   49 1
    52   25   50 1
    53   26   51 1
    54   26   52 1
    55   26   53 1
@<TRIPOS>PROPERTY_DATA
  Total_Score	| 10.2888
  Crash		| -2.0124
  Polar		| 5.6178
  FragIndex	| 1
  FragRMSD	| 0.364

