@<TRIPOS>MOLECULE
BindingDB_17968
 50 52 0 0 0
SMALL
NO_CHARGES


@<TRIPOS>ATOM
1    C        27.4925  107.9865  131.5652  C     
2    C        27.6484  106.1810  130.0354  C     
3    C        26.6653  106.7760  129.2032  C     
4    C        26.1090  108.0174  129.6239  C     
5    N        26.5463  108.5667  130.7897  N     
6    N        28.0275  106.8017  131.1793  N     
7    N        27.8914  108.5777  132.6972  N     
8    N        28.2436  105.0067  129.7483  N     
9    C        25.0610  108.7807  128.8911  C     
10   C        23.6718  108.6212  129.5463  C     
11   C        26.2411  106.1297  128.0146  C     
12   C        25.1917  105.1875  128.0437  C     
13   C        26.8416  106.4480  126.7814  C     
14   C        26.3838  105.8476  125.6022  C     
15   C        24.6923  104.5756  126.8631  C     
16   C        25.3087  104.9396  125.6354  C     
17   C        23.5175  104.1325  124.3696  C     
18   C        23.0433  103.2770  125.5697  C     
19   O        24.9305  104.3672  124.4500  O     
20   N        23.6557  103.6601  126.8322  N     
21   C        23.1760  102.9709  128.0240  C     
22   C        21.9898  103.7105  128.7168  C     
23   C        21.8505  103.4121  130.2340  C     
24   O        23.1226  103.2554  130.8962  O     
25   C        23.6359  104.4205  131.5568  C     
26   H        28.5420  108.1468  133.2732  H     
27   H        27.5004  109.4240  132.9719  H     
28   H        28.9157  104.6393  130.3456  H     
29   H        27.9984  104.5159  128.9479  H     
30   H        25.3329  109.8400  128.8754  H     
31   H        24.9816  108.4620  127.8503  H     
32   H        23.3688  107.5726  129.5430  H     
33   H        22.9344  109.1923  128.9812  H     
34   H        23.6846  108.9862  130.5764  H     
35   H        24.7659  104.9783  128.9428  H     
36   H        27.6038  107.1263  126.7353  H     
37   H        26.8323  106.0795  124.7160  H     
38   H        23.3061  103.6092  123.4383  H     
39   H        22.9894  105.0907  124.3513  H     
40   H        21.9575  103.3712  125.6428  H     
41   H        23.2868  102.2319  125.3729  H     
42   H        22.8415  101.9560  127.7816  H     
43   H        24.0065  102.8202  128.7177  H     
44   H        22.1071  104.7875  128.5760  H     
45   H        21.0557  103.4247  128.2173  H     
46   H        21.2514  104.1914  130.7109  H     
47   H        21.3104  102.4724  130.3563  H     
48   H        23.6913  105.2748  130.8867  H     
49   H        24.6396  104.1996  131.9196  H     
50   H        23.0016  104.6824  132.4045  H     
@<TRIPOS>BOND
     1    1    5 2
     2    1    6 1
     3    1    7 1
     4    2    3 1
     5    2    6 2
     6    2    8 1
     7    3    4 2
     8    3   11 1
     9    4    5 1
    10    4    9 1
    11    9   10 1
    12   11   12 1
    13   11   13 2
    14   12   15 2
    15   13   14 1
    16   14   16 2
    17   15   16 1
    18   15   20 1
    19   16   19 1
    20   17   18 1
    21   17   19 1
    22   18   20 1
    23   20   21 1
    24   21   22 1
    25   22   23 1
    26   23   24 1
    27   24   25 1
    28    7   26 1
    29    7   27 1
    30    8   28 1
    31    8   29 1
    32    9   30 1
    33    9   31 1
    34   10   32 1
    35   10   33 1
    36   10   34 1
    37   12   35 1
    38   13   36 1
    39   14   37 1
    40   17   38 1
    41   17   39 1
    42   18   40 1
    43   18   41 1
    44   21   42 1
    45   21   43 1
    46   22   44 1
    47   22   45 1
    48   23   46 1
    49   23   47 1
    50   25   48 1
    51   25   49 1
    52   25   50 1
@<TRIPOS>PROPERTY_DATA
  Total_Score	| 11.5624
  Crash		| -1.4177
  Polar		| 4.6963
  FragIndex	| 1
  FragRMSD	| 0.250

