@<TRIPOS>MOLECULE
BindingDB_18038
 62 65 0 0 0
SMALL
NO_CHARGES


@<TRIPOS>ATOM
1    C        27.5595  108.0514  131.5323  C     
2    C        26.2099  108.1664  129.5754  C     
3    C        26.6761  106.8816  129.1762  C     
4    C        27.6291  106.2455  130.0185  C     
5    N        28.0414  106.8428  131.1600  N     
6    N        26.6605  108.6964  130.7491  N     
7    N        28.1655  105.0351  129.7371  N     
8    N        27.9775  108.6083  132.6786  N     
9    C        25.2054  108.9865  128.8420  C     
10   C        23.9348  109.2871  129.6927  C     
11   C        26.1433  106.2039  128.0495  C     
12   C        25.3009  105.0869  128.2279  C     
13   C        26.4600  106.6262  126.7435  C     
14   C        25.8456  106.0099  125.6552  C     
15   C        24.7004  104.3905  127.1392  C     
16   C        24.9355  104.9423  125.8376  C     
17   C        24.2096  104.4327  124.6420  C     
18   C        23.1946  103.3113  124.9371  C     
19   C        23.7269  102.4121  126.0962  C     
20   N        23.9037  103.2560  127.2954  N     
21   C        23.3616  102.8764  128.5964  C     
22   C        22.2836  103.9288  129.0190  C     
23   C        21.9277  103.9499  130.5274  C     
24   O        21.7100  105.2571  131.1014  O     
25   C        20.9527  106.1512  130.2641  C     
26   C        22.9040  101.1471  126.1593  C     
27   C        22.7980   98.6899  126.1006  C     
28   C        23.5426   99.8801  126.0793  C     
29   C        21.4958  101.1813  126.2429  C     
30   C        20.7462   99.9914  126.2749  C     
31   C        21.3986   98.7434  126.2081  C     
32   H        28.8125  104.6397  130.3459  H     
33   H        27.9097  104.5582  128.9243  H     
34   H        27.6167  109.4610  132.9762  H     
35   H        28.5985  108.1311  133.2492  H     
36   H        25.6814  109.9394  128.5704  H     
37   H        24.9135  108.5108  127.9011  H     
38   H        23.0419  109.0014  129.1302  H     
39   H        23.8863  110.3676  129.8882  H     
40   H        23.9420  108.7548  130.6567  H     
41   H        25.1263  104.7886  129.1904  H     
42   H        27.1043  107.4017  126.5862  H     
43   H        26.0690  106.3361  124.7123  H     
44   H        23.6740  105.2574  124.1485  H     
45   H        24.9648  104.0701  123.9441  H     
46   H        22.2430  103.7609  125.2205  H     
47   H        23.0412  102.7331  124.0288  H     
48   H        24.7470  102.1022  125.7963  H     
49   H        22.8852  101.9179  128.6016  H     
50   H        24.1573  102.8073  129.3299  H     
51   H        22.5987  104.9595  128.7216  H     
52   H        21.3712  103.7115  128.4404  H     
53   H        21.0330  103.3408  130.7060  H     
54   H        22.7470  103.5246  131.1046  H     
55   H        21.4403  106.3323  129.3262  H     
56   H        20.8054  107.1130  130.7400  H     
57   H        19.9712  105.8014  129.9907  H     
58   H        23.2725   97.7915  126.0349  H     
59   H        24.5598   99.8151  125.9891  H     
60   H        20.9953  102.0678  126.2784  H     
61   H        19.7287  100.0225  126.3510  H     
62   H        20.8552   97.8792  126.2311  H     
@<TRIPOS>BOND
     1    1    5 1
     2    1    6 2
     3    1    8 1
     4    2    3 2
     5    2    6 1
     6    2    9 1
     7    3    4 1
     8    3   11 1
     9    4    5 2
    10    4    7 1
    11    9   10 1
    12   11   12 1
    13   11   13 2
    14   12   15 2
    15   13   14 1
    16   14   16 2
    17   15   16 1
    18   15   20 1
    19   16   17 1
    20   17   18 1
    21   18   19 1
    22   19   20 1
    23   19   26 1
    24   20   21 1
    25   21   22 1
    26   22   23 1
    27   23   24 1
    28   24   25 1
    29   26   28 1
    30   26   29 2
    31   27   28 2
    32   27   31 1
    33   29   30 1
    34   30   31 2
    35    7   32 1
    36    7   33 1
    37    8   34 1
    38    8   35 1
    39    9   36 1
    40    9   37 1
    41   10   38 1
    42   10   39 1
    43   10   40 1
    44   12   41 1
    45   13   42 1
    46   14   43 1
    47   17   44 1
    48   17   45 1
    49   18   46 1
    50   18   47 1
    51   19   48 1
    52   21   49 1
    53   21   50 1
    54   22   51 1
    55   22   52 1
    56   23   53 1
    57   23   54 1
    58   25   55 1
    59   25   56 1
    60   25   57 1
    61   27   58 1
    62   28   59 1
    63   29   60 1
    64   30   61 1
    65   31   62 1
@<TRIPOS>PROPERTY_DATA
  Total_Score	| 12.6575
  Crash		| -2.5528
  Polar		| 4.6043
  FragIndex	| 1
  FragRMSD	| 0.316

