@<TRIPOS>MOLECULE
BindingDB_17970
 53 55 0 0 0
SMALL
NO_CHARGES


@<TRIPOS>ATOM
1    C        27.6778  108.0896  131.4265  C     
2    C        27.7277  106.1983  130.0089  C     
3    C        26.7237  106.7592  129.1856  C     
4    C        26.2261  108.0410  129.5487  C     
5    N        26.7381  108.6646  130.6451  N     
6    N        28.1760  106.8801  131.0934  N     
7    N        28.1169  108.7383  132.5223  N     
8    N        28.2672  104.9879  129.7874  N     
9    C        25.0891  108.7324  128.8854  C     
10   C        23.8040  108.5984  129.7328  C     
11   C        26.0908  105.9471  128.2155  C     
12   C        25.1957  104.9459  128.6476  C     
13   C        26.3243  106.0964  126.8318  C     
14   C        25.6350  105.2878  125.9092  C     
15   C        24.4685  104.1274  127.7438  C     
16   C        24.6873  104.3379  126.3538  C     
17   C        22.7062  103.1776  125.7941  C     
18   C        22.7553  102.4582  127.1732  C     
19   O        24.0420  103.5841  125.4012  O     
20   N        23.5751  103.1522  128.1502  N     
21   C        23.4722  102.6768  129.5195  C     
22   C        24.7296  101.8653  129.9488  C     
23   C        24.5787  101.1903  131.3452  C     
24   O        24.9907  102.0371  132.4511  O     
25   C        26.2960  101.7756  132.9947  C     
26   C        22.1018  102.2627  124.6911  C     
27   H        28.7020  108.3032  133.1570  H     
28   H        27.7676  109.6117  132.7443  H     
29   H        28.9402  104.6244  130.3825  H     
30   H        27.9781  104.4591  129.0262  H     
31   H        25.3279  109.7929  128.7626  H     
32   H        24.8982  108.3368  127.8831  H     
33   H        23.5079  107.5562  129.8115  H     
34   H        22.9916  109.1441  129.2625  H     
35   H        23.9530  108.9947  130.7344  H     
36   H        25.0714  104.8291  129.6472  H     
37   H        26.9945  106.7900  126.4890  H     
38   H        25.8194  105.3932  124.9037  H     
39   H        22.0606  104.0654  125.8761  H     
40   H        21.7092  102.3721  127.5180  H     
41   H        23.1683  101.4439  127.0404  H     
42   H        23.2829  103.5068  130.2059  H     
43   H        22.6075  102.0120  129.6536  H     
44   H        24.9115  101.0877  129.1976  H     
45   H        25.6105  102.5192  129.9497  H     
46   H        23.5102  100.9507  131.5156  H     
47   H        25.1198  100.2258  131.3479  H     
48   H        26.3368  100.7636  133.4197  H     
49   H        26.4791  102.5093  133.7897  H     
50   H        27.0758  101.8792  132.2329  H     
51   H        22.6895  101.3383  124.5919  H     
52   H        22.1121  102.7925  123.7244  H     
53   H        21.0596  101.9983  124.9387  H     
@<TRIPOS>BOND
     1    1    5 2
     2    1    6 1
     3    1    7 1
     4    2    3 1
     5    2    6 2
     6    2    8 1
     7    3    4 2
     8    3   11 1
     9    4    5 1
    10    4    9 1
    11    9   10 1
    12   11   12 1
    13   11   13 2
    14   12   15 2
    15   13   14 1
    16   14   16 2
    17   15   16 1
    18   15   20 1
    19   16   19 1
    20   17   18 1
    21   17   19 1
    22   17   26 1
    23   18   20 1
    24   20   21 1
    25   21   22 1
    26   22   23 1
    27   23   24 1
    28   24   25 1
    29    7   27 1
    30    7   28 1
    31    8   29 1
    32    8   30 1
    33    9   31 1
    34    9   32 1
    35   10   33 1
    36   10   34 1
    37   10   35 1
    38   12   36 1
    39   13   37 1
    40   14   38 1
    41   17   39 1
    42   18   40 1
    43   18   41 1
    44   21   42 1
    45   21   43 1
    46   22   44 1
    47   22   45 1
    48   23   46 1
    49   23   47 1
    50   25   48 1
    51   25   49 1
    52   25   50 1
    53   26   51 1
    54   26   52 1
    55   26   53 1
@<TRIPOS>PROPERTY_DATA
  Total_Score	| 11.5559
  Crash		| -0.9739
  Polar		| 6.0466
  FragIndex	| 1
  FragRMSD	| 0.439

