@<TRIPOS>MOLECULE
BindingDB_16429
 17 17 0 0 0
SMALL
NO_CHARGES


@<TRIPOS>ATOM
1    C        16.7564   23.6527   62.9724  C     
2    C        15.9677   22.5517   63.4279  C     
3    C        15.6152   21.5023   62.5553  C     
4    C        16.0514   21.5115   61.2249  C     
5    C        16.8623   22.5602   60.7657  C     
6    C        17.2352   23.6106   61.6245  C     
7    C        17.0728   24.8221   63.8570  C     
8    C        16.2463   26.0230   63.5563  C     
9    O        16.0093   26.8831   64.5643  O     
10   O        16.2204   26.5675   62.3105  O     
11   Cl       15.3824   22.3764   65.0043  Cl    
12   Cl       18.2883   24.7674   60.9479  Cl    
13   H        15.0516   20.7092   62.8840  H     
14   H        15.7882   20.7543   60.5918  H     
15   H        17.2000   22.5370   59.7937  H     
16   H        16.9299   24.5737   64.9089  H     
17   H        18.1280   25.0929   63.7557  H     
@<TRIPOS>BOND
     1    1    2 2
     2    1    6 1
     3    1    7 1
     4    2    3 1
     5    2   11 1
     6    3    4 2
     7    4    5 1
     8    5    6 2
     9    6   12 1
    10    7    8 1
    11    8    9 2
    12    8   10 1
    13    3   13 1
    14    4   14 1
    15    5   15 1
    16    7   16 1
    17    7   17 1
@<TRIPOS>PROPERTY_DATA
  Total_Score	| 1.8238
  Crash		| -2.3712
  Polar		| 3.8258
  FragIndex	| 1
  FragRMSD	| 0.730

