@<TRIPOS>MOLECULE
BindingDB_16425
 17 17 0 0 0
SMALL
NO_CHARGES


@<TRIPOS>ATOM
1    C        16.8076   23.9101   63.0874  C     
2    C        16.7884   23.3202   61.7981  C     
3    C        16.1651   22.0666   61.6029  C     
4    C        15.5561   21.3941   62.6735  C     
5    C        15.5551   21.9783   63.9512  C     
6    C        16.1655   23.2259   64.1513  C     
7    C        17.4549   25.2162   63.3923  C     
8    C        16.4509   26.2922   63.4240  C     
9    O        16.0798   26.8634   64.5927  O     
10   O        15.8819   26.7454   62.2754  O     
11   Br       17.5240   24.1293   60.2874  Br    
12   H        16.1470   21.6438   60.6723  H     
13   H        15.1055   20.4913   62.5253  H     
14   H        15.1078   21.4930   64.7345  H     
15   H        16.1514   23.6312   65.0886  H     
16   H        17.9541   25.1558   64.3619  H     
17   H        18.2269   25.4791   62.6644  H     
@<TRIPOS>BOND
     1    1    2 2
     2    1    6 1
     3    1    7 1
     4    2    3 1
     5    2   11 1
     6    3    4 2
     7    4    5 1
     8    5    6 2
     9    7    8 1
    10    8    9 2
    11    8   10 1
    12    3   12 1
    13    4   13 1
    14    5   14 1
    15    6   15 1
    16    7   16 1
    17    7   17 1
@<TRIPOS>PROPERTY_DATA
  Total_Score	| 4.4919
  Crash		| -0.3561
  Polar		| 4.2358
  FragIndex	| 1
  FragRMSD	| 0.206

