@<TRIPOS>MOLECULE
BindingDB_16427
 17 17 0 0 0
SMALL
NO_CHARGES


@<TRIPOS>ATOM
1    C        16.8624   23.8015   63.2077  C     
2    C        15.9720   22.9616   63.9163  C     
3    C        15.4505   21.8106   63.3180  C     
4    C        15.8094   21.4590   62.0023  C     
5    C        16.7171   22.2800   61.2947  C     
6    C        17.2386   23.4399   61.8954  C     
7    C        17.3861   25.0430   63.8394  C     
8    C        16.5316   26.2180   63.5268  C     
9    O        15.9786   26.9455   64.5277  O     
10   O        16.3351   26.6216   62.2379  O     
11   Cl       15.1733   20.0692   61.2736  Cl    
12   H        15.6838   23.1958   64.8626  H     
13   H        14.7921   21.2234   63.8286  H     
14   H        16.9862   22.0470   60.3386  H     
15   H        17.9009   24.0185   61.3680  H     
16   H        17.4426   24.9378   64.9233  H     
17   H        18.4117   25.2469   63.4893  H     
@<TRIPOS>BOND
     1    1    2 2
     2    1    6 1
     3    1    7 1
     4    2    3 1
     5    3    4 2
     6    4    5 1
     7    4   11 1
     8    5    6 2
     9    7    8 1
    10    8    9 2
    11    8   10 1
    12    2   12 1
    13    3   13 1
    14    5   14 1
    15    6   15 1
    16    7   16 1
    17    7   17 1
@<TRIPOS>PROPERTY_DATA
  Total_Score	| 4.3713
  Crash		| -0.1560
  Polar		| 3.9008
  FragIndex	| 1
  FragRMSD	| 0.287

