@<TRIPOS>MOLECULE
BindingDB_16422
 17 17 0 0 0
SMALL
NO_CHARGES


@<TRIPOS>ATOM
1    C        16.8984   23.8566   63.1009  C     
2    C        17.0974   23.3088   61.8061  C     
3    C        16.4960   22.0856   61.4484  C     
4    C        15.6931   21.3925   62.3725  C     
5    C        15.4939   21.9181   63.6607  C     
6    C        16.0903   23.1404   64.0193  C     
7    C        17.4933   25.1585   63.5127  C     
8    C        16.4895   26.2363   63.4604  C     
9    O        16.0710   26.8417   64.5940  O     
10   O        16.0131   26.6788   62.2738  O     
11   F        17.8229   23.9229   60.9074  F     
12   H        16.6377   21.6956   60.5130  H     
13   H        15.2551   20.5072   62.1080  H     
14   H        14.9126   21.4141   64.3351  H     
15   H        15.9360   23.5037   64.9625  H     
16   H        17.8956   25.0697   64.5257  H     
17   H        18.3292   25.4411   62.8703  H     
@<TRIPOS>BOND
     1    1    2 2
     2    1    6 1
     3    1    7 1
     4    2    3 1
     5    2   11 1
     6    3    4 2
     7    4    5 1
     8    5    6 2
     9    7    8 1
    10    8    9 2
    11    8   10 1
    12    3   12 1
    13    4   13 1
    14    5   14 1
    15    6   15 1
    16    7   16 1
    17    7   17 1
@<TRIPOS>PROPERTY_DATA
  Total_Score	| 4.3335
  Crash		| -0.1627
  Polar		| 4.2007
  FragIndex	| 1
  FragRMSD	| 0.050

