@<TRIPOS>MOLECULE
BindingDB_26464
 49 50 0 0 0
SMALL
NO_CHARGES


@<TRIPOS>ATOM
1    C       -25.0318   -4.5235  -19.4498  C     
2    C       -25.9697   -5.6755  -19.4205  C     
3    O       -26.3622   -6.2686  -20.5658  O     
4    O       -26.5296   -6.0808  -18.2578  O     
5    C       -25.7906   -3.1597  -19.4495  C     
6    C       -26.7533   -3.0015  -20.6606  C     
7    C       -27.4269   -1.6983  -20.7731  C     
8    O       -27.9519   -1.3226  -21.9575  O     
9    O       -27.5420   -0.8564  -19.7187  O     
10   N       -24.1436   -4.5957  -18.3286  N     
11   C       -21.6284   -4.0157  -19.5741  C     
12   C       -20.1645   -2.0957  -20.0471  C     
13   C       -19.2823   -1.0825  -19.6366  C     
14   C       -18.7735   -0.1933  -20.5235  C     
15   C       -19.2469   -0.1919  -21.8184  C     
16   C       -20.0213   -1.1901  -22.2919  C     
17   C       -20.4877   -2.1933  -21.4329  C     
18   C       -21.3030   -3.2582  -21.8763  C     
19   C       -21.8550   -4.1644  -20.9533  C     
20   C       -20.7537   -3.0008  -19.1290  C     
21   S       -22.5139   -5.0238  -18.4551  S     
22   O       -22.3957   -6.5694  -18.8237  O     
23   O       -21.8986   -4.9006  -16.9899  O     
24   O       -17.8633    0.6963  -20.0555  O     
25   C       -16.9128    1.3245  -20.9542  C     
26   C       -15.9691    0.3569  -21.7005  C     
27   C       -14.6465   -0.0171  -20.9649  C     
28   C       -13.6663    1.1588  -20.7376  C     
29   H       -24.4534   -4.5745  -20.3732  H     
30   H       -26.3517   -3.0389  -18.5185  H     
31   H       -25.0460   -2.3565  -19.4952  H     
32   H       -26.1881   -3.1570  -21.5808  H     
33   H       -27.5299   -3.7656  -20.6034  H     
34   H       -24.5178   -4.4691  -17.4431  H     
35   H       -18.9819   -1.0497  -18.6892  H     
36   H       -19.0468    0.5851  -22.4049  H     
37   H       -20.3030   -1.1567  -23.2452  H     
38   H       -21.5246   -3.3685  -22.8684  H     
39   H       -22.4651   -4.9093  -21.2908  H     
40   H       -20.5683   -2.8970  -18.1252  H     
41   H       -17.4394    1.9288  -21.6900  H     
42   H       -16.3288    2.0324  -20.3771  H     
43   H       -16.5453   -0.5470  -21.9220  H     
44   H       -15.6944    0.8124  -22.6546  H     
45   H       -14.8811   -0.4797  -20.0015  H     
46   H       -14.1225   -0.7514  -21.5701  H     
47   H       -13.4402    1.6664  -21.6810  H     
48   H       -12.7247    0.7819  -20.3206  H     
49   H       -14.0931    1.8778  -20.0356  H     
@<TRIPOS>BOND
     1    1    2 1
     2    1    5 1
     3    1   10 1
     4    2    3 2
     5    2    4 1
     6    5    6 1
     7    6    7 1
     8    7    8 2
     9    7    9 1
    10   10   21 1
    11   11   19 2
    12   11   20 1
    13   11   21 1
    14   12   13 1
    15   12   17 1
    16   12   20 2
    17   13   14 2
    18   14   15 1
    19   14   24 1
    20   15   16 2
    21   16   17 1
    22   17   18 2
    23   18   19 1
    24   21   22 2
    25   21   23 2
    26   24   25 1
    27   25   26 1
    28   26   27 1
    29   27   28 1
    30    1   29 1
    31    5   30 1
    32    5   31 1
    33    6   32 1
    34    6   33 1
    35   10   34 1
    36   13   35 1
    37   15   36 1
    38   16   37 1
    39   18   38 1
    40   19   39 1
    41   20   40 1
    42   25   41 1
    43   25   42 1
    44   26   43 1
    45   26   44 1
    46   27   45 1
    47   27   46 1
    48   28   47 1
    49   28   48 1
    50   28   49 1
@<TRIPOS>PROPERTY_DATA
  Total_Score	| 8.7397
  Crash		| -0.5497
  Polar		| 5.8550
  FragIndex	| 1
  FragRMSD	| 0.224

