@<TRIPOS>MOLECULE
BindingDB_26448
 42 43 0 0 0
SMALL
NO_CHARGES


@<TRIPOS>ATOM
1    C       -24.9406   -4.4649  -19.4495  C     
2    C       -25.8456   -5.6320  -19.4315  C     
3    O       -26.2082   -6.2286  -20.5877  O     
4    O       -26.4599   -6.0169  -18.2868  O     
5    C       -25.7226   -3.1171  -19.4692  C     
6    C       -26.6946   -2.9809  -20.6735  C     
7    C       -27.4278   -1.7052  -20.7540  C     
8    O       -27.5545   -0.8507  -19.7119  O     
9    O       -27.9697   -1.3471  -21.9374  O     
10   N       -24.0915   -4.5161  -18.3029  N     
11   S       -22.4802   -5.0027  -18.3562  S     
12   O       -22.3619   -6.3216  -19.2397  O     
13   O       -22.0850   -5.4905  -16.8913  O     
14   C       -21.4070   -3.7583  -18.9364  C     
15   C       -20.6525   -2.2880  -20.7486  C     
16   C       -20.7316   -1.8235  -22.0646  C     
17   C       -19.9109   -0.8468  -22.4919  C     
18   C       -18.9833   -0.2703  -21.6643  C     
19   C       -18.8756   -0.6637  -20.3755  C     
20   C       -19.6846   -1.7084  -19.8768  C     
21   C       -19.5873   -2.1721  -18.5466  C     
22   C       -20.4441   -3.1880  -18.0873  C     
23   C       -21.5093   -3.3060  -20.2674  C     
24   C       -16.9367    0.9860  -21.7760  C     
25   O       -18.3107    0.7858  -22.1657  O     
26   C       -16.8357    1.6985  -20.4892  C     
27   O       -15.9886    1.2702  -19.5147  O     
28   O       -17.7817    2.6079  -20.1424  O     
29   H       -24.3358   -4.5093  -20.3612  H     
30   H       -26.2930   -3.0197  -18.5408  H     
31   H       -24.9979   -2.3010  -19.5088  H     
32   H       -26.1351   -3.0909  -21.6070  H     
33   H       -27.4362   -3.7827  -20.6290  H     
34   H       -24.4882   -4.3521  -17.4301  H     
35   H       -21.4164   -2.1950  -22.6938  H     
36   H       -19.9963   -0.5249  -23.4296  H     
37   H       -18.2359   -0.2100  -19.7718  H     
38   H       -18.8896   -1.7743  -17.9158  H     
39   H       -20.3502   -3.4978  -17.1134  H     
40   H       -22.2217   -3.7141  -20.8827  H     
41   H       -16.3694    0.0444  -21.7320  H     
42   H       -16.4634    1.6209  -22.5455  H     
@<TRIPOS>BOND
     1    1    2 1
     2    1    5 1
     3    1   10 1
     4    2    3 2
     5    2    4 1
     6    5    6 1
     7    6    7 1
     8    7    8 2
     9    7    9 1
    10   10   11 1
    11   11   12 2
    12   11   13 2
    13   11   14 1
    14   14   22 2
    15   14   23 1
    16   15   16 1
    17   15   20 1
    18   15   23 2
    19   16   17 2
    20   17   18 1
    21   18   19 2
    22   18   25 1
    23   19   20 1
    24   20   21 2
    25   21   22 1
    26   24   25 1
    27   24   26 1
    28   26   27 2
    29   26   28 1
    30    1   29 1
    31    5   30 1
    32    5   31 1
    33    6   32 1
    34    6   33 1
    35   10   34 1
    36   16   35 1
    37   17   36 1
    38   19   37 1
    39   21   38 1
    40   22   39 1
    41   23   40 1
    42   24   41 1
    43   24   42 1
@<TRIPOS>PROPERTY_DATA
  Total_Score	| 7.4437
  Crash		| -0.7296
  Polar		| 7.3465
  FragIndex	| 1
  FragRMSD	| 1.172

