@<TRIPOS>MOLECULE
BindingDB_26446
 55 56 0 0 0
SMALL
NO_CHARGES


@<TRIPOS>ATOM
1    C       -24.9598   -4.5130  -19.5489  C     
2    C       -25.8652   -5.6782  -19.4719  C     
3    O       -26.0895   -6.3451  -18.3215  O     
4    O       -26.4294   -6.1653  -20.6020  O     
5    C       -25.7256   -3.1592  -19.5597  C     
6    C       -26.7250   -3.0017  -20.7387  C     
7    C       -27.3376   -1.6640  -20.8335  C     
8    O       -27.6799   -0.9571  -19.7361  O     
9    O       -27.8812   -1.2783  -22.0089  O     
10   N       -24.0634   -4.5213  -18.4323  N     
11   S       -22.4652   -5.0392  -18.5188  S     
12   O       -22.3726   -6.4457  -19.2509  O     
13   O       -22.0206   -5.3395  -17.0178  O     
14   C       -21.4179   -3.8503  -19.2409  C     
15   C       -20.7667   -2.4961  -21.1789  C     
16   C       -20.8705   -2.1238  -22.5260  C     
17   C       -20.0663   -1.1694  -23.0388  C     
18   C       -19.1314   -0.5234  -22.2571  C     
19   C       -19.0382   -0.8112  -20.9418  C     
20   C       -19.8048   -1.8208  -20.3686  C     
21   C       -19.6353   -2.2001  -19.0215  C     
22   C       -20.4362   -3.2024  -18.4658  C     
23   C       -21.5681   -3.5035  -20.6010  C     
24   C       -16.9045    0.2432  -22.6713  C     
25   O       -18.3392    0.4052  -22.8424  O     
26   C       -16.3139    1.3368  -21.7365  C     
27   C       -15.3290    0.8583  -20.6286  C     
28   C       -14.0254    0.1345  -21.0742  C     
29   C       -12.7951    0.9630  -21.5697  C     
30   C       -13.0534    2.2340  -22.4115  C     
31   H       -24.3820   -4.5846  -20.4727  H     
32   H       -26.2636   -3.0434  -18.6143  H     
33   H       -24.9903   -2.3510  -19.6276  H     
34   H       -26.1983   -3.1977  -21.6756  H     
35   H       -27.5293   -3.7363  -20.6433  H     
36   H       -24.4364   -4.3382  -17.5509  H     
37   H       -21.5340   -2.5721  -23.1193  H     
38   H       -20.1455   -0.9351  -23.9964  H     
39   H       -18.3851   -0.3143  -20.3802  H     
40   H       -18.9258   -1.7506  -18.4424  H     
41   H       -20.2984   -3.4574  -17.4782  H     
42   H       -22.2653   -3.9869  -21.1777  H     
43   H       -16.6507   -0.7558  -22.2946  H     
44   H       -16.4444    0.3404  -23.6581  H     
45   H       -15.8276    2.0894  -22.3532  H     
46   H       -17.1274    1.8633  -21.2389  H     
47   H       -15.0624    1.7134  -19.9970  H     
48   H       -15.8779    0.1617  -19.9840  H     
49   H       -13.6881   -0.4520  -20.2131  H     
50   H       -14.2919   -0.5953  -21.8426  H     
51   H       -12.2124    1.2799  -20.6978  H     
52   H       -12.1483    0.3022  -22.1555  H     
53   H       -13.5040    1.9799  -23.3706  H     
54   H       -12.1128    2.7541  -22.6019  H     
55   H       -13.7144    2.9041  -21.8629  H     
@<TRIPOS>BOND
     1    1    2 1
     2    1    5 1
     3    1   10 1
     4    2    3 2
     5    2    4 1
     6    5    6 1
     7    6    7 1
     8    7    8 2
     9    7    9 1
    10   10   11 1
    11   11   12 2
    12   11   13 2
    13   11   14 1
    14   14   22 2
    15   14   23 1
    16   15   16 1
    17   15   20 1
    18   15   23 2
    19   16   17 2
    20   17   18 1
    21   18   19 2
    22   18   25 1
    23   19   20 1
    24   20   21 2
    25   21   22 1
    26   24   25 1
    27   24   26 1
    28   26   27 1
    29   27   28 1
    30   28   29 1
    31   29   30 1
    32    1   31 1
    33    5   32 1
    34    5   33 1
    35    6   34 1
    36    6   35 1
    37   10   36 1
    38   16   37 1
    39   17   38 1
    40   19   39 1
    41   21   40 1
    42   22   41 1
    43   23   42 1
    44   24   43 1
    45   24   44 1
    46   26   45 1
    47   26   46 1
    48   27   47 1
    49   27   48 1
    50   28   49 1
    51   28   50 1
    52   29   51 1
    53   29   52 1
    54   30   53 1
    55   30   54 1
    56   30   55 1
@<TRIPOS>PROPERTY_DATA
  Total_Score	| 9.6052
  Crash		| -1.0360
  Polar		| 5.8151
  FragIndex	| 1
  FragRMSD	| 1.264

