@<TRIPOS>MOLECULE
BindingDB_26445
 52 53 0 0 0
SMALL
NO_CHARGES


@<TRIPOS>ATOM
1    C       -25.0412   -4.5767  -19.4901  C     
2    C       -25.9874   -5.7136  -19.4402  C     
3    O       -26.3338   -6.3134  -18.2790  O     
4    O       -26.5082   -6.2056  -20.5866  O     
5    C       -25.7591   -3.1957  -19.4993  C     
6    C       -26.8087   -3.0288  -20.6331  C     
7    C       -27.3444   -1.6625  -20.7768  C     
8    O       -28.0132   -1.3646  -21.9090  O     
9    O       -27.5749   -0.8737  -19.7035  O     
10   N       -24.1574   -4.6328  -18.3675  N     
11   S       -22.5175   -5.0097  -18.4743  S     
12   O       -22.3289   -6.5574  -18.7944  O     
13   O       -21.9307   -4.8093  -17.0086  O     
14   C       -21.6470   -3.9735  -19.5711  C     
15   C       -20.1838   -2.0516  -19.9942  C     
16   C       -19.3860   -0.9875  -19.5572  C     
17   C       -18.7940   -0.1699  -20.4519  C     
18   C       -18.9236   -0.3677  -21.8066  C     
19   C       -19.7011   -1.3672  -22.2748  C     
20   C       -20.3466   -2.2446  -21.3966  C     
21   C       -21.1448   -3.3096  -21.8676  C     
22   C       -21.7823   -4.1731  -20.9619  C     
23   C       -20.8462   -2.9171  -19.0921  C     
24   C       -16.8907    0.2918  -22.8297  C     
25   O       -18.3227    0.4509  -22.6821  O     
26   C       -16.1843    1.6321  -22.5163  C     
27   C       -14.6307    1.6207  -22.4866  C     
28   C       -13.9317    0.3909  -21.8438  C     
29   C       -14.3383    0.0898  -20.3830  C     
30   H       -24.4707   -4.6620  -20.4203  H     
31   H       -26.2464   -3.0404  -18.5328  H     
32   H       -24.9974   -2.4198  -19.6179  H     
33   H       -26.3543   -3.3138  -21.5860  H     
34   H       -27.6515   -3.6975  -20.4454  H     
35   H       -24.5399   -4.5137  -17.4843  H     
36   H       -19.2575   -0.8228  -18.5854  H     
37   H       -18.2480    0.5902  -20.1214  H     
38   H       -19.8097   -1.4860  -23.2563  H     
39   H       -21.2656   -3.4600  -22.8760  H     
40   H       -22.3459   -4.9428  -21.3309  H     
41   H       -20.7514   -2.7696  -18.0860  H     
42   H       -16.4842   -0.5008  -22.1863  H     
43   H       -16.6855    0.0065  -23.8649  H     
44   H       -16.5019    2.3620  -23.2638  H     
45   H       -16.5472    1.9963  -21.5520  H     
46   H       -14.2696    1.7055  -23.5146  H     
47   H       -14.2974    2.5208  -21.9592  H     
48   H       -14.1308   -0.4961  -22.4473  H     
49   H       -12.8505    0.5544  -21.8708  H     
50   H       -13.9982    0.8861  -19.7213  H     
51   H       -13.8774   -0.8437  -20.0637  H     
52   H       -15.4187   -0.0127  -20.2845  H     
@<TRIPOS>BOND
     1    1    2 1
     2    1    5 1
     3    1   10 1
     4    2    3 2
     5    2    4 1
     6    5    6 1
     7    6    7 1
     8    7    8 2
     9    7    9 1
    10   10   11 1
    11   11   12 2
    12   11   13 2
    13   11   14 1
    14   14   22 2
    15   14   23 1
    16   15   16 1
    17   15   20 1
    18   15   23 2
    19   16   17 2
    20   17   18 1
    21   18   19 2
    22   18   25 1
    23   19   20 1
    24   20   21 2
    25   21   22 1
    26   24   25 1
    27   24   26 1
    28   26   27 1
    29   27   28 1
    30   28   29 1
    31    1   30 1
    32    5   31 1
    33    5   32 1
    34    6   33 1
    35    6   34 1
    36   10   35 1
    37   16   36 1
    38   17   37 1
    39   19   38 1
    40   21   39 1
    41   22   40 1
    42   23   41 1
    43   24   42 1
    44   24   43 1
    45   26   44 1
    46   26   45 1
    47   27   46 1
    48   27   47 1
    49   28   48 1
    50   28   49 1
    51   29   50 1
    52   29   51 1
    53   29   52 1
@<TRIPOS>PROPERTY_DATA
  Total_Score	| 8.7830
  Crash		| -0.5731
  Polar		| 5.8533
  FragIndex	| 1
  FragRMSD	| 0.893

