@<TRIPOS>MOLECULE
BindingDB_26452
 56 58 0 0 0
SMALL
NO_CHARGES


@<TRIPOS>ATOM
1    C       -24.9933   -4.5228  -19.4621  C     
2    C       -25.9409   -5.6531  -19.4291  C     
3    O       -26.3314   -6.2384  -20.5846  O     
4    O       -26.6347   -5.9394  -18.3026  O     
5    C       -25.7138   -3.1438  -19.4854  C     
6    C       -26.6835   -2.9787  -20.6860  C     
7    C       -27.3345   -1.6617  -20.7997  C     
8    O       -27.9261   -1.3228  -21.9628  O     
9    O       -27.5468   -0.8630  -19.7255  O     
10   N       -24.1448   -4.5940  -18.3121  N     
11   S       -22.5287   -5.0649  -18.3725  S     
12   O       -22.4043   -6.5097  -19.0324  O     
13   O       -22.0443   -5.2614  -16.8684  O     
14   C       -21.5432   -3.8672  -19.1624  C     
15   C       -20.8744   -2.7194  -21.2209  C     
16   C       -20.9344   -2.5396  -22.6039  C     
17   C       -20.1324   -1.6424  -23.2125  C     
18   C       -19.2522   -0.8640  -22.5046  C     
19   C       -19.2240   -0.9354  -21.1529  C     
20   C       -20.0175   -1.8672  -20.4662  C     
21   C       -19.9676   -2.0005  -19.0631  C     
22   C       -20.7229   -2.9964  -18.4180  C     
23   C       -21.6214   -3.7178  -20.5616  C     
24   O       -18.4831    0.0027  -23.1986  O     
25   C       -17.0948    0.1517  -22.8349  C     
26   C       -16.8702    1.4618  -22.0243  C     
27   C       -15.9329    1.3076  -20.7971  C     
28   C       -14.4743    1.2456  -21.0848  C     
29   C       -13.6381    0.3147  -20.4218  C     
30   C       -12.2388    0.3598  -20.5914  C     
31   C       -11.6589    1.3103  -21.4499  C     
32   C       -12.4830    2.2212  -22.1345  C     
33   C       -13.8755    2.1926  -21.9500  C     
34   H       -24.3861   -4.5978  -20.3706  H     
35   H       -26.2666   -2.9999  -18.5514  H     
36   H       -24.9518   -2.3607  -19.5497  H     
37   H       -26.1337   -3.1570  -21.6150  H     
38   H       -27.4767   -3.7264  -20.6143  H     
39   H       -24.5364   -4.4194  -17.4407  H     
40   H       -21.5730   -3.0744  -23.1481  H     
41   H       -20.1920   -1.5415  -24.2001  H     
42   H       -18.6299   -0.3343  -20.6382  H     
43   H       -19.3835   -1.3736  -18.5020  H     
44   H       -20.6794   -3.0710  -17.3993  H     
45   H       -22.2305   -4.3392  -21.1051  H     
46   H       -16.7277   -0.7221  -22.2865  H     
47   H       -16.5162    0.2214  -23.7641  H     
48   H       -16.4758    2.2332  -22.6946  H     
49   H       -17.8387    1.8225  -21.6583  H     
50   H       -16.0887    2.1666  -20.1413  H     
51   H       -16.2567    0.4304  -20.2286  H     
52   H       -14.0361   -0.3881  -19.7932  H     
53   H       -11.6403   -0.2927  -20.0821  H     
54   H       -10.6416    1.3445  -21.5751  H     
55   H       -12.0633    2.9168  -22.7513  H     
56   H       -14.4495    2.8833  -22.4353  H     
@<TRIPOS>BOND
     1    1    2 1
     2    1    5 1
     3    1   10 1
     4    2    3 2
     5    2    4 1
     6    5    6 1
     7    6    7 1
     8    7    8 2
     9    7    9 1
    10   10   11 1
    11   11   12 2
    12   11   13 2
    13   11   14 1
    14   14   22 2
    15   14   23 1
    16   15   16 1
    17   15   20 1
    18   15   23 2
    19   16   17 2
    20   17   18 1
    21   18   19 2
    22   18   24 1
    23   19   20 1
    24   20   21 2
    25   21   22 1
    26   24   25 1
    27   25   26 1
    28   26   27 1
    29   27   28 1
    30   28   29 1
    31   28   33 2
    32   29   30 2
    33   30   31 1
    34   31   32 2
    35   32   33 1
    36    1   34 1
    37    5   35 1
    38    5   36 1
    39    6   37 1
    40    6   38 1
    41   10   39 1
    42   16   40 1
    43   17   41 1
    44   19   42 1
    45   21   43 1
    46   22   44 1
    47   23   45 1
    48   25   46 1
    49   25   47 1
    50   26   48 1
    51   26   49 1
    52   27   50 1
    53   27   51 1
    54   29   52 1
    55   30   53 1
    56   31   54 1
    57   32   55 1
    58   33   56 1
@<TRIPOS>PROPERTY_DATA
  Total_Score	| 9.9775
  Crash		| -1.9813
  Polar		| 5.8868
  FragIndex	| 1
  FragRMSD	| 1.474

