@<TRIPOS>MOLECULE
BindingDB_26453
 51 53 0 0 0
SMALL
NO_CHARGES


@<TRIPOS>ATOM
1    C       -25.0458   -4.3708  -19.5024  C     
2    C       -25.8604   -5.6001  -19.4643  C     
3    O       -26.3248   -6.1377  -20.6180  O     
4    O       -26.4075   -6.0284  -18.2992  O     
5    C       -25.9397   -3.0876  -19.4541  C     
6    C       -26.8166   -2.9325  -20.7289  C     
7    C       -27.7421   -1.7963  -20.6804  C     
8    O       -27.5633   -0.7961  -19.7775  O     
9    O       -28.4682   -1.5130  -21.7778  O     
10   N       -24.0953   -4.4003  -18.4293  N     
11   S       -22.5103   -4.9488  -18.6216  S     
12   O       -22.4810   -6.3475  -19.3816  O     
13   O       -21.9914   -5.3272  -17.1604  O     
14   C       -21.4090   -3.8471  -19.4036  C     
15   C       -20.7027   -2.6084  -21.4081  C     
16   C       -20.8192   -2.2833  -22.7677  C     
17   C       -20.0252   -1.3405  -23.3189  C     
18   C       -19.0755   -0.6897  -22.5827  C     
19   C       -18.9161   -0.9590  -21.2699  C     
20   C       -19.7134   -1.9314  -20.6404  C     
21   C       -19.5703   -2.2336  -19.2695  C     
22   C       -20.4157   -3.1789  -18.6594  C     
23   C       -21.5347   -3.5645  -20.7799  C     
24   O       -18.1852    0.0998  -23.2228  O     
25   C       -17.9940    1.4480  -22.7480  C     
26   C       -16.5407    1.6420  -22.4926  C     
27   C       -15.6604    1.9824  -23.5448  C     
28   C       -14.2782    2.1014  -23.3216  C     
29   C       -13.7428    1.8595  -22.0342  C     
30   C       -14.6137    1.5330  -20.9719  C     
31   C       -15.9993    1.4299  -21.1997  C     
32   C       -12.4551    1.9020  -21.8359  C     
33   N       -11.3192    1.9283  -21.6575  N     
34   H       -24.4752   -4.3527  -20.4372  H     
35   H       -26.5834   -3.1198  -18.5707  H     
36   H       -25.2980   -2.2080  -19.3552  H     
37   H       -26.1656   -2.8140  -21.6011  H     
38   H       -27.4044   -3.8488  -20.8703  H     
39   H       -24.4096   -4.2247  -17.5239  H     
40   H       -21.4792   -2.7560  -23.3423  H     
41   H       -20.1154   -1.1419  -24.2963  H     
42   H       -18.1936   -0.5056  -20.7674  H     
43   H       -18.8677   -1.7571  -18.6983  H     
44   H       -20.3059   -3.3691  -17.6603  H     
45   H       -22.2348   -4.0638  -21.3425  H     
46   H       -18.3267    2.1342  -23.5378  H     
47   H       -18.5700    1.6866  -21.8437  H     
48   H       -16.0210    2.1216  -24.4961  H     
49   H       -13.6666    2.3414  -24.1089  H     
50   H       -14.2445    1.3415  -20.0314  H     
51   H       -16.6096    1.1764  -20.4191  H     
@<TRIPOS>BOND
     1    1    2 1
     2    1    5 1
     3    1   10 1
     4    2    3 2
     5    2    4 1
     6    5    6 1
     7    6    7 1
     8    7    8 2
     9    7    9 1
    10   10   11 1
    11   11   12 2
    12   11   13 2
    13   11   14 1
    14   14   22 2
    15   14   23 1
    16   15   16 1
    17   15   20 1
    18   15   23 2
    19   16   17 2
    20   17   18 1
    21   18   19 2
    22   18   24 1
    23   19   20 1
    24   20   21 2
    25   21   22 1
    26   24   25 1
    27   25   26 1
    28   26   27 1
    29   26   31 2
    30   27   28 2
    31   28   29 1
    32   29   30 2
    33   29   32 1
    34   30   31 1
    35   32   33 3
    36    1   34 1
    37    5   35 1
    38    5   36 1
    39    6   37 1
    40    6   38 1
    41   10   39 1
    42   16   40 1
    43   17   41 1
    44   19   42 1
    45   21   43 1
    46   22   44 1
    47   23   45 1
    48   25   46 1
    49   25   47 1
    50   27   48 1
    51   28   49 1
    52   30   50 1
    53   31   51 1
@<TRIPOS>PROPERTY_DATA
  Total_Score	| 9.4437
  Crash		| -0.9719
  Polar		| 5.8948
  FragIndex	| 1
  FragRMSD	| 0.853

