@<TRIPOS>MOLECULE
BindingDB_26442
 40 41 0 0 0
SMALL
NO_CHARGES


@<TRIPOS>ATOM
1    C       -24.9322   -4.4462  -19.5120  C     
2    C       -25.8056   -5.6349  -19.4040  C     
3    O       -26.2589   -6.2535  -20.5151  O     
4    O       -26.3423   -5.9866  -18.2125  O     
5    C       -25.7460   -3.1164  -19.5166  C     
6    C       -26.7187   -2.9878  -20.7213  C     
7    C       -27.4842   -1.7294  -20.7811  C     
8    O       -27.5966   -0.8844  -19.7330  O     
9    O       -28.0558   -1.3564  -21.9451  O     
10   N       -24.0170   -4.4538  -18.4131  N     
11   S       -22.4218   -4.9969  -18.5191  S     
12   O       -22.3915   -6.3916  -19.2798  O     
13   O       -21.9676   -5.3501  -17.0343  O     
14   C       -21.3299   -3.8644  -19.2624  C     
15   C       -20.6629   -2.5413  -21.2223  C     
16   C       -20.8165   -2.1541  -22.5622  C     
17   C       -20.0271   -1.1956  -23.0867  C     
18   C       -19.0515   -0.5816  -22.3496  C     
19   C       -18.8696   -0.9011  -21.0506  C     
20   C       -19.6605   -1.8946  -20.4436  C     
21   C       -19.4820   -2.2720  -19.0959  C     
22   C       -20.3126   -3.2433  -18.5092  C     
23   C       -21.4849   -3.5242  -20.6244  C     
24   O       -18.2006    0.2491  -22.9709  O     
25   C       -18.1837    1.6042  -22.4931  C     
26   H       -24.3682   -4.5008  -20.4503  H     
27   H       -26.3170   -3.0389  -18.5882  H     
28   H       -25.0423   -2.2824  -19.5450  H     
29   H       -26.1483   -3.0818  -21.6501  H     
30   H       -27.4425   -3.8083  -20.6887  H     
31   H       -24.3700   -4.2591  -17.5284  H     
32   H       -21.5047   -2.5900  -23.1396  H     
33   H       -20.1451   -0.9492  -24.0419  H     
34   H       -18.1532   -0.4483  -20.5383  H     
35   H       -18.7607   -1.8272  -18.5223  H     
36   H       -20.1770   -3.4807  -17.5228  H     
37   H       -22.2112   -3.9855  -21.1825  H     
38   H       -19.1811    2.0528  -22.4645  H     
39   H       -17.5744    2.1995  -23.1761  H     
40   H       -17.7339    1.6505  -21.4970  H     
@<TRIPOS>BOND
     1    1    2 1
     2    1    5 1
     3    1   10 1
     4    2    3 2
     5    2    4 1
     6    5    6 1
     7    6    7 1
     8    7    8 2
     9    7    9 1
    10   10   11 1
    11   11   12 2
    12   11   13 2
    13   11   14 1
    14   14   22 2
    15   14   23 1
    16   15   16 1
    17   15   20 1
    18   15   23 2
    19   16   17 2
    20   17   18 1
    21   18   19 2
    22   18   24 1
    23   19   20 1
    24   20   21 2
    25   21   22 1
    26   24   25 1
    27    1   26 1
    28    5   27 1
    29    5   28 1
    30    6   29 1
    31    6   30 1
    32   10   31 1
    33   16   32 1
    34   17   33 1
    35   19   34 1
    36   21   35 1
    37   22   36 1
    38   23   37 1
    39   25   38 1
    40   25   39 1
    41   25   40 1
@<TRIPOS>PROPERTY_DATA
  Total_Score	| 6.7493
  Crash		| -0.7025
  Polar		| 5.8863
  FragIndex	| 1
  FragRMSD	| 1.129

