@<TRIPOS>MOLECULE
BindingDB_26454
 55 57 0 0 0
SMALL
NO_CHARGES


@<TRIPOS>ATOM
1    C       -24.9618   -4.4994  -19.4517  C     
2    C       -25.9068   -5.6320  -19.4341  C     
3    O       -26.3577   -6.1479  -20.5994  O     
4    O       -26.4919   -6.0265  -18.2808  O     
5    C       -25.6835   -3.1216  -19.5034  C     
6    C       -26.6711   -2.9805  -20.6949  C     
7    C       -27.2429   -1.6274  -20.8445  C     
8    O       -27.9756   -1.3748  -21.9525  O     
9    O       -27.5199   -0.8711  -19.7593  O     
10   N       -24.1234   -4.5627  -18.2931  N     
11   S       -22.5489   -5.1670  -18.2863  S     
12   O       -22.5173   -6.6078  -18.9583  O     
13   O       -22.1622   -5.4229  -16.7615  O     
14   C       -21.4028   -4.1141  -19.0635  C     
15   C       -20.7597   -2.8169  -21.0380  C     
16   C       -21.0049   -2.3805  -22.3427  C     
17   C       -20.2804   -1.3711  -22.8671  C     
18   C       -19.2875   -0.7622  -22.1479  C     
19   C       -18.9245   -1.2400  -20.9321  C     
20   C       -19.6806   -2.2392  -20.3128  C     
21   C       -19.4589   -2.6304  -18.9774  C     
22   C       -20.3175   -3.5590  -18.3552  C     
23   C       -21.5927   -3.7669  -20.4170  C     
24   O       -18.7335    0.3412  -22.6862  O     
25   C       -18.3816    1.4415  -21.8196  C     
26   C       -16.9029    1.6196  -21.9001  C     
27   C       -16.3390    1.9014  -23.1670  C     
28   C       -14.9514    2.0583  -23.3303  C     
29   C       -14.0901    1.9149  -22.2229  C     
30   C       -14.6364    1.6276  -20.9530  C     
31   C       -12.8048    2.0347  -22.3927  C     
32   N       -11.6775    2.1495  -22.5860  N     
33   C       -16.0352    1.5041  -20.7802  C     
34   O       -16.5054    1.1599  -19.5368  O     
35   C       -16.8721    2.2801  -18.7190  C     
36   H       -24.3547   -4.5840  -20.3532  H     
37   H       -26.2199   -2.9587  -18.5662  H     
38   H       -24.9266   -2.3389  -19.5898  H     
39   H       -26.1559   -3.2412  -21.6244  H     
40   H       -27.5012   -3.6762  -20.5708  H     
41   H       -24.5243   -4.3523  -17.4338  H     
42   H       -21.7157   -2.8052  -22.8927  H     
43   H       -20.4808   -1.0665  -23.7942  H     
44   H       -18.1966   -0.7651  -20.4394  H     
45   H       -18.6982   -2.2126  -18.4357  H     
46   H       -20.1586   -3.7938  -17.3714  H     
47   H       -22.3690   -4.1734  -20.9438  H     
48   H       -18.8757    2.3378  -22.1970  H     
49   H       -18.7420    1.2763  -20.7910  H     
50   H       -16.9430    1.9945  -23.9901  H     
51   H       -14.5858    2.2671  -24.2653  H     
52   H       -14.0201    1.5071  -20.1414  H     
53   H       -16.0159    2.9298  -18.5178  H     
54   H       -17.2313    1.8940  -17.7636  H     
55   H       -17.6765    2.8648  -19.1737  H     
@<TRIPOS>BOND
     1    1    2 1
     2    1    5 1
     3    1   10 1
     4    2    3 2
     5    2    4 1
     6    5    6 1
     7    6    7 1
     8    7    8 2
     9    7    9 1
    10   10   11 1
    11   11   12 2
    12   11   13 2
    13   11   14 1
    14   14   22 2
    15   14   23 1
    16   15   16 1
    17   15   20 1
    18   15   23 2
    19   16   17 2
    20   17   18 1
    21   18   19 2
    22   18   24 1
    23   19   20 1
    24   20   21 2
    25   21   22 1
    26   24   25 1
    27   25   26 1
    28   26   27 1
    29   26   33 2
    30   27   28 2
    31   28   29 1
    32   29   30 2
    33   29   31 1
    34   30   33 1
    35   31   32 3
    36   33   34 1
    37   34   35 1
    38    1   36 1
    39    5   37 1
    40    5   38 1
    41    6   39 1
    42    6   40 1
    43   10   41 1
    44   16   42 1
    45   17   43 1
    46   19   44 1
    47   21   45 1
    48   22   46 1
    49   23   47 1
    50   25   48 1
    51   25   49 1
    52   27   50 1
    53   28   51 1
    54   30   52 1
    55   35   53 1
    56   35   54 1
    57   35   55 1
@<TRIPOS>PROPERTY_DATA
  Total_Score	| 9.5140
  Crash		| -1.6226
  Polar		| 6.5529
  FragIndex	| 1
  FragRMSD	| 1.386

