@<TRIPOS>MOLECULE
BindingDB_26449
 48 49 0 0 0
SMALL
NO_CHARGES


@<TRIPOS>ATOM
1    C       -24.9978   -4.4719  -19.5174  C     
2    C       -25.8545   -5.6799  -19.4668  C     
3    O       -25.8530   -6.5200  -18.4025  O     
4    O       -26.4551   -6.1198  -20.5939  O     
5    C       -25.8161   -3.1473  -19.5098  C     
6    C       -26.8851   -3.0452  -20.6302  C     
7    C       -27.5435   -1.7358  -20.7494  C     
8    O       -27.9909   -1.3358  -21.9600  O     
9    O       -27.5729   -0.8333  -19.7354  O     
10   N       -24.0892   -4.4359  -18.4206  N     
11   S       -22.4772   -4.9238  -18.5336  S     
12   O       -22.3930   -6.4341  -19.0169  O     
13   O       -21.8731   -4.9261  -17.0625  O     
14   C       -21.5407   -3.8737  -19.5562  C     
15   C       -20.0565   -1.9480  -19.8787  C     
16   C       -19.3053   -0.8872  -19.3641  C     
17   C       -18.5426   -0.1425  -20.1942  C     
18   C       -18.4878   -0.3807  -21.5630  C     
19   C       -19.2279   -1.3850  -22.0964  C     
20   C       -20.0216   -2.1989  -21.2864  C     
21   C       -20.7493   -3.2889  -21.8036  C     
22   C       -21.4924   -4.1196  -20.9483  C     
23   C       -20.8167   -2.7803  -19.0312  C     
24   C       -17.0222    1.5305  -22.1514  C     
25   O       -17.7290    0.3096  -22.4677  O     
26   C       -15.5646    1.2339  -21.6763  C     
27   C       -14.4688    1.6589  -22.6883  C     
28   C       -13.0845    1.6436  -22.1599  C     
29   O       -12.0560    2.0968  -22.9194  O     
30   O       -12.7951    1.2384  -20.8984  O     
31   H       -24.4298   -4.5032  -20.4500  H     
32   H       -26.3035   -3.0173  -18.5310  H     
33   H       -25.1149   -2.3129  -19.6489  H     
34   H       -26.3852   -3.2363  -21.5908  H     
35   H       -27.6607   -3.8158  -20.4957  H     
36   H       -24.4367   -4.2757  -17.5216  H     
37   H       -19.2935   -0.6784  -18.3899  H     
38   H       -17.9797    0.5666  -19.7904  H     
39   H       -19.1870   -1.5856  -23.0768  H     
40   H       -20.7329   -3.4833  -22.8083  H     
41   H       -22.0013   -4.9056  -21.3627  H     
42   H       -20.8416   -2.5861  -18.0181  H     
43   H       -17.0099    2.1410  -23.0595  H     
44   H       -17.5596    2.1107  -21.4006  H     
45   H       -15.4028    1.7816  -20.7430  H     
46   H       -15.4315    0.1690  -21.4515  H     
47   H       -14.4931    1.0132  -23.5609  H     
48   H       -14.6658    2.6750  -23.0166  H     
@<TRIPOS>BOND
     1    1    2 1
     2    1    5 1
     3    1   10 1
     4    2    3 2
     5    2    4 1
     6    5    6 1
     7    6    7 1
     8    7    8 2
     9    7    9 1
    10   10   11 1
    11   11   12 2
    12   11   13 2
    13   11   14 1
    14   14   22 2
    15   14   23 1
    16   15   16 1
    17   15   20 1
    18   15   23 2
    19   16   17 2
    20   17   18 1
    21   18   19 2
    22   18   25 1
    23   19   20 1
    24   20   21 2
    25   21   22 1
    26   24   25 1
    27   24   26 1
    28   26   27 1
    29   27   28 1
    30   28   29 2
    31   28   30 1
    32    1   31 1
    33    5   32 1
    34    5   33 1
    35    6   34 1
    36    6   35 1
    37   10   36 1
    38   16   37 1
    39   17   38 1
    40   19   39 1
    41   21   40 1
    42   22   41 1
    43   23   42 1
    44   24   43 1
    45   24   44 1
    46   26   45 1
    47   26   46 1
    48   27   47 1
    49   27   48 1
@<TRIPOS>PROPERTY_DATA
  Total_Score	| 9.9312
  Crash		| -0.5789
  Polar		| 8.5965
  FragIndex	| 1
  FragRMSD	| 0.849

