@<TRIPOS>MOLECULE
BindingDB_26456
 51 53 0 0 0
SMALL
NO_CHARGES


@<TRIPOS>ATOM
1    C       -25.0658   -4.5577  -19.5109  C     
2    C       -25.9526   -5.7227  -19.3797  C     
3    O       -26.4416   -6.0852  -18.1737  O     
4    O       -26.4425   -6.3081  -20.4937  O     
5    C       -25.8102   -3.1837  -19.5458  C     
6    C       -26.9249   -3.0783  -20.6321  C     
7    C       -27.4624   -1.7121  -20.7830  C     
8    O       -27.9702   -1.3138  -21.9710  O     
9    O       -27.6137   -0.9144  -19.7007  O     
10   N       -24.1650   -4.5926  -18.3979  N     
11   S       -22.5225   -4.9727  -18.4985  S     
12   O       -22.3256   -6.5382  -18.7062  O     
13   O       -21.9313   -4.6737  -17.0526  O     
14   C       -21.7000   -4.0245  -19.6973  C     
15   C       -20.1693   -2.2049  -20.2905  C     
16   C       -19.2120   -1.2474  -19.9422  C     
17   C       -18.6684   -0.4378  -20.8778  C     
18   C       -19.0970   -0.5133  -22.1887  C     
19   C       -19.9972   -1.4349  -22.5826  C     
20   C       -20.5457   -2.3341  -21.6604  C     
21   C       -21.4644   -3.3374  -22.0316  C     
22   C       -22.0320   -4.1754  -21.0583  C     
23   C       -20.7650   -3.0407  -19.3158  C     
24   O       -17.6832    0.3681  -20.4318  O     
25   C       -17.2322    1.5548  -21.1017  C     
26   C       -15.7998    1.4626  -21.4802  C     
27   C       -13.9160    2.0436  -22.9392  C     
28   C       -13.0181    1.4310  -22.0398  C     
29   C       -13.5119    0.8151  -20.8668  C     
30   C       -14.8876    0.8394  -20.5962  C     
31   C       -15.2988    2.0500  -22.6658  C     
32   C       -11.7350    1.4618  -22.2610  C     
33   N       -10.6003    1.5017  -22.4667  N     
34   H       -24.5160   -4.6496  -20.4506  H     
35   H       -26.2620   -2.9700  -18.5663  H     
36   H       -25.0593   -2.4081  -19.7341  H     
37   H       -26.5337   -3.4253  -21.5966  H     
38   H       -27.7627   -3.7220  -20.3493  H     
39   H       -24.5081   -4.3252  -17.5205  H     
40   H       -18.8973   -1.1867  -18.9956  H     
41   H       -18.7782    0.1430  -22.8527  H     
42   H       -20.2932   -1.4615  -23.5333  H     
43   H       -21.7260   -3.4511  -23.0142  H     
44   H       -22.6930   -4.8840  -21.3592  H     
45   H       -20.5167   -2.9267  -18.3339  H     
46   H       -17.8595    1.7623  -21.9632  H     
47   H       -17.3582    2.3967  -20.4050  H     
48   H       -13.5744    2.4939  -23.7952  H     
49   H       -12.8832    0.3501  -20.2077  H     
50   H       -15.2301    0.4118  -19.7308  H     
51   H       -15.9293    2.5139  -23.3225  H     
@<TRIPOS>BOND
     1    1    2 1
     2    1    5 1
     3    1   10 1
     4    2    3 2
     5    2    4 1
     6    5    6 1
     7    6    7 1
     8    7    8 2
     9    7    9 1
    10   10   11 1
    11   11   12 2
    12   11   13 2
    13   11   14 1
    14   14   22 2
    15   14   23 1
    16   15   16 1
    17   15   20 1
    18   15   23 2
    19   16   17 2
    20   17   18 1
    21   17   24 1
    22   18   19 2
    23   19   20 1
    24   20   21 2
    25   21   22 1
    26   24   25 1
    27   25   26 1
    28   26   30 2
    29   26   31 1
    30   27   28 1
    31   27   31 2
    32   28   29 2
    33   28   32 1
    34   29   30 1
    35   32   33 3
    36    1   34 1
    37    5   35 1
    38    5   36 1
    39    6   37 1
    40    6   38 1
    41   10   39 1
    42   16   40 1
    43   18   41 1
    44   19   42 1
    45   21   43 1
    46   22   44 1
    47   23   45 1
    48   25   46 1
    49   25   47 1
    50   27   48 1
    51   29   49 1
    52   30   50 1
    53   31   51 1
@<TRIPOS>PROPERTY_DATA
  Total_Score	| 8.7962
  Crash		| -1.3031
  Polar		| 5.7577
  FragIndex	| 1
  FragRMSD	| 0.766

