@<TRIPOS>MOLECULE
BindingDB_26455
 51 53 0 0 0
SMALL
NO_CHARGES


@<TRIPOS>ATOM
1    C       -25.0008   -4.4076  -19.4618  C     
2    C       -25.8303   -5.6368  -19.4351  C     
3    O       -26.2139   -6.2188  -20.5951  O     
4    O       -26.3968   -6.0613  -18.2831  O     
5    C       -25.8740   -3.1126  -19.4237  C     
6    C       -26.8399   -2.9917  -20.6314  C     
7    C       -27.5808   -1.7141  -20.7157  C     
8    O       -28.2735   -1.4478  -21.8490  O     
9    O       -27.5116   -0.7558  -19.7685  O     
10   N       -24.1035   -4.4179  -18.3509  N     
11   S       -22.5006   -4.9362  -18.4445  S     
12   O       -22.4349   -6.3583  -19.1611  O     
13   O       -22.0492   -5.2622  -16.9512  O     
14   C       -21.4197   -3.7954  -19.2032  C     
15   C       -20.6715   -2.5967  -21.2040  C     
16   C       -20.7435   -2.3304  -22.5824  C     
17   C       -19.9483   -1.3924  -23.1360  C     
18   C       -19.0471   -0.6881  -22.3900  C     
19   C       -18.9354   -0.9000  -21.0569  C     
20   C       -19.7454   -1.8590  -20.4142  C     
21   C       -19.6548   -2.1180  -19.0335  C     
22   C       -20.4915   -3.0698  -18.4299  C     
23   C       -21.4997   -3.5598  -20.5920  C     
24   O       -18.1659    0.1020  -23.0229  O     
25   C       -18.0116    1.4628  -22.5628  C     
26   C       -16.5594    1.6881  -22.3250  C     
27   C       -15.6995    1.9198  -23.4263  C     
28   C       -14.3099    2.0313  -23.2500  C     
29   C       -13.7415    1.8761  -21.9674  C     
30   C       -14.5880    1.6651  -20.8587  C     
31   C       -12.4463    1.8898  -21.8148  C     
32   N       -11.3029    1.9040  -21.6724  N     
33   C       -15.9848    1.5854  -21.0314  C     
34   F       -16.7271    1.3905  -19.9710  F     
35   H       -24.4197   -4.3943  -20.3905  H     
36   H       -26.4459   -3.0918  -18.4893  H     
37   H       -25.2042   -2.2473  -19.4223  H     
38   H       -26.2589   -3.0903  -21.5527  H     
39   H       -27.5693   -3.8049  -20.5973  H     
40   H       -24.4565   -4.1945  -17.4725  H     
41   H       -21.3666   -2.8430  -23.1606  H     
42   H       -20.0038   -1.2380  -24.1135  H     
43   H       -18.2447   -0.4027  -20.5455  H     
44   H       -18.9857   -1.6112  -18.4528  H     
45   H       -20.4277   -3.2187  -17.4262  H     
46   H       -22.1668   -4.0915  -21.1594  H     
47   H       -18.3605    2.1438  -23.3488  H     
48   H       -18.5882    1.6864  -21.6658  H     
49   H       -16.0836    2.0010  -24.3735  H     
50   H       -13.7195    2.1883  -24.0725  H     
51   H       -14.1887    1.5439  -19.9181  H     
@<TRIPOS>BOND
     1    1    2 1
     2    1    5 1
     3    1   10 1
     4    2    3 2
     5    2    4 1
     6    5    6 1
     7    6    7 1
     8    7    8 2
     9    7    9 1
    10   10   11 1
    11   11   12 2
    12   11   13 2
    13   11   14 1
    14   14   22 2
    15   14   23 1
    16   15   16 1
    17   15   20 1
    18   15   23 2
    19   16   17 2
    20   17   18 1
    21   18   19 2
    22   18   24 1
    23   19   20 1
    24   20   21 2
    25   21   22 1
    26   24   25 1
    27   25   26 1
    28   26   27 1
    29   26   33 2
    30   27   28 2
    31   28   29 1
    32   29   30 2
    33   29   31 1
    34   30   33 1
    35   31   32 3
    36   33   34 1
    37    1   35 1
    38    5   36 1
    39    5   37 1
    40    6   38 1
    41    6   39 1
    42   10   40 1
    43   16   41 1
    44   17   42 1
    45   19   43 1
    46   21   44 1
    47   22   45 1
    48   23   46 1
    49   25   47 1
    50   25   48 1
    51   27   49 1
    52   28   50 1
    53   30   51 1
@<TRIPOS>PROPERTY_DATA
  Total_Score	| 9.4110
  Crash		| -0.7583
  Polar		| 5.9461
  FragIndex	| 1
  FragRMSD	| 0.606

