@<TRIPOS>MOLECULE
BindingDB_18785
 27 28 0 0 0
SMALL
NO_CHARGES


@<TRIPOS>ATOM
1    C        90.2032   11.7919   36.9259  C     
2    C        90.2636   12.1326   35.5580  C     
3    C        89.1352   12.6760   34.8977  C     
4    C        87.9419   12.8608   35.6322  C     
5    C        87.8749   12.5106   36.9946  C     
6    C        89.0046   11.9785   37.6442  C     
7    C        89.1995   13.0288   33.5169  C     
8    C        88.4684   12.3067   32.5315  C     
9    C        89.3818   13.6406   30.7989  C     
10   C        90.0048   14.1071   33.0543  C     
11   N        87.6597   11.2746   32.8206  N     
12   N        89.5255   13.9344   29.4980  N     
13   N        88.5875   12.6282   31.2155  N     
14   N        90.0520   14.3639   31.7194  N     
15   C        90.7817   15.0115   33.9347  C     
16   Cl       91.5646   11.1692   37.7143  Cl    
17   H        91.1297   11.9826   35.0419  H     
18   H        87.1141   13.2582   35.1845  H     
19   H        87.0103   12.6469   37.5230  H     
20   H        88.9552   11.7324   38.6374  H     
21   H        87.1992   10.8221   32.1024  H     
22   H        87.5103   10.9880   33.7363  H     
23   H        90.1464   14.6295   29.2215  H     
24   H        89.0571   13.4063   28.8322  H     
25   H        90.1294   15.4680   34.6813  H     
26   H        91.2558   15.8143   33.3618  H     
27   H        91.5710   14.4541   34.4370  H     
@<TRIPOS>BOND
     1    1    2 1
     2    1    6 2
     3    1   16 1
     4    2    3 2
     5    3    4 1
     6    3    7 1
     7    4    5 2
     8    5    6 1
     9    7    8 1
    10    7   10 2
    11    8   11 1
    12    8   13 2
    13    9   12 1
    14    9   13 1
    15    9   14 2
    16   10   14 1
    17   10   15 1
    18    2   17 1
    19    4   18 1
    20    5   19 1
    21    6   20 1
    22   11   21 1
    23   11   22 1
    24   12   23 1
    25   12   24 1
    26   15   25 1
    27   15   26 1
    28   15   27 1
@<TRIPOS>PROPERTY_DATA
  Total_Score	| 4.4073
  Crash		| -0.4835
  Polar		| 2.8783
  FragIndex	| 1
  FragRMSD	| 0.301

