@<TRIPOS>MOLECULE
BindingDB_18789
 27 28 0 0 0
SMALL
NO_CHARGES


@<TRIPOS>ATOM
1    C        90.3044   11.7750   36.7527  C     
2    C        90.3278   12.1518   35.3935  C     
3    C        89.1771   12.7078   34.7844  C     
4    C        88.0047   12.8782   35.5595  C     
5    C        87.9778   12.4894   36.9101  C     
6    C        89.1261   11.9339   37.5079  C     
7    C        89.1941   13.0602   33.4076  C     
8    C        88.4906   12.2822   32.4518  C     
9    C        89.3601   13.5944   30.6790  C     
10   C        89.9390   14.1629   32.9160  C     
11   N        87.6981   11.2455   32.7768  N     
12   N        89.5018   13.8276   29.3661  N     
13   N        88.5981   12.5683   31.1266  N     
14   N        89.9932   14.3833   31.5750  N     
15   C        90.6755   15.1070   33.7860  C     
16   H        91.1388   11.3705   37.1863  H     
17   H        91.1842   12.0030   34.8532  H     
18   H        87.1672   13.2846   35.1438  H     
19   H        87.1263   12.5994   37.4565  H     
20   H        89.1059   11.6423   38.4828  H     
21   H        87.2528   10.7457   32.0774  H     
22   H        87.5538   10.9972   33.7027  H     
23   H        90.0907   14.5372   29.0536  H     
24   H        89.0354   13.2685   28.7229  H     
25   H        90.0054   15.5244   34.5405  H     
26   H        91.0939   15.9333   33.2130  H     
27   H        91.4966   14.5894   34.2847  H     
@<TRIPOS>BOND
     1    1    2 2
     2    1    6 1
     3    2    3 1
     4    3    4 2
     5    3    7 1
     6    4    5 1
     7    5    6 2
     8    7    8 1
     9    7   10 2
    10    8   11 1
    11    8   13 2
    12    9   12 1
    13    9   13 1
    14    9   14 2
    15   10   14 1
    16   10   15 1
    17    1   16 1
    18    2   17 1
    19    4   18 1
    20    5   19 1
    21    6   20 1
    22   11   21 1
    23   11   22 1
    24   12   23 1
    25   12   24 1
    26   15   25 1
    27   15   26 1
    28   15   27 1
@<TRIPOS>PROPERTY_DATA
  Total_Score	| 4.5631
  Crash		| -0.3800
  Polar		| 2.7710
  FragIndex	| 1
  FragRMSD	| 0.691

