@<TRIPOS>MOLECULE
BindingDB_50306555
 33 34 0 0 0
SMALL
NO_CHARGES


@<TRIPOS>ATOM
1    N        34.5484   23.3212   28.0455  N     
2    C        33.7548   22.4566   27.2579  C     
3    C        33.1798   23.1335   25.9803  C     
4    O        32.4371   24.3066   26.3155  O     
5    C        32.2617   22.1427   25.1994  C     
6    O        33.0423   21.2330   24.4222  O     
7    C        31.2569   21.3637   26.1110  C     
8    O        30.1125   22.1913   26.3228  O     
9    C        31.8278   20.9511   27.5128  C     
10   O        32.6775   21.9652   28.0842  O     
11   C        32.4567   19.5295   27.6155  C     
12   O        33.1661   19.1125   26.4515  O     
13   N        34.1070   24.1682   28.8456  N     
14   N        35.0017   24.6248   29.5567  N     
15   C        36.1129   24.0658   29.2352  C     
16   C        35.8091   23.2256   28.2456  C     
17   C        37.4057   24.2139   29.8631  C     
18   O        37.3518   24.0371   31.2803  O     
19   H        34.3644   21.6135   26.9306  H     
20   H        34.0091   23.4384   25.3342  H     
21   H        32.3647   24.8044   25.4751  H     
22   H        31.6950   22.7157   24.4554  H     
23   H        33.5203   20.6635   25.0616  H     
24   H        30.8935   20.4738   25.5842  H     
25   H        29.6876   22.2887   25.4419  H     
26   H        30.9808   20.9162   28.2028  H     
27   H        33.1410   19.5087   28.4689  H     
28   H        31.6722   18.7868   27.8086  H     
29   H        32.6591   18.3474   26.1066  H     
30   H        36.4443   22.6000   27.8061  H     
31   H        38.0854   23.4601   29.4599  H     
32   H        37.7940   25.2089   29.6445  H     
33   H        37.5308   23.0843   31.4227  H     
@<TRIPOS>BOND
     1    2    1 1
     2    1   13 1
     3    1   16 1
     4    2    3 1
     5    2   10 1
     6    3    4 1
     7    3    5 1
     8    5    6 1
     9    5    7 1
    10    7    8 1
    11    7    9 1
    12    9   10 1
    13    9   11 1
    14   11   12 1
    15   13   14 2
    16   14   15 1
    17   15   16 2
    18   15   17 1
    19   17   18 1
    20    2   19 1
    21    3   20 1
    22    4   21 1
    23    5   22 1
    24    6   23 1
    25    7   24 1
    26    8   25 1
    27    9   26 1
    28   11   27 1
    29   11   28 1
    30   12   29 1
    31   16   30 1
    32   17   31 1
    33   17   32 1
    34   18   33 1
@<TRIPOS>PROPERTY_DATA
  Total_Score	| 5.7842
  Crash		| -1.2909
  Polar		| 5.0545
  FragIndex	| 1
  FragRMSD	| 0.917

