@<TRIPOS>MOLECULE
BindingDB_50306548
 33 34 0 0 0
SMALL
NO_CHARGES


@<TRIPOS>ATOM
1    N        34.1489   23.5418   28.4912  N     
2    C        33.1449   22.8413   27.7926  C     
3    C        33.1685   23.1071   26.2612  C     
4    O        32.9293   24.5038   26.0637  O     
5    C        32.1191   22.2398   25.5155  C     
6    O        32.2948   22.2536   24.0994  O     
7    C        32.1721   20.7375   25.9579  C     
8    O        31.0226   20.0842   25.4021  O     
9    C        32.2333   20.5825   27.5086  C     
10   O        33.2856   21.4209   28.0463  O     
11   C        32.4698   19.1191   27.9990  C     
12   O        33.1760   18.3292   27.0448  O     
13   N        33.9309   24.4901   29.2557  N     
14   N        34.9548   24.9131   29.7738  N     
15   C        35.9344   24.2059   29.3584  C     
16   C        35.4167   23.3154   28.5198  C     
17   C        37.2949   24.3594   29.8183  C     
18   O        38.1299   23.2709   29.4245  O     
19   H        32.1680   23.1424   28.1784  H     
20   H        34.1690   22.8815   25.8761  H     
21   H        32.8517   24.6378   25.0956  H     
22   H        31.1257   22.6439   25.7274  H     
23   H        32.4126   23.1908   23.8446  H     
24   H        33.0529   20.2735   25.5180  H     
25   H        31.2024   19.1108   25.4587  H     
26   H        31.2892   20.8973   27.9679  H     
27   H        33.0372   19.1246   28.9345  H     
28   H        31.5189   18.6371   28.2192  H     
29   H        32.5112   17.6663   26.7453  H     
30   H        35.8961   22.6135   28.0110  H     
31   H        37.7147   25.2686   29.4093  H     
32   H        37.3036   24.4653   30.9079  H     
33   H        37.9546   22.5583   30.0797  H     
@<TRIPOS>BOND
     1    2    1 1
     2    1   13 1
     3    1   16 1
     4    2    3 1
     5    2   10 1
     6    3    4 1
     7    3    5 1
     8    5    6 1
     9    5    7 1
    10    7    8 1
    11    7    9 1
    12    9   10 1
    13    9   11 1
    14   11   12 1
    15   13   14 2
    16   14   15 1
    17   15   16 2
    18   15   17 1
    19   17   18 1
    20    2   19 1
    21    3   20 1
    22    4   21 1
    23    5   22 1
    24    6   23 1
    25    7   24 1
    26    8   25 1
    27    9   26 1
    28   11   27 1
    29   11   28 1
    30   12   29 1
    31   16   30 1
    32   17   31 1
    33   17   32 1
    34   18   33 1
@<TRIPOS>PROPERTY_DATA
  Total_Score	| 9.4997
  Crash		| -1.2462
  Polar		| 8.8652
  FragIndex	| 1
  FragRMSD	| 0.445

