@<TRIPOS>MOLECULE
BindingDB_50306559
 49 52 0 0 0
SMALL
NO_CHARGES


@<TRIPOS>ATOM
1    N        33.9175   23.7130   28.6232  N     
2    C        32.9724   23.0505   27.7743  C     
3    C        33.4486   23.2327   26.2831  C     
4    O        33.4408   24.6117   25.9144  O     
5    C        32.6416   22.3436   25.2900  C     
6    O        33.1947   22.4175   23.9728  O     
7    C        32.6484   20.8647   25.7502  C     
8    O        31.7639   20.1045   24.9245  O     
9    C        32.2449   20.7186   27.2508  C     
10   O        33.0286   21.6194   28.0802  O     
11   C        32.3741   19.2534   27.7642  C     
12   O        33.1635   18.4274   26.9036  O     
13   N        33.7158   24.7732   29.2362  N     
14   N        34.6897   25.1220   29.8858  N     
15   C        35.6397   24.2799   29.7198  C     
16   C        35.1374   23.3762   28.8809  C     
17   C        31.6130   23.5495   28.0665  C     
18   N        30.7910   24.0983   27.1952  N     
19   O        31.2011   23.4849   29.2151  O     
20   C        36.8884   24.3595   30.3427  C     
21   C        37.9966   23.5818   29.9230  C     
22   C        39.2397   23.6763   30.5779  C     
23   C        37.0754   25.2523   31.4305  C     
24   C        38.3220   25.3794   32.0733  C     
25   C        39.4133   24.5668   31.6590  C     
26   C        40.6346   24.6981   32.3330  C     
27   C        40.7745   25.6231   33.3064  C     
28   C        39.7323   26.4182   33.6887  C     
29   C        38.5229   26.3046   33.1053  C     
30   H        34.4948   22.9062   26.2078  H     
31   H        32.8114   24.6989   25.1703  H     
32   H        31.6068   22.6833   25.2218  H     
33   H        32.9588   23.3042   23.6306  H     
34   H        33.6596   20.4818   25.5995  H     
35   H        31.7501   19.1997   25.3066  H     
36   H        31.1867   20.9948   27.3503  H     
37   H        32.8079   19.2323   28.7674  H     
38   H        31.3737   18.8097   27.8287  H     
39   H        32.5776   17.6754   26.6708  H     
40   H        35.5958   22.5596   28.5522  H     
41   H        29.9194   24.4206   27.4792  H     
42   H        31.0456   24.1864   26.2669  H     
43   H        37.9161   22.9410   29.1314  H     
44   H        40.0162   23.0945   30.2558  H     
45   H        36.2947   25.8202   31.7635  H     
46   H        41.4163   24.1412   32.0744  H     
47   H        41.6625   25.7619   33.7252  H     
48   H        39.8700   27.0955   34.4028  H     
49   H        37.7837   26.8999   33.4017  H     
@<TRIPOS>BOND
     1    2    1 1
     2    1   13 1
     3    1   16 1
     4    2    3 1
     5    2   10 1
     6    2   17 1
     7    3    4 1
     8    3    5 1
     9    5    6 1
    10    5    7 1
    11    7    8 1
    12    7    9 1
    13    9   10 1
    14    9   11 1
    15   11   12 1
    16   13   14 2
    17   14   15 1
    18   15   16 2
    19   15   20 1
    20   17   18 am
    21   17   19 2
    22   20   21 2
    23   20   23 1
    24   21   22 1
    25   22   25 2
    26   23   24 2
    27   24   25 1
    28   24   29 1
    29   25   26 1
    30   26   27 2
    31   27   28 1
    32   28   29 2
    33    3   30 1
    34    4   31 1
    35    5   32 1
    36    6   33 1
    37    7   34 1
    38    8   35 1
    39    9   36 1
    40   11   37 1
    41   11   38 1
    42   12   39 1
    43   16   40 1
    44   18   41 1
    45   18   42 1
    46   21   43 1
    47   22   44 1
    48   23   45 1
    49   26   46 1
    50   27   47 1
    51   28   48 1
    52   29   49 1
@<TRIPOS>PROPERTY_DATA
  Total_Score	| 9.4486
  Crash		| -3.3765
  Polar		| 7.9060
  FragIndex	| 1
  FragRMSD	| 0.632

