@<TRIPOS>MOLECULE
BindingDB_50306552
 35 36 0 0 0
SMALL
NO_CHARGES


@<TRIPOS>ATOM
1    N        34.2268   23.5401   28.5472  N     
2    C        33.2621   22.8095   27.8255  C     
3    C        33.3048   23.0785   26.2909  C     
4    O        33.1138   24.4700   26.0597  O     
5    C        32.2061   22.2478   25.5626  C     
6    O        32.3752   22.2869   24.1403  O     
7    C        32.2521   20.7555   25.9746  C     
8    O        31.1213   20.0611   25.4179  O     
9    C        32.3046   20.5834   27.5300  C     
10   O        33.3868   21.3874   28.0778  O     
11   C        32.4692   19.1067   27.9699  C     
12   O        33.2054   18.3237   27.0210  O     
13   N        33.9317   24.4932   29.2707  N     
14   N        34.9045   24.9298   29.8724  N     
15   C        35.9201   24.2147   29.5756  C     
16   C        35.4889   23.3336   28.6745  C     
17   C        37.1588   24.3462   30.1704  C     
18   O        38.1974   23.5213   29.8639  O     
19   O        37.3173   25.2724   31.1516  O     
20   C        39.4889   23.5691   30.4910  C     
21   H        32.2679   23.1118   28.1794  H     
22   H        34.2834   22.7993   25.8917  H     
23   H        32.8208   24.5640   25.1160  H     
24   H        31.2143   22.6564   25.8032  H     
25   H        32.5334   23.2279   23.9098  H     
26   H        33.1591   20.3161   25.5389  H     
27   H        31.3621   19.1091   25.4222  H     
28   H        31.3589   20.9418   27.9629  H     
29   H        32.9932   19.0592   28.9350  H     
30   H        31.4827   18.6563   28.1068  H     
31   H        32.5527   17.6451   26.7087  H     
32   H        36.0209   22.6081   28.2474  H     
33   H        39.9622   24.5413   30.3223  H     
34   H        40.1229   22.7847   30.0708  H     
35   H        39.3960   23.4091   31.5695  H     
@<TRIPOS>BOND
     1    2    1 1
     2    1   13 1
     3    1   16 1
     4    2    3 1
     5    2   10 1
     6    3    4 1
     7    3    5 1
     8    5    6 1
     9    5    7 1
    10    7    8 1
    11    7    9 1
    12    9   10 1
    13    9   11 1
    14   11   12 1
    15   13   14 2
    16   14   15 1
    17   15   16 2
    18   15   17 1
    19   17   18 1
    20   17   19 2
    21   18   20 1
    22    2   21 1
    23    3   22 1
    24    4   23 1
    25    5   24 1
    26    6   25 1
    27    7   26 1
    28    8   27 1
    29    9   28 1
    30   11   29 1
    31   11   30 1
    32   12   31 1
    33   16   32 1
    34   20   33 1
    35   20   34 1
    36   20   35 1
@<TRIPOS>PROPERTY_DATA
  Total_Score	| 8.9693
  Crash		| -1.6188
  Polar		| 7.8436
  FragIndex	| 1
  FragRMSD	| 0.392

