@<TRIPOS>MOLECULE
BindingDB_50306554
 42 44 0 0 0
SMALL
NO_CHARGES


@<TRIPOS>ATOM
1    N        34.1090   23.5576   28.5753  N     
2    C        33.1454   22.7973   27.8729  C     
3    C        33.1875   23.1020   26.3339  C     
4    O        32.8911   24.4843   26.1053  O     
5    C        32.1662   22.2156   25.5603  C     
6    O        32.3671   22.2948   24.1474  O     
7    C        32.2557   20.7241   25.9620  C     
8    O        31.1581   20.0056   25.3725  O     
9    C        32.2499   20.5583   27.5092  C     
10   O        33.2975   21.3683   28.0923  O     
11   C        32.4082   19.0771   27.9336  C     
12   O        33.1855   18.3292   26.9870  O     
13   N        33.8486   24.5972   29.2112  N     
14   N        34.8328   25.0240   29.8107  N     
15   C        35.8209   24.2407   29.5790  C     
16   C        35.3496   23.2977   28.7715  C     
17   C        37.1750   24.3519   30.0975  C     
18   C        37.2844   24.9836   31.4381  C     
19   C        36.3030   24.7513   32.4331  C     
20   C        36.4123   25.3403   33.7057  C     
21   C        37.5308   26.1289   34.0251  C     
22   C        38.5280   26.3540   33.0549  C     
23   C        38.3996   25.7985   31.7705  C     
24   H        32.1638   23.0936   28.2712  H     
25   H        34.1970   22.8930   25.9633  H     
26   H        32.8489   24.5777   25.1314  H     
27   H        31.1545   22.5667   25.7704  H     
28   H        32.5259   23.2389   23.9442  H     
29   H        33.1924   20.3244   25.5553  H     
30   H        31.4035   19.0592   25.4514  H     
31   H        31.2906   20.8959   27.9064  H     
32   H        32.8761   19.0039   28.9245  H     
33   H        31.4126   18.6151   28.0001  H     
34   H        32.5892   17.6067   26.6906  H     
35   H        35.8610   22.5329   28.4018  H     
36   H        37.6031   23.3519   30.1775  H     
37   H        37.7795   24.8976   29.3649  H     
38   H        35.4891   24.1690   32.2257  H     
39   H        35.6980   25.1568   34.4144  H     
40   H        37.6210   26.5412   34.9589  H     
41   H        39.3481   26.9161   33.2926  H     
42   H        39.1413   25.9737   31.0900  H     
@<TRIPOS>BOND
     1    2    1 1
     2    1   13 1
     3    1   16 1
     4    2    3 1
     5    2   10 1
     6    3    4 1
     7    3    5 1
     8    5    6 1
     9    5    7 1
    10    7    8 1
    11    7    9 1
    12    9   10 1
    13    9   11 1
    14   11   12 1
    15   13   14 2
    16   14   15 1
    17   15   16 2
    18   15   17 1
    19   17   18 1
    20   18   19 2
    21   18   23 1
    22   19   20 1
    23   20   21 2
    24   21   22 1
    25   22   23 2
    26    2   24 1
    27    3   25 1
    28    4   26 1
    29    5   27 1
    30    6   28 1
    31    7   29 1
    32    8   30 1
    33    9   31 1
    34   11   32 1
    35   11   33 1
    36   12   34 1
    37   16   35 1
    38   17   36 1
    39   17   37 1
    40   19   38 1
    41   20   39 1
    42   21   40 1
    43   22   41 1
    44   23   42 1
@<TRIPOS>PROPERTY_DATA
  Total_Score	| 10.4179
  Crash		| -1.3968
  Polar		| 7.8031
  FragIndex	| 1
  FragRMSD	| 0.263

