@<TRIPOS>MOLECULE
BindingDB_50306549
 39 41 0 0 0
SMALL
NO_CHARGES


@<TRIPOS>ATOM
1    N        34.0896   23.5842   28.5686  N     
2    C        33.1378   22.8362   27.8462  C     
3    C        33.2487   23.0574   26.3092  C     
4    O        33.0575   24.4516   26.0355  O     
5    C        32.1840   22.2020   25.5678  C     
6    O        32.3663   22.2649   24.1499  O     
7    C        32.2574   20.7115   25.9962  C     
8    O        31.1685   20.0095   25.3990  O     
9    C        32.2605   20.5754   27.5462  C     
10   O        33.2782   21.4216   28.1342  O     
11   C        32.4848   19.1142   28.0458  C     
12   O        33.1502   18.2768   27.0908  O     
13   N        33.8112   24.5223   29.3269  N     
14   N        34.7997   24.9111   29.9387  N     
15   C        35.8174   24.2072   29.6022  C     
16   C        35.3515   23.3676   28.6758  C     
17   C        37.0855   24.2754   30.1951  C     
18   C        38.1667   23.4836   29.7352  C     
19   C        39.4182   23.5198   30.3762  C     
20   C        39.6151   24.3540   31.4891  C     
21   C        38.5655   25.1641   31.9511  C     
22   C        37.3113   25.1202   31.3141  C     
23   H        32.1376   23.1558   28.1613  H     
24   H        34.2503   22.7671   25.9705  H     
25   H        32.8822   24.5216   25.0703  H     
26   H        31.1838   22.5914   25.8035  H     
27   H        32.4915   23.2154   23.9209  H     
28   H        33.1879   20.3074   25.5868  H     
29   H        31.4225   19.0555   25.3960  H     
30   H        31.2860   20.8966   27.9290  H     
31   H        33.0776   19.1205   28.9582  H     
32   H        31.5206   18.6628   28.2832  H     
33   H        32.4550   17.6645   26.7637  H     
34   H        35.8519   22.6387   28.2232  H     
35   H        38.0610   22.8577   28.9352  H     
36   H        40.1821   22.9249   30.0442  H     
37   H        40.5207   24.3695   31.9593  H     
38   H        38.7058   25.7702   32.7633  H     
39   H        36.5628   25.7045   31.6903  H     
@<TRIPOS>BOND
     1    2    1 1
     2    1   13 1
     3    1   16 1
     4    2    3 1
     5    2   10 1
     6    3    4 1
     7    3    5 1
     8    5    6 1
     9    5    7 1
    10    7    8 1
    11    7    9 1
    12    9   10 1
    13    9   11 1
    14   11   12 1
    15   13   14 2
    16   14   15 1
    17   15   16 2
    18   15   17 1
    19   17   18 2
    20   17   22 1
    21   18   19 1
    22   19   20 2
    23   20   21 1
    24   21   22 2
    25    2   23 1
    26    3   24 1
    27    4   25 1
    28    5   26 1
    29    6   27 1
    30    7   28 1
    31    8   29 1
    32    9   30 1
    33   11   31 1
    34   11   32 1
    35   12   33 1
    36   16   34 1
    37   18   35 1
    38   19   36 1
    39   20   37 1
    40   21   38 1
    41   22   39 1
@<TRIPOS>PROPERTY_DATA
  Total_Score	| 9.5645
  Crash		| -1.8702
  Polar		| 7.8589
  FragIndex	| 1
  FragRMSD	| 0.275

