@<TRIPOS>MOLECULE
BindingDB_50306560
 31 32 0 0 0
SMALL
NO_CHARGES


@<TRIPOS>ATOM
1    N        34.4663   23.2919   28.1237  N     
2    C        33.7165   22.4119   27.3071  C     
3    C        33.1544   23.1110   26.0333  C     
4    O        32.3808   24.2582   26.3738  O     
5    C        32.2885   22.1284   25.1992  C     
6    O        33.1002   21.2155   24.4627  O     
7    C        31.2399   21.3665   26.0637  C     
8    O        30.1292   22.2365   26.3047  O     
9    C        31.7775   20.8694   27.4465  C     
10   O        32.6497   21.8320   28.0859  O     
11   C        32.3528   19.4235   27.4645  C     
12   O        33.3804   19.2095   26.4810  O     
13   N        33.9863   24.1535   28.8696  N     
14   N        34.8438   24.6412   29.6058  N     
15   C        35.9618   24.0773   29.3613  C     
16   C        35.7226   23.2191   28.3787  C     
17   C        37.1563   24.2892   30.0123  C     
18   O        38.2872   23.6573   29.6297  O     
19   O        37.2251   25.1098   31.0905  O     
20   H        34.3695   21.5936   26.9781  H     
21   H        33.9958   23.4549   25.4210  H     
22   H        32.2846   24.7549   25.5277  H     
23   H        31.7568   22.7042   24.4381  H     
24   H        33.5254   20.6273   25.1357  H     
25   H        30.8380   20.5250   25.4826  H     
26   H        29.7187   22.4046   25.4296  H     
27   H        30.9109   20.8088   28.1119  H     
28   H        32.7637   19.2132   28.4656  H     
29   H        31.5524   18.7026   27.2641  H     
30   H        34.1362   18.7842   26.9761  H     
31   H        36.3858   22.6203   27.9613  H     
@<TRIPOS>BOND
     1    2    1 1
     2    1   13 1
     3    1   16 1
     4    2    3 1
     5    2   10 1
     6    3    4 1
     7    3    5 1
     8    5    6 1
     9    5    7 1
    10    7    8 1
    11    7    9 1
    12    9   10 1
    13    9   11 1
    14   11   12 1
    15   13   14 2
    16   14   15 1
    17   15   16 2
    18   15   17 1
    19   17   18 1
    20   17   19 2
    21    2   20 1
    22    3   21 1
    23    4   22 1
    24    5   23 1
    25    6   24 1
    26    7   25 1
    27    8   26 1
    28    9   27 1
    29   11   28 1
    30   11   29 1
    31   12   30 1
    32   16   31 1
@<TRIPOS>PROPERTY_DATA
  Total_Score	| 4.7353
  Crash		| -0.9715
  Polar		| 3.7307
  FragIndex	| 1
  FragRMSD	| 0.959

