@<TRIPOS>MOLECULE
BindingDB_50306550
 45 48 0 0 0
SMALL
NO_CHARGES


@<TRIPOS>ATOM
1    N        34.2587   23.3495   28.4591  N     
2    C        33.2508   22.6712   27.7457  C     
3    C        33.2328   22.9733   26.2135  C     
4    O        33.1053   24.3940   26.0007  O     
5    C        32.1057   22.1805   25.4909  C     
6    O        32.2197   22.2446   24.0561  O     
7    C        32.1099   20.6774   25.9155  C     
8    O        30.8996   20.1240   25.3759  O     
9    C        32.2493   20.4750   27.4574  C     
10   O        33.3827   21.2429   27.9592  O     
11   C        32.4134   18.9911   27.8781  C     
12   O        33.2148   18.2862   26.9309  O     
13   N        35.2967   23.8171   27.9920  N     
14   N        36.0109   24.2725   28.8478  N     
15   C        35.4630   24.1235   30.0068  C     
16   C        34.3141   23.5285   29.7182  C     
17   C        35.9685   24.5807   31.2154  C     
18   C        35.2403   24.5123   32.4433  C     
19   C        35.7762   25.0251   33.6465  C     
20   C        37.2407   25.1793   31.2647  C     
21   C        37.7868   25.7136   32.4457  C     
22   C        37.0527   25.6166   33.6625  C     
23   C        37.6549   26.0937   34.8326  C     
24   C        38.8975   26.6387   34.7919  C     
25   C        39.5957   26.7456   33.6148  C     
26   C        39.0575   26.3149   32.4591  C     
27   H        32.2906   23.0173   28.1602  H     
28   H        34.2164   22.6914   25.7892  H     
29   H        33.0709   24.4990   25.0072  H     
30   H        31.1559   22.6321   25.7737  H     
31   H        32.3597   23.1865   23.8332  H     
32   H        32.9575   20.1764   25.4099  H     
33   H        31.0522   19.1276   25.3594  H     
34   H        31.3372   20.8322   27.9523  H     
35   H        32.8621   18.9496   28.8762  H     
36   H        31.4329   18.5196   27.9331  H     
37   H        32.6338   17.5549   26.6556  H     
38   H        33.5801   23.3433   30.3668  H     
39   H        34.3183   24.0973   32.4802  H     
40   H        35.2360   24.9616   34.5234  H     
41   H        37.8190   25.2378   30.4190  H     
42   H        37.1888   26.0242   35.7068  H     
43   H        39.3168   26.9615   35.6386  H     
44   H        40.5067   27.1404   33.6190  H     
45   H        39.5706   26.4232   31.6203  H     
@<TRIPOS>BOND
     1    2    1 1
     2    1   13 1
     3    1   16 1
     4    2    3 1
     5    2   10 1
     6    3    4 1
     7    3    5 1
     8    5    6 1
     9    5    7 1
    10    7    8 1
    11    7    9 1
    12    9   10 1
    13    9   11 1
    14   11   12 1
    15   13   14 2
    16   14   15 1
    17   15   16 2
    18   15   17 1
    19   17   18 2
    20   17   20 1
    21   18   19 1
    22   19   22 2
    23   20   21 2
    24   21   22 1
    25   21   26 1
    26   22   23 1
    27   23   24 2
    28   24   25 1
    29   25   26 2
    30    2   27 1
    31    3   28 1
    32    4   29 1
    33    5   30 1
    34    6   31 1
    35    7   32 1
    36    8   33 1
    37    9   34 1
    38   11   35 1
    39   11   36 1
    40   12   37 1
    41   16   38 1
    42   18   39 1
    43   19   40 1
    44   20   41 1
    45   23   42 1
    46   24   43 1
    47   25   44 1
    48   26   45 1
@<TRIPOS>PROPERTY_DATA
  Total_Score	| 10.0682
  Crash		| -1.7067
  Polar		| 6.7951
  FragIndex	| 1
  FragRMSD	| 0.942

