@<TRIPOS>MOLECULE
BindingDB_50306553
 35 36 0 0 0
SMALL
NO_CHARGES


@<TRIPOS>ATOM
1    N        34.1809   23.4425   28.4837  N     
2    C        33.1674   22.7671   27.7807  C     
3    C        33.2211   23.0409   26.2474  C     
4    O        33.0495   24.4433   26.0310  O     
5    C        32.1251   22.2234   25.4967  C     
6    O        32.3030   22.2810   24.0815  O     
7    C        32.1570   20.7274   25.8958  C     
8    O        31.0184   20.0639   25.3447  O     
9    C        32.1920   20.5561   27.4487  C     
10   O        33.2647   21.3408   28.0246  O     
11   C        32.3463   19.0737   27.8889  C     
12   O        33.1404   18.3250   26.9615  O     
13   N        33.9953   24.3066   29.3511  N     
14   N        35.0381   24.6610   29.8845  N     
15   C        35.9967   23.9906   29.3637  C     
16   C        35.4386   23.2180   28.4369  C     
17   C        37.3140   23.9813   29.7870  C     
18   O        37.6937   24.7851   30.8231  O     
19   O        38.2064   23.1180   29.2362  O     
20   N        38.9499   24.7534   31.3423  N     
21   H        32.1946   23.1124   28.1563  H     
22   H        34.2079   22.7556   25.8563  H     
23   H        32.8779   24.5391   25.0668  H     
24   H        31.1455   22.6454   25.7368  H     
25   H        32.4875   23.2191   23.8629  H     
26   H        33.0487   20.2696   25.4627  H     
27   H        31.2202   19.1002   25.3957  H     
28   H        31.2404   20.9077   27.8729  H     
29   H        32.8086   19.0133   28.8793  H     
30   H        31.3531   18.6152   27.9537  H     
31   H        32.5401   17.6185   26.6307  H     
32   H        35.9112   22.5524   27.8739  H     
33   H        39.1420   23.8057   31.6911  H     
34   H        39.0005   25.4287   32.1103  H     
35   H        39.6364   25.0054   30.6213  H     
@<TRIPOS>BOND
     1    2    1 1
     2    1   13 1
     3    1   16 1
     4    2    3 1
     5    2   10 1
     6    3    4 1
     7    3    5 1
     8    5    6 1
     9    5    7 1
    10    7    8 1
    11    7    9 1
    12    9   10 1
    13    9   11 1
    14   11   12 1
    15   13   14 2
    16   14   15 1
    17   15   16 2
    18   15   17 1
    19   17   18 1
    20   17   19 2
    21   18   20 1
    22    2   21 1
    23    3   22 1
    24    4   23 1
    25    5   24 1
    26    6   25 1
    27    7   26 1
    28    8   27 1
    29    9   28 1
    30   11   29 1
    31   11   30 1
    32   12   31 1
    33   16   32 1
    34   20   33 1
    35   20   34 1
    36   20   35 1
@<TRIPOS>PROPERTY_DATA
  Total_Score	| 8.5727
  Crash		| -1.0473
  Polar		| 7.5579
  FragIndex	| 1
  FragRMSD	| 0.251

