@<TRIPOS>MOLECULE
BindingDB_50306551
 45 48 0 0 0
SMALL
NO_CHARGES


@<TRIPOS>ATOM
1    N        33.9157   23.5737   28.5864  N     
2    C        33.0118   22.7926   27.8387  C     
3    C        33.1189   23.0796   26.3056  C     
4    O        32.8550   24.4711   26.0659  O     
5    C        32.1205   22.1894   25.5073  C     
6    O        32.3541   22.2708   24.0919  O     
7    C        32.2626   20.6910   25.9009  C     
8    O        31.2589   19.9179   25.2481  O     
9    C        32.2027   20.5057   27.4527  C     
10   O        33.1918   21.3648   28.0729  O     
11   C        32.4203   19.0445   27.9200  C     
12   O        33.1915   18.2768   26.9912  O     
13   N        33.7218   24.7767   28.8517  N     
14   N        34.5809   25.2206   29.6065  N     
15   C        35.4483   24.2986   29.8177  C     
16   C        35.0039   23.2213   29.1676  C     
17   C        36.5630   24.4441   30.5770  C     
18   C        37.7727   24.1440   30.0319  C     
19   C        38.9448   24.3338   30.7203  C     
20   C        38.9596   24.9125   31.9381  C     
21   C        36.5224   24.9738   31.8989  C     
22   C        37.7605   25.2655   32.5620  C     
23   C        37.7742   25.8535   33.8479  C     
24   C        36.5709   26.0939   34.5237  C     
25   C        35.3422   25.7659   33.9145  C     
26   C        35.3189   25.2201   32.6178  C     
27   H        31.9877   23.0572   28.1590  H     
28   H        34.1425   22.8659   25.9623  H     
29   H        32.8590   24.5856   25.0899  H     
30   H        31.1016   22.5328   25.7073  H     
31   H        32.5348   23.2101   23.8852  H     
32   H        33.2411   20.3539   25.5403  H     
33   H        31.5198   18.9835   25.3981  H     
34   H        31.2095   20.8114   27.8046  H     
35   H        32.9407   19.0412   28.8947  H     
36   H        31.4585   18.5536   28.0635  H     
37   H        32.5847   17.5645   26.6947  H     
38   H        35.4150   22.3202   29.1604  H     
39   H        37.8443   23.8200   29.0985  H     
40   H        39.8029   24.0325   30.3180  H     
41   H        39.8300   25.0259   32.4161  H     
42   H        38.6658   26.0808   34.3093  H     
43   H        36.5878   26.4924   35.4676  H     
44   H        34.4672   25.9258   34.4243  H     
45   H        34.4071   24.9842   32.2055  H     
@<TRIPOS>BOND
     1    2    1 1
     2    1   13 1
     3    1   16 1
     4    2    3 1
     5    2   10 1
     6    3    4 1
     7    3    5 1
     8    5    6 1
     9    5    7 1
    10    7    8 1
    11    7    9 1
    12    9   10 1
    13    9   11 1
    14   11   12 1
    15   13   14 2
    16   14   15 1
    17   15   16 2
    18   15   17 1
    19   17   18 2
    20   17   21 1
    21   18   19 1
    22   19   20 2
    23   20   22 1
    24   21   22 1
    25   21   26 2
    26   22   23 2
    27   23   24 1
    28   24   25 2
    29   25   26 1
    30    2   27 1
    31    3   28 1
    32    4   29 1
    33    5   30 1
    34    6   31 1
    35    7   32 1
    36    8   33 1
    37    9   34 1
    38   11   35 1
    39   11   36 1
    40   12   37 1
    41   16   38 1
    42   18   39 1
    43   19   40 1
    44   20   41 1
    45   23   42 1
    46   24   43 1
    47   25   44 1
    48   26   45 1
@<TRIPOS>PROPERTY_DATA
  Total_Score	| 10.3147
  Crash		| -1.6249
  Polar		| 7.6347
  FragIndex	| 1
  FragRMSD	| 0.526

