@<TRIPOS>MOLECULE
BindingDB_50219594
 49 51 0 0 0
SMALL
NO_CHARGES


@<TRIPOS>ATOM
1    S        44.5780   14.4592    1.1813  S     
2    C        44.8590   15.8482    2.1430  C     
3    C        45.8217   15.4804    3.0841  C     
4    C        46.2176   14.1314    3.0285  C     
5    C        45.6592   13.3749    1.9760  C     
6    C        44.2085   17.0753    1.9821  C     
7    O        43.2060   17.1947    1.0906  O     
8    O        44.4768   18.1294    2.7839  O     
9    C        45.8422   12.0060    1.6166  C     
10   C        47.0304   11.3000    1.9289  C     
11   C        47.1546    9.9102    1.7449  C     
12   C        46.1247    9.2390    1.0448  C     
13   C        44.9764    9.9313    0.6267  C     
14   C        44.8214   11.2891    0.9411  C     
15   Br       47.3034   13.5269    4.4231  Br    
16   O        46.3239   16.3206    4.0367  O     
17   C        47.5512   16.9741    3.6522  C     
18   C        48.2175   17.4367    4.8753  C     
19   O        49.5522   17.2896    5.0358  O     
20   O        47.5056   18.0712    5.8315  O     
21   N        48.2498    9.3209    2.2955  N     
22   C        48.4791    7.9313    2.5698  C     
23   N        50.2411    5.9333    3.7892  N     
24   C        50.1272    5.9953    2.3368  C     
25   C        49.7627    7.4290    1.8669  C     
26   C        48.6151    7.7674    4.1160  C     
27   C        49.0317    6.3238    4.5029  C     
28   C        51.3842    5.5564    4.4009  C     
29   C        51.5738    5.4872    5.8427  C     
30   O        52.3677    5.2378    3.7422  O     
31   H        47.8298   11.7809    2.3228  H     
32   H        46.2085    8.2522    0.8110  H     
33   H        44.2468    9.4420    0.1080  H     
34   H        43.9426   11.7405    0.6772  H     
35   H        48.2473   16.3191    3.1118  H     
36   H        47.3180   17.8327    3.0191  H     
37   H        48.8963    9.9226    2.7055  H     
38   H        47.6450    7.3014    2.2627  H     
39   H        51.0378    5.6975    1.8051  H     
40   H        49.3450    5.3007    2.0133  H     
41   H        49.6096    7.4340    0.7830  H     
42   H        50.5975    8.1000    2.0953  H     
43   H        49.3715    8.4600    4.4975  H     
44   H        47.6620    8.0071    4.5948  H     
45   H        48.2272    5.6305    4.2439  H     
46   H        49.1255    6.2954    5.5879  H     
47   H        51.4176    6.4719    6.2791  H     
48   H        52.5816    5.1620    6.1184  H     
49   H        50.8650    4.7816    6.2786  H     
@<TRIPOS>BOND
     1    1    2 1
     2    1    5 1
     3    2    3 2
     4    2    6 1
     5    3    4 1
     6    3   16 1
     7    4    5 2
     8    4   15 1
     9    5    9 1
    10    6    7 2
    11    6    8 1
    12    9   10 2
    13    9   14 1
    14   10   11 1
    15   11   12 2
    16   11   21 1
    17   12   13 1
    18   13   14 2
    19   16   17 1
    20   17   18 1
    21   18   19 1
    22   18   20 2
    23   21   22 1
    24   22   25 1
    25   22   26 1
    26   23   24 1
    27   23   27 1
    28   23   28 am
    29   24   25 1
    30   26   27 1
    31   28   29 1
    32   28   30 2
    33   10   31 1
    34   12   32 1
    35   13   33 1
    36   14   34 1
    37   17   35 1
    38   17   36 1
    39   21   37 1
    40   22   38 1
    41   24   39 1
    42   24   40 1
    43   25   41 1
    44   25   42 1
    45   26   43 1
    46   26   44 1
    47   27   45 1
    48   27   46 1
    49   29   47 1
    50   29   48 1
    51   29   49 1
@<TRIPOS>PROPERTY_DATA
  Total_Score	| 10.8398
  Crash		| -1.9965
  Polar		| 7.8599
  FragIndex	| 1
  FragRMSD	| 0.920

