@<TRIPOS>MOLECULE
BindingDB_50219590
 43 45 0 0 0
SMALL
NO_CHARGES


@<TRIPOS>ATOM
1    S        44.5750   14.4339    1.2237  S     
2    C        44.8914   15.8294    2.1696  C     
3    C        45.8726   15.4556    3.0920  C     
4    C        46.2460   14.0969    3.0482  C     
5    C        45.6469   13.3409    2.0184  C     
6    C        44.2436   17.0624    2.0210  C     
7    O        44.5286   18.1141    2.8216  O     
8    O        43.2682   17.2118    1.1008  O     
9    C        45.8095   11.9706    1.6502  C     
10   C        47.0071   11.2649    1.9184  C     
11   C        47.1851    9.9079    1.5809  C     
12   C        46.1693    9.2746    0.8303  C     
13   C        44.9626    9.9364    0.5585  C     
14   C        44.7835   11.2670    0.9726  C     
15   Br       47.3550   13.4473    4.4023  Br    
16   O        46.3945   16.3090    4.0204  O     
17   C        47.6718   16.8649    3.6440  C     
18   C        48.3312   17.3298    4.8711  C     
19   O        47.6195   17.9389    5.8409  O     
20   O        49.6701   17.2344    5.0164  O     
21   N        48.3346    9.3272    2.0214  N     
22   C        48.8218    7.9859    1.8394  C     
23   O        49.2847    6.7383    4.4795  O     
24   C        50.1639    7.7941    4.0443  C     
25   C        50.2374    7.8749    2.4909  C     
26   C        47.9282    6.8559    2.4358  C     
27   C        47.9393    6.8868    3.9839  C     
28   H        47.7963   11.7521    2.3373  H     
29   H        46.2915    8.3324    0.4669  H     
30   H        44.2155    9.4505    0.0551  H     
31   H        43.8909   11.7166    0.7589  H     
32   H        48.3256   16.1316    3.1574  H     
33   H        47.5342   17.7107    2.9663  H     
34   H        48.9139    9.9139    2.5352  H     
35   H        48.9300    7.8255    0.7607  H     
36   H        49.8223    8.7438    4.4665  H     
37   H        51.1585    7.5903    4.4473  H     
38   H        50.7239    6.9660    2.1247  H     
39   H        50.8618    8.7266    2.2010  H     
40   H        46.9055    6.9170    2.0836  H     
41   H        48.3204    5.8885    2.1030  H     
42   H        47.3428    6.0546    4.3605  H     
43   H        47.4909    7.8166    4.3500  H     
@<TRIPOS>BOND
     1    1    2 1
     2    1    5 1
     3    2    3 2
     4    2    6 1
     5    3    4 1
     6    3   16 1
     7    4    5 2
     8    4   15 1
     9    5    9 1
    10    6    7 2
    11    6    8 1
    12    9   10 2
    13    9   14 1
    14   10   11 1
    15   11   12 2
    16   11   21 1
    17   12   13 1
    18   13   14 2
    19   16   17 1
    20   17   18 1
    21   18   19 1
    22   18   20 2
    23   21   22 1
    24   22   25 1
    25   22   26 1
    26   23   24 1
    27   23   27 1
    28   24   25 1
    29   26   27 1
    30   10   28 1
    31   12   29 1
    32   13   30 1
    33   14   31 1
    34   17   32 1
    35   17   33 1
    36   21   34 1
    37   22   35 1
    38   24   36 1
    39   24   37 1
    40   25   38 1
    41   25   39 1
    42   26   40 1
    43   26   41 1
    44   27   42 1
    45   27   43 1
@<TRIPOS>PROPERTY_DATA
  Total_Score	| 10.6264
  Crash		| -2.1290
  Polar		| 7.9249
  FragIndex	| 1
  FragRMSD	| 0.785

