@<TRIPOS>MOLECULE
BindingDB_50219574
 42 44 0 0 0
SMALL
NO_CHARGES


@<TRIPOS>ATOM
1    S        44.5660   14.4590    1.0962  S     
2    C        44.8743   15.8164    2.1034  C     
3    C        45.8452   15.4163    3.0296  C     
4    C        46.2409   14.0694    2.9133  C     
5    C        45.6628   13.3649    1.8431  C     
6    C        44.2325   17.0544    1.9739  C     
7    O        44.5239   18.0976    2.7844  O     
8    O        43.2220   17.2034    1.0909  O     
9    C        45.8852   12.0261    1.4395  C     
10   C        47.1915   11.4754    1.4252  C     
11   C        47.4209   10.1189    1.1154  C     
12   C        46.3204    9.3304    0.7043  C     
13   C        45.0233    9.8678    0.6748  C     
14   C        44.8034   11.2026    1.0549  C     
15   Br       47.3585   13.3059    4.1909  Br    
16   O        46.3387   16.2177    4.0185  O     
17   C        47.6005   16.8346    3.6957  C     
18   C        48.2104   17.3020    4.9469  C     
19   O        49.5567   17.3445    5.0717  O     
20   O        47.4521   17.9105    5.8865  O     
21   N        48.6877    9.6555    1.2843  N     
22   C        49.1375    8.2987    1.3262  C     
23   C        49.0223    7.7760    2.7131  C     
24   C        50.1743    7.5537    3.5076  C     
25   C        50.0495    7.1003    4.8357  C     
26   C        48.7764    6.8743    5.3881  C     
27   C        47.6258    7.0879    4.6082  C     
28   C        47.7500    7.5210    3.2768  C     
29   H        47.9900   12.0671    1.6725  H     
30   H        46.4450    8.3537    0.4379  H     
31   H        44.2342    9.2813    0.3847  H     
32   H        43.8459   11.5597    1.0593  H     
33   H        48.2941   16.1333    3.2194  H     
34   H        47.4433   17.6848    3.0277  H     
35   H        49.3409   10.3112    1.5862  H     
36   H        48.6096    7.6473    0.6307  H     
37   H        50.1794    8.3082    1.0037  H     
38   H        51.1104    7.7341    3.1331  H     
39   H        50.8876    6.9481    5.4037  H     
40   H        48.6828    6.5677    6.3602  H     
41   H        46.6992    6.9333    5.0084  H     
42   H        46.8956    7.6512    2.7314  H     
@<TRIPOS>BOND
     1    1    2 1
     2    1    5 1
     3    2    3 2
     4    2    6 1
     5    3    4 1
     6    3   16 1
     7    4    5 2
     8    4   15 1
     9    5    9 1
    10    6    7 2
    11    6    8 1
    12    9   10 2
    13    9   14 1
    14   10   11 1
    15   11   12 2
    16   11   21 1
    17   12   13 1
    18   13   14 2
    19   16   17 1
    20   17   18 1
    21   18   19 1
    22   18   20 2
    23   21   22 1
    24   22   23 1
    25   23   24 2
    26   23   28 1
    27   24   25 1
    28   25   26 2
    29   26   27 1
    30   27   28 2
    31   10   29 1
    32   12   30 1
    33   13   31 1
    34   14   32 1
    35   17   33 1
    36   17   34 1
    37   21   35 1
    38   22   36 1
    39   22   37 1
    40   24   38 1
    41   25   39 1
    42   26   40 1
    43   27   41 1
    44   28   42 1
@<TRIPOS>PROPERTY_DATA
  Total_Score	| 11.5116
  Crash		| -1.4631
  Polar		| 8.0349
  FragIndex	| 1
  FragRMSD	| 0.063

