@<TRIPOS>MOLECULE
BindingDB_50219593
 42 43 0 0 0
SMALL
NO_CHARGES


@<TRIPOS>ATOM
1    S        44.5593   14.4304    1.1038  S     
2    C        44.8753   15.7972    2.1021  C     
3    C        45.8421   15.3951    3.0350  C     
4    C        46.2308   14.0474    2.9257  C     
5    C        45.6406   13.3338    1.8713  C     
6    C        44.2426   17.0425    1.9701  C     
7    O        44.5374   18.0861    2.7743  O     
8    O        43.2607   17.2076    1.0576  O     
9    C        45.8697   11.9966    1.4791  C     
10   C        47.1841   11.4735    1.4763  C     
11   C        47.4312   10.1231    1.1630  C     
12   C        46.3563    9.2820    0.8169  C     
13   C        45.0559    9.8031    0.7550  C     
14   C        44.8102   11.1504    1.0837  C     
15   Br       47.3716   13.2947    4.1920  Br    
16   O        46.3403   16.1906    4.0263  O     
17   C        47.5474   16.8869    3.6682  C     
18   C        48.1764   17.3482    4.9135  C     
19   O        47.4271   17.9086    5.8887  O     
20   O        49.5150   17.2733    5.0911  O     
21   N        48.7206    9.7051    1.1588  N     
22   C        49.3255    9.0360    2.1222  C     
23   O        50.5516    8.9395    2.0129  O     
24   N        48.7027    8.5167    3.1762  N     
25   C        49.3136    7.9823    4.3654  C     
26   C        48.2781    7.1241    5.1318  C     
27   C        50.5968    7.1530    4.0736  C     
28   H        47.9772   12.0805    1.7075  H     
29   H        46.5252    8.3017    0.5771  H     
30   H        44.2761    9.1965    0.4760  H     
31   H        43.8511   11.5030    1.0507  H     
32   H        48.2586   16.2541    3.1272  H     
33   H        47.3138   17.7558    3.0498  H     
34   H        49.3074   10.1123    0.4939  H     
35   H        47.7263    8.6211    3.2037  H     
36   H        49.5825    8.8296    5.0144  H     
37   H        47.3845    7.7129    5.3549  H     
38   H        48.7012    6.7716    6.0787  H     
39   H        47.9790    6.2585    4.5315  H     
40   H        50.3734    6.3336    3.3777  H     
41   H        51.0034    6.7414    5.0054  H     
42   H        51.3755    7.7870    3.6283  H     
@<TRIPOS>BOND
     1    1    2 1
     2    1    5 1
     3    2    3 2
     4    2    6 1
     5    3    4 1
     6    3   16 1
     7    4    5 2
     8    4   15 1
     9    5    9 1
    10    6    7 2
    11    6    8 1
    12    9   10 2
    13    9   14 1
    14   10   11 1
    15   11   12 2
    16   11   21 1
    17   12   13 1
    18   13   14 2
    19   16   17 1
    20   17   18 1
    21   18   19 1
    22   18   20 2
    23   21   22 am
    24   22   23 2
    25   22   24 am
    26   24   25 1
    27   25   26 1
    28   25   27 1
    29   10   28 1
    30   12   29 1
    31   13   30 1
    32   14   31 1
    33   17   32 1
    34   17   33 1
    35   21   34 1
    36   24   35 1
    37   25   36 1
    38   26   37 1
    39   26   38 1
    40   26   39 1
    41   27   40 1
    42   27   41 1
    43   27   42 1
@<TRIPOS>PROPERTY_DATA
  Total_Score	| 10.9146
  Crash		| -1.7736
  Polar		| 7.9801
  FragIndex	| 1
  FragRMSD	| 0.744

