@<TRIPOS>MOLECULE
BindingDB_50219603
 29 30 0 0 0
SMALL
NO_CHARGES


@<TRIPOS>ATOM
1    S        44.5911   14.4539    1.1411  S     
2    C        44.8841   15.8221    2.1432  C     
3    C        45.8645   15.4384    3.0683  C     
4    C        46.2791   14.0939    2.9544  C     
5    C        45.7065   13.3759    1.8924  C     
6    C        44.2229   17.0550    2.0202  C     
7    O        44.5240   18.1117    2.8112  O     
8    O        43.2224   17.2068    1.1270  O     
9    C        45.9521   12.0347    1.5007  C     
10   C        47.2732   11.5283    1.4259  C     
11   C        47.5119   10.1862    1.0745  C     
12   C        46.4302    9.3427    0.7603  C     
13   C        45.1147    9.8385    0.8023  C     
14   C        44.8782   11.1790    1.1621  C     
15   Br       47.4170   13.3428    4.2242  Br    
16   O        46.3569   16.2568    4.0477  O     
17   C        47.6148   16.8601    3.6889  C     
18   C        48.2597   17.3386    4.9192  C     
19   O        49.6062   17.3071    5.0582  O     
20   O        47.5168   17.9116    5.9026  O     
21   N        48.7662    9.7066    1.0363  N     
22   H        48.0708   12.1404    1.6227  H     
23   H        46.5938    8.3650    0.5038  H     
24   H        44.3348    9.2201    0.5758  H     
25   H        43.9122   11.5149    1.2050  H     
26   H        48.2881   16.1507    3.1980  H     
27   H        47.4531   17.7134    3.0216  H     
28   H        48.9280    8.7824    0.7891  H     
29   H        49.5155   10.2841    1.2501  H     
@<TRIPOS>BOND
     1    1    2 1
     2    1    5 1
     3    2    3 2
     4    2    6 1
     5    3    4 1
     6    3   16 1
     7    4    5 2
     8    4   15 1
     9    5    9 1
    10    6    7 2
    11    6    8 1
    12    9   10 2
    13    9   14 1
    14   10   11 1
    15   11   12 2
    16   11   21 1
    17   12   13 1
    18   13   14 2
    19   16   17 1
    20   17   18 1
    21   18   19 1
    22   18   20 2
    23   10   22 1
    24   12   23 1
    25   13   24 1
    26   14   25 1
    27   17   26 1
    28   17   27 1
    29   21   28 1
    30   21   29 1
@<TRIPOS>PROPERTY_DATA
  Total_Score	| 9.2366
  Crash		| -1.1719
  Polar		| 7.9979
  FragIndex	| 1
  FragRMSD	| 0.136

