@<TRIPOS>MOLECULE
BindingDB_50219564
 35 36 0 0 0
SMALL
NO_CHARGES


@<TRIPOS>ATOM
1    S        44.5679   14.4451    1.1192  S     
2    C        44.8776   15.8220    2.1020  C     
3    C        45.8525   15.4318    3.0284  C     
4    C        46.2300   14.0782    2.9421  C     
5    C        45.6461   13.3437    1.8891  C     
6    C        44.2315   17.0603    1.9745  C     
7    O        43.2110   17.1983    1.0987  O     
8    O        44.5252   18.1100    2.7699  O     
9    C        45.8408   11.9849    1.5035  C     
10   C        47.0908   11.3368    1.6838  C     
11   C        47.2614    9.9694    1.3685  C     
12   C        46.1889    9.2523    0.8074  C     
13   C        44.9641    9.8917    0.5528  C     
14   C        44.7915   11.2428    0.9027  C     
15   Br       47.3118   13.3629    4.2757  Br    
16   O        46.3599   16.2509    4.0013  O     
17   C        47.6370   16.8375    3.6677  C     
18   C        48.2591   17.3227    4.9045  C     
19   O        49.5950   17.2497    5.0810  O     
20   O        47.5038   17.9220    5.8559  O     
21   N        48.4710    9.3851    1.5726  N     
22   C        48.7534    8.5477    2.5921  C     
23   O        50.0302    8.1325    2.7305  O     
24   O        47.8107    8.1828    3.5066  O     
25   C        48.0337    7.3644    4.6572  C     
26   H        47.8916   11.8600    2.0489  H     
27   H        46.3106    8.2646    0.5590  H     
28   H        44.1957    9.3765    0.1102  H     
29   H        43.8817   11.6728    0.7241  H     
30   H        48.3195   16.1210    3.1932  H     
31   H        47.4913   17.6823    2.9891  H     
32   H        49.2117    9.6811    1.0201  H     
33   H        48.3897    6.3786    4.3598  H     
34   H        47.0979    7.2516    5.2042  H     
35   H        48.7688    7.8377    5.3065  H     
@<TRIPOS>BOND
     1    1    2 1
     2    1    5 1
     3    2    3 2
     4    2    6 1
     5    3    4 1
     6    3   16 1
     7    4    5 2
     8    4   15 1
     9    5    9 1
    10    6    7 2
    11    6    8 1
    12    9   10 2
    13    9   14 1
    14   10   11 1
    15   11   12 2
    16   11   21 1
    17   12   13 1
    18   13   14 2
    19   16   17 1
    20   17   18 1
    21   18   19 1
    22   18   20 2
    23   21   22 am
    24   22   23 2
    25   22   24 1
    26   24   25 1
    27   10   26 1
    28   12   27 1
    29   13   28 1
    30   14   29 1
    31   17   30 1
    32   17   31 1
    33   21   32 1
    34   25   33 1
    35   25   34 1
    36   25   35 1
@<TRIPOS>PROPERTY_DATA
  Total_Score	| 10.2802
  Crash		| -1.3579
  Polar		| 7.9675
  FragIndex	| 1
  FragRMSD	| 0.766

