@<TRIPOS>MOLECULE
BindingDB_50219601
 48 50 0 0 0
SMALL
NO_CHARGES


@<TRIPOS>ATOM
1    S        44.5774   14.3951    1.1639  S     
2    C        44.8790   15.7827    2.1334  C     
3    C        45.8567   15.3983    3.0599  C     
4    C        46.2609   14.0450    2.9702  C     
5    C        45.6560   13.2970    1.9412  C     
6    C        44.2192   17.0151    1.9712  C     
7    O        44.4905   18.0939    2.7382  O     
8    O        43.2350   17.1377    1.0529  O     
9    C        45.8461   11.9464    1.5297  C     
10   C        47.1218   11.3228    1.5438  C     
11   C        47.3248   10.0346    1.0093  C     
12   C        46.2285    9.3508    0.4456  C     
13   C        44.9442    9.9135    0.4850  C     
14   C        44.7535   11.1871    1.0318  C     
15   Br       47.4037   13.3553    4.2677  Br    
16   O        46.3262   16.2213    4.0419  O     
17   C        47.5195   16.9462    3.6838  C     
18   C        48.1692   17.3745    4.9277  C     
19   O        49.5132   17.2821    5.0689  O     
20   O        47.4433   17.9336    5.9263  O     
21   N        48.5165    9.3868    0.9922  N     
22   C        49.3781    9.0939    2.0883  C     
23   C        49.3957    7.5536    2.3333  C     
24   C        50.5581    7.0846    3.2648  C     
25   C        50.2680    7.2725    4.7764  C     
26   C        48.9190    6.6320    5.1923  C     
27   C        47.7597    7.1984    4.3312  C     
28   C        48.0267    6.9594    2.8209  C     
29   H        47.9408   11.8547    1.8471  H     
30   H        46.3465    8.4178    0.0477  H     
31   H        44.1468    9.3860    0.1128  H     
32   H        43.8058   11.5743    1.0328  H     
33   H        48.2182   16.3350    3.1061  H     
34   H        47.2689   17.8395    3.0995  H     
35   H        48.7574    8.9580    0.1443  H     
36   H        50.3798    9.4328    1.8354  H     
37   H        49.0525    9.6116    3.0025  H     
38   H        49.5894    7.1010    1.3489  H     
39   H        50.7330    6.0195    3.0884  H     
40   H        51.4826    7.6081    3.0052  H     
41   H        51.0737    6.8137    5.3541  H     
42   H        50.2445    8.3397    5.0193  H     
43   H        48.9825    5.5487    5.0682  H     
44   H        48.7234    6.8391    6.2477  H     
45   H        46.8294    6.7046    4.6183  H     
46   H        47.6552    8.2697    4.5192  H     
47   H        47.1907    7.3888    2.2445  H     
48   H        48.0184    5.8838    2.6334  H     
@<TRIPOS>BOND
     1    1    2 1
     2    1    5 1
     3    2    3 2
     4    2    6 1
     5    3    4 1
     6    3   16 1
     7    4    5 2
     8    4   15 1
     9    5    9 1
    10    6    7 2
    11    6    8 1
    12    9   10 2
    13    9   14 1
    14   10   11 1
    15   11   12 2
    16   11   21 1
    17   12   13 1
    18   13   14 2
    19   16   17 1
    20   17   18 1
    21   18   19 1
    22   18   20 2
    23   21   22 1
    24   22   23 1
    25   23   24 1
    26   23   28 1
    27   24   25 1
    28   25   26 1
    29   26   27 1
    30   27   28 1
    31   10   29 1
    32   12   30 1
    33   13   31 1
    34   14   32 1
    35   17   33 1
    36   17   34 1
    37   21   35 1
    38   22   36 1
    39   22   37 1
    40   23   38 1
    41   24   39 1
    42   24   40 1
    43   25   41 1
    44   25   42 1
    45   26   43 1
    46   26   44 1
    47   27   45 1
    48   27   46 1
    49   28   47 1
    50   28   48 1
@<TRIPOS>PROPERTY_DATA
  Total_Score	| 12.1784
  Crash		| -1.5235
  Polar		| 7.8847
  FragIndex	| 1
  FragRMSD	| 0.333

