@<TRIPOS>MOLECULE
BindingDB_50219597
 45 47 0 0 0
SMALL
NO_CHARGES


@<TRIPOS>ATOM
1    S        44.6150   14.4252    1.1595  S     
2    C        44.8736   15.8271    2.1207  C     
3    C        45.8371   15.4695    3.0680  C     
4    C        46.2552   14.1249    3.0140  C     
5    C        45.7013   13.3573    1.9693  C     
6    C        44.2148   17.0550    1.9517  C     
7    O        43.2292   17.1765    1.0378  O     
8    O        44.4765   18.1282    2.7264  O     
9    C        45.9073   11.9863    1.6168  C     
10   C        47.1078   11.3002    1.9388  C     
11   C        47.2841    9.9241    1.6782  C     
12   C        46.2902    9.2475    0.9392  C     
13   C        45.0974    9.9031    0.5853  C     
14   C        44.9021   11.2490    0.9437  C     
15   Br       47.3461   13.4850    4.3786  Br    
16   O        46.3125   16.3109    4.0330  O     
17   C        47.5507   16.9650    3.6803  C     
18   C        48.2119   17.3760    4.9233  C     
19   O        47.4981   17.9489    5.9156  O     
20   O        49.5522   17.2837    5.0683  O     
21   N        48.3912    9.3291    2.1984  N     
22   C        48.8055    7.9617    2.0300  C     
23   C        50.2401    7.7358    2.6062  C     
24   C        50.2872    7.6650    4.1574  C     
25   C        49.2963    6.6123    4.7131  C     
26   C        47.8588    6.9128    4.2166  C     
27   C        47.7862    6.9614    2.6714  C     
28   H        47.8810   11.8054    2.3667  H     
29   H        46.4063    8.2523    0.6999  H     
30   H        44.3614    9.3964    0.0893  H     
31   H        44.0093   11.6850    0.6950  H     
32   H        48.2295   16.3096    3.1263  H     
33   H        47.3536   17.8524    3.0773  H     
34   H        48.9436    9.8742    2.7824  H     
35   H        48.8609    7.7612    0.9554  H     
36   H        50.6373    6.7966    2.2083  H     
37   H        50.9032    8.5403    2.2716  H     
38   H        51.3035    7.4156    4.4800  H     
39   H        50.0273    8.6407    4.5834  H     
40   H        49.5976    5.6124    4.3866  H     
41   H        49.3110    6.6316    5.8098  H     
42   H        47.1856    6.1315    4.5819  H     
43   H        47.5190    7.8664    4.6400  H     
44   H        46.7572    7.2207    2.4003  H     
45   H        47.9960    5.9624    2.2792  H     
@<TRIPOS>BOND
     1    1    2 1
     2    1    5 1
     3    2    3 2
     4    2    6 1
     5    3    4 1
     6    3   16 1
     7    4    5 2
     8    4   15 1
     9    5    9 1
    10    6    7 2
    11    6    8 1
    12    9   10 2
    13    9   14 1
    14   10   11 1
    15   11   12 2
    16   11   21 1
    17   12   13 1
    18   13   14 2
    19   16   17 1
    20   17   18 1
    21   18   19 1
    22   18   20 2
    23   21   22 1
    24   22   23 1
    25   22   27 1
    26   23   24 1
    27   24   25 1
    28   25   26 1
    29   26   27 1
    30   10   28 1
    31   12   29 1
    32   13   30 1
    33   14   31 1
    34   17   32 1
    35   17   33 1
    36   21   34 1
    37   22   35 1
    38   23   36 1
    39   23   37 1
    40   24   38 1
    41   24   39 1
    42   25   40 1
    43   25   41 1
    44   26   42 1
    45   26   43 1
    46   27   44 1
    47   27   45 1
@<TRIPOS>PROPERTY_DATA
  Total_Score	| 11.0750
  Crash		| -2.1694
  Polar		| 7.8654
  FragIndex	| 1
  FragRMSD	| 1.040

