@<TRIPOS>MOLECULE
BindingDB_50219573
 57 59 0 0 0
SMALL
NO_CHARGES


@<TRIPOS>ATOM
1    S        44.6396   14.3912    1.0675  S     
2    C        44.9150   15.7587    2.0756  C     
3    C        45.8917   15.3722    3.0020  C     
4    C        46.3020   14.0280    2.8975  C     
5    C        45.7475   13.3143    1.8269  C     
6    C        44.2438   16.9853    1.9634  C     
7    O        44.5593   18.0490    2.7328  O     
8    O        43.2610   17.1308    1.0531  O     
9    C        45.9787   11.9698    1.4534  C     
10   C        47.2875   11.4180    1.4834  C     
11   C        47.4991   10.0279    1.2991  C     
12   C        46.4190    9.2339    0.8890  C     
13   C        45.1287    9.7778    0.7775  C     
14   C        44.9010   11.1279    1.0912  C     
15   Br       47.3756   13.2983    4.2303  Br    
16   O        46.3685   16.1780    3.9973  O     
17   C        47.6026   16.8488    3.6703  C     
18   C        48.2015   17.3053    4.9309  C     
19   O        47.4461   17.8982    5.8818  O     
20   O        49.5436   17.3472    5.0763  O     
21   N        48.7478    9.5133    1.3946  N     
22   C        49.1858    8.5819    2.4065  C     
23   C        48.2966    7.2899    2.5885  C     
24   C        48.8374    6.2545    3.6420  C     
25   C        50.3554    5.9600    3.3715  C     
26   C        51.3194    7.1727    3.1187  C     
27   C        50.6481    8.1765    2.1100  C     
28   C        48.5501    6.7662    5.0956  C     
29   C        48.0415    4.9203    3.4582  C     
30   C        52.6447    6.6140    2.4822  C     
31   C        51.7626    7.8695    4.4551  C     
32   H        48.0912   12.0067    1.7122  H     
33   H        46.5657    8.2741    0.5904  H     
34   H        44.3407    9.1812    0.4895  H     
35   H        43.9400   11.4860    1.0656  H     
36   H        48.3267   16.2052    3.1639  H     
37   H        47.3994   17.7141    3.0276  H     
38   H        49.4631   10.1425    1.1121  H     
39   H        49.1795    9.1361    3.3370  H     
40   H        47.3035    7.5681    2.9260  H     
41   H        48.2222    6.8117    1.6117  H     
42   H        50.7389    5.3495    4.1913  H     
43   H        50.4014    5.3327    2.4752  H     
44   H        50.6648    7.7293    1.1149  H     
45   H        51.2557    9.0833    2.0525  H     
46   H        48.9253    7.7671    5.2686  H     
47   H        48.9972    6.0915    5.8281  H     
48   H        47.4746    6.8096    5.2766  H     
49   H        46.9723    5.0783    3.6212  H     
50   H        48.3864    4.1748    4.1724  H     
51   H        48.1586    4.5142    2.4500  H     
52   H        53.1332    5.9042    3.1528  H     
53   H        53.3493    7.4224    2.2742  H     
54   H        52.4485    6.1024    1.5390  H     
55   H        50.9642    8.4506    4.9044  H     
56   H        52.5933    8.5582    4.2824  H     
57   H        52.0970    7.1323    5.1941  H     
@<TRIPOS>BOND
     1    1    2 1
     2    1    5 1
     3    2    3 2
     4    2    6 1
     5    3    4 1
     6    3   16 1
     7    4    5 2
     8    4   15 1
     9    5    9 1
    10    6    7 2
    11    6    8 1
    12    9   10 2
    13    9   14 1
    14   10   11 1
    15   11   12 2
    16   11   21 1
    17   12   13 1
    18   13   14 2
    19   16   17 1
    20   17   18 1
    21   18   19 1
    22   18   20 2
    23   21   22 1
    24   22   23 1
    25   22   27 1
    26   23   24 1
    27   24   25 1
    28   24   28 1
    29   24   29 1
    30   25   26 1
    31   26   27 1
    32   26   30 1
    33   26   31 1
    34   10   32 1
    35   12   33 1
    36   13   34 1
    37   14   35 1
    38   17   36 1
    39   17   37 1
    40   21   38 1
    41   22   39 1
    42   23   40 1
    43   23   41 1
    44   25   42 1
    45   25   43 1
    46   27   44 1
    47   27   45 1
    48   28   46 1
    49   28   47 1
    50   28   48 1
    51   29   49 1
    52   29   50 1
    53   29   51 1
    54   30   52 1
    55   30   53 1
    56   30   54 1
    57   31   55 1
    58   31   56 1
    59   31   57 1
@<TRIPOS>PROPERTY_DATA
  Total_Score	| 11.6605
  Crash		| -2.3860
  Polar		| 7.9003
  FragIndex	| 1
  FragRMSD	| 0.753

