@<TRIPOS>MOLECULE
BindingDB_50219578
 48 50 0 0 0
SMALL
NO_CHARGES


@<TRIPOS>ATOM
1    S        44.6000   14.4828    1.1079  S     
2    C        44.9114   15.8460    2.1042  C     
3    C        45.8679   15.4309    3.0343  C     
4    C        46.2354   14.0693    2.9418  C     
5    C        45.6395   13.3457    1.8834  C     
6    C        44.2619   17.0809    1.9944  C     
7    O        43.1900   17.2106    1.1853  O     
8    O        44.5677   18.1245    2.7976  O     
9    C        45.7464   11.9712    1.5016  C     
10   C        46.8397   11.1637    1.9036  C     
11   C        46.8917    9.7756    1.6430  C     
12   C        45.8963    9.2182    0.8089  C     
13   C        44.8340   10.0073    0.3358  C     
14   C        44.7424   11.3579    0.7024  C     
15   Br       47.3328   13.3817    4.2815  Br    
16   O        46.3700   16.2362    4.0176  O     
17   C        47.6555   16.8002    3.6872  C     
18   C        48.2699   17.2920    4.9246  C     
19   O        49.6149   17.3192    5.0566  O     
20   O        47.5138   17.9385    5.8379  O     
21   N        47.8827    9.0800    2.2634  N     
22   C        48.0473    7.6611    2.4411  C     
23   C        49.3159    7.2002    1.6650  C     
24   C        50.6503    7.8874    2.0674  C     
25   C        47.9566    7.3099    3.9660  C     
26   C        51.3130    7.3353    3.3503  C     
27   C        49.1677    6.6354    4.6640  C     
28   C        50.4758    7.4707    4.6455  C     
29   H        47.6232   11.5753    2.4101  H     
30   H        45.9269    8.2423    0.5286  H     
31   H        44.1156    9.5856   -0.2550  H     
32   H        43.9244   11.8862    0.3823  H     
33   H        48.3308   16.0674    3.2284  H     
34   H        47.5314   17.6396    2.9997  H     
35   H        48.5149    9.6230    2.7614  H     
36   H        47.2195    7.1232    1.9742  H     
37   H        49.4206    6.1166    1.7595  H     
38   H        49.1444    7.4054    0.6032  H     
39   H        51.3571    7.7352    1.2470  H     
40   H        50.5087    8.9668    2.1622  H     
41   H        47.7166    8.2083    4.5404  H     
42   H        47.1020    6.6389    4.1108  H     
43   H        51.5709    6.2843    3.1958  H     
44   H        52.2518    7.8778    3.4984  H     
45   H        48.8916    6.4783    5.7114  H     
46   H        49.3427    5.6475    4.2303  H     
47   H        51.1042    7.1232    5.4686  H     
48   H        50.2484    8.5227    4.8357  H     
@<TRIPOS>BOND
     1    1    2 1
     2    1    5 1
     3    2    3 2
     4    2    6 1
     5    3    4 1
     6    3   16 1
     7    4    5 2
     8    4   15 1
     9    5    9 1
    10    6    7 2
    11    6    8 1
    12    9   10 2
    13    9   14 1
    14   10   11 1
    15   11   12 2
    16   11   21 1
    17   12   13 1
    18   13   14 2
    19   16   17 1
    20   17   18 1
    21   18   19 1
    22   18   20 2
    23   21   22 1
    24   22   23 1
    25   22   25 1
    26   23   24 1
    27   24   26 1
    28   25   27 1
    29   26   28 1
    30   27   28 1
    31   10   29 1
    32   12   30 1
    33   13   31 1
    34   14   32 1
    35   17   33 1
    36   17   34 1
    37   21   35 1
    38   22   36 1
    39   23   37 1
    40   23   38 1
    41   24   39 1
    42   24   40 1
    43   25   41 1
    44   25   42 1
    45   26   43 1
    46   26   44 1
    47   27   45 1
    48   27   46 1
    49   28   47 1
    50   28   48 1
@<TRIPOS>PROPERTY_DATA
  Total_Score	| 11.5873
  Crash		| -2.1663
  Polar		| 8.0324
  FragIndex	| 1
  FragRMSD	| 0.928

