@<TRIPOS>MOLECULE
BindingDB_50219587
 42 44 0 0 0
SMALL
NO_CHARGES


@<TRIPOS>ATOM
1    S        44.5623   14.4293    1.1220  S     
2    C        44.8695   15.8010    2.1097  C     
3    C        45.8211   15.3959    3.0535  C     
4    C        46.2082   14.0445    2.9663  C     
5    C        45.6206   13.3186    1.9132  C     
6    C        44.2285   17.0462    1.9799  C     
7    O        44.5486   18.0922    2.7757  O     
8    O        43.2266   17.2149    1.0899  O     
9    C        45.7953   11.9560    1.5363  C     
10   C        47.0218   11.2898    1.7512  C     
11   C        47.1911    9.9191    1.4633  C     
12   C        46.1467    9.2316    0.8082  C     
13   C        44.9320    9.8856    0.5341  C     
14   C        44.7534   11.2248    0.9192  C     
15   Br       47.3150   13.3550    4.2985  Br    
16   O        46.3171   16.2037    4.0404  O     
17   C        47.5869   16.7866    3.7000  C     
18   C        48.2244   17.2632    4.9330  C     
19   O        49.5730   17.3179    5.0295  O     
20   O        47.4898   17.9188    5.8611  O     
21   N        48.3475    9.3493    1.8837  N     
22   C        48.7021    7.9564    1.8752  C     
23   C        50.0456    7.7423    2.6135  C     
24   C        49.6775    7.6559    4.1108  C     
25   C        48.1907    7.2441    4.1652  C     
26   C        47.7451    7.0667    2.7008  C     
27   H        47.8147   11.8161    2.1259  H     
28   H        46.2525    8.2535    0.5376  H     
29   H        44.1758    9.3771    0.0673  H     
30   H        43.8474   11.6570    0.7408  H     
31   H        48.2586   16.0719    3.2135  H     
32   H        47.4316   17.6330    3.0368  H     
33   H        48.9935    9.9436    2.2991  H     
34   H        48.7786    7.6061    0.8388  H     
35   H        50.4920    6.7961    2.2930  H     
36   H        50.7625    8.5416    2.4197  H     
37   H        50.3096    6.9326    4.6345  H     
38   H        49.8023    8.6321    4.5881  H     
39   H        48.0472    6.3205    4.7311  H     
40   H        47.6016    8.0384    4.6347  H     
41   H        46.6960    7.3322    2.5732  H     
42   H        47.8728    6.0234    2.4019  H     
@<TRIPOS>BOND
     1    1    2 1
     2    1    5 1
     3    2    3 2
     4    2    6 1
     5    3    4 1
     6    3   16 1
     7    4    5 2
     8    4   15 1
     9    5    9 1
    10    6    7 2
    11    6    8 1
    12    9   10 2
    13    9   14 1
    14   10   11 1
    15   11   12 2
    16   11   21 1
    17   12   13 1
    18   13   14 2
    19   16   17 1
    20   17   18 1
    21   18   19 1
    22   18   20 2
    23   21   22 1
    24   22   23 1
    25   22   26 1
    26   23   24 1
    27   24   25 1
    28   25   26 1
    29   10   27 1
    30   12   28 1
    31   13   29 1
    32   14   30 1
    33   17   31 1
    34   17   32 1
    35   21   33 1
    36   22   34 1
    37   23   35 1
    38   23   36 1
    39   24   37 1
    40   24   38 1
    41   25   39 1
    42   25   40 1
    43   26   41 1
    44   26   42 1
@<TRIPOS>PROPERTY_DATA
  Total_Score	| 10.7302
  Crash		| -1.7707
  Polar		| 8.0418
  FragIndex	| 1
  FragRMSD	| 0.369

