@<TRIPOS>MOLECULE
BindingDB_50219579
 37 38 0 0 0
SMALL
NO_CHARGES


@<TRIPOS>ATOM
1    S        44.5429   14.4626    1.0318  S     
2    C        44.8674   15.7704    2.0965  C     
3    C        45.8373   15.2997    2.9891  C     
4    C        46.2221   13.9528    2.7916  C     
5    C        45.6031   13.2858    1.7088  C     
6    C        44.2524   17.0286    2.0208  C     
7    O        44.5681   18.0435    2.8560  O     
8    O        43.3081   17.2619    1.0870  O     
9    C        45.7496   11.9513    1.2066  C     
10   C        46.2845   10.9045    2.0001  C     
11   C        46.5130    9.6058    1.4902  C     
12   C        46.0749    9.3025    0.1893  C     
13   C        45.4866   10.2984   -0.6056  C     
14   C        45.3485   11.6090   -0.1127  C     
15   Br       47.5248   13.2476    3.9240  Br    
16   O        46.3525   16.0520    4.0131  O     
17   C        47.5184   16.8199    3.6535  C     
18   C        48.1678   17.2790    4.8871  C     
19   O        47.4489   17.8899    5.8542  O     
20   O        49.5101   17.2158    5.0257  O     
21   N        47.1190    8.6379    2.2343  N     
22   C        48.2334    8.7710    2.9406  C     
23   C        48.6332    7.6915    3.8271  C     
24   O        48.9021    9.7995    2.8723  O     
25   C        50.0815    7.7585    4.3702  C     
26   H        46.4716   11.0579    2.9897  H     
27   H        46.2059    8.3602   -0.1873  H     
28   H        45.1859   10.0764   -1.5552  H     
29   H        44.9612   12.3153   -0.7424  H     
30   H        48.2362   16.2293    3.0729  H     
31   H        47.2279   17.6933    3.0629  H     
32   H        46.7144    7.7498    2.2155  H     
33   H        47.9464    7.6946    4.6789  H     
34   H        48.5128    6.7401    3.3035  H     
35   H        50.7960    7.7663    3.5458  H     
36   H        50.2805    6.8884    4.9974  H     
37   H        50.2178    8.6558    4.9713  H     
@<TRIPOS>BOND
     1    1    2 1
     2    1    5 1
     3    2    3 2
     4    2    6 1
     5    3    4 1
     6    3   16 1
     7    4    5 2
     8    4   15 1
     9    5    9 1
    10    6    7 2
    11    6    8 1
    12    9   10 2
    13    9   14 1
    14   10   11 1
    15   11   12 2
    16   11   21 1
    17   12   13 1
    18   13   14 2
    19   16   17 1
    20   17   18 1
    21   18   19 1
    22   18   20 2
    23   21   22 am
    24   22   23 1
    25   22   24 2
    26   23   25 1
    27   10   26 1
    28   12   27 1
    29   13   28 1
    30   14   29 1
    31   17   30 1
    32   17   31 1
    33   21   32 1
    34   23   33 1
    35   23   34 1
    36   25   35 1
    37   25   36 1
    38   25   37 1
@<TRIPOS>PROPERTY_DATA
  Total_Score	| 9.6613
  Crash		| -1.8421
  Polar		| 7.8790
  FragIndex	| 1
  FragRMSD	| 1.066

