@<TRIPOS>MOLECULE
BindingDB_50219562
 41 43 0 0 0
SMALL
NO_CHARGES


@<TRIPOS>ATOM
1    S        44.5529   14.5262    1.1306  S     
2    C        44.8698   15.8982    2.1037  C     
3    C        45.8466   15.4975    3.0167  C     
4    C        46.2084   14.1343    2.9399  C     
5    C        45.6141   13.3951    1.8873  C     
6    C        44.2104   17.1272    1.9808  C     
7    O        43.1859   17.2608    1.1165  O     
8    O        44.5006   18.1715    2.7875  O     
9    C        45.7265   12.0236    1.4738  C     
10   C        46.7634   11.1757    1.9388  C     
11   C        46.8400    9.8034    1.6040  C     
12   C        45.8945    9.2842    0.6802  C     
13   C        44.8860   10.1070    0.1624  C     
14   C        44.7879   11.4495    0.5653  C     
15   Br       47.3239   13.4930    4.2897  Br    
16   O        46.3392   16.3192    3.9908  O     
17   C        47.5897   16.9535    3.6536  C     
18   C        48.2181   17.3881    4.9078  C     
19   O        49.5565   17.3227    5.0812  O     
20   O        47.4611   17.9221    5.8898  O     
21   N        47.7682    9.0721    2.2954  N     
22   C        48.1667    7.8113    2.2089  C     
23   O        47.8520    7.0543    1.2892  O     
24   C        48.9011    7.2861    3.2566  C     
25   C        50.2300    6.8190    3.0617  C     
26   C        50.9629    6.2963    4.1420  C     
27   C        50.3710    6.1931    5.4150  C     
28   C        49.0405    6.6140    5.6102  C     
29   C        48.3227    7.1779    4.5456  C     
30   H        47.4970   11.5552    2.5365  H     
31   H        45.9142    8.3059    0.3927  H     
32   H        44.1916    9.7189   -0.4902  H     
33   H        44.0177   11.9968    0.1765  H     
34   H        48.2821   16.2914    3.1252  H     
35   H        47.4048   17.8283    3.0290  H     
36   H        48.1622    9.5600    3.0404  H     
37   H        50.6719    6.8724    2.1390  H     
38   H        51.9270    5.9712    3.9972  H     
39   H        50.8977    5.7923    6.1963  H     
40   H        48.6035    6.5171    6.5296  H     
41   H        47.3570    7.4811    4.7130  H     
@<TRIPOS>BOND
     1    1    2 1
     2    1    5 1
     3    2    3 2
     4    2    6 1
     5    3    4 1
     6    3   16 1
     7    4    5 2
     8    4   15 1
     9    5    9 1
    10    6    7 2
    11    6    8 1
    12    9   10 2
    13    9   14 1
    14   10   11 1
    15   11   12 2
    16   11   21 1
    17   12   13 1
    18   13   14 2
    19   16   17 1
    20   17   18 1
    21   18   19 1
    22   18   20 2
    23   21   22 am
    24   22   23 2
    25   22   24 1
    26   24   25 2
    27   24   29 1
    28   25   26 1
    29   26   27 2
    30   27   28 1
    31   28   29 2
    32   10   30 1
    33   12   31 1
    34   13   32 1
    35   14   33 1
    36   17   34 1
    37   17   35 1
    38   21   36 1
    39   25   37 1
    40   26   38 1
    41   27   39 1
    42   28   40 1
    43   29   41 1
@<TRIPOS>PROPERTY_DATA
  Total_Score	| 10.6514
  Crash		| -2.1739
  Polar		| 7.9113
  FragIndex	| 1
  FragRMSD	| 0.991

