@<TRIPOS>MOLECULE
BindingDB_50219598
 50 52 0 0 0
SMALL
NO_CHARGES


@<TRIPOS>ATOM
1    S        44.6026   14.4350    1.1891  S     
2    C        44.8838   15.8453    2.1338  C     
3    C        45.8467   15.4877    3.0784  C     
4    C        46.2388   14.1342    3.0432  C     
5    C        45.6782   13.3593    2.0065  C     
6    C        44.2398   17.0762    1.9703  C     
7    O        43.2073   17.1817    1.1079  O     
8    O        44.5096   18.1380    2.7656  O     
9    C        45.8457   11.9778    1.6674  C     
10   C        47.0395   11.2702    1.9717  C     
11   C        47.2065    9.8953    1.7054  C     
12   C        46.1787    9.2299    0.9941  C     
13   C        44.9962    9.9064    0.6457  C     
14   C        44.8203   11.2531    1.0029  C     
15   Br       47.3659   13.5417    4.4050  Br    
16   O        46.3411   16.3422    4.0214  O     
17   C        47.6048   16.9401    3.6598  C     
18   C        48.2387   17.3810    4.9032  C     
19   O        49.5665   17.2235    5.1027  O     
20   O        47.4873   17.9422    5.8754  O     
21   N        48.3572    9.3336    2.1722  N     
22   C        48.6155    8.0038    2.6339  C     
23   N        50.3578    6.1664    4.0905  N     
24   C        50.3602    6.1408    2.6386  C     
25   C        49.9746    7.5274    2.0570  C     
26   C        48.6601    7.9790    4.1906  C     
27   C        49.1153    6.5885    4.7156  C     
28   C        51.4554    5.7846    4.8177  C     
29   O        52.6055    5.3891    4.1985  O     
30   O        51.4323    5.7682    6.1747  O     
31   C        53.8272    4.9586    4.8022  C     
32   H        47.8345   11.7676    2.3610  H     
33   H        46.2567    8.2496    0.7346  H     
34   H        44.2468    9.4079    0.1561  H     
35   H        43.9269   11.6956    0.7639  H     
36   H        48.2863   16.2490    3.1492  H     
37   H        47.4405   17.8056    3.0162  H     
38   H        49.1238    9.9364    2.2253  H     
39   H        47.8475    7.3029    2.3121  H     
40   H        51.3249    5.8638    2.2111  H     
41   H        49.6353    5.3949    2.3003  H     
42   H        49.9081    7.4499    0.9660  H     
43   H        50.7625    8.2510    2.3004  H     
44   H        49.3557    8.7468    4.5522  H     
45   H        47.6642    8.2067    4.5817  H     
46   H        48.3408    5.8486    4.4886  H     
47   H        49.1839    6.6540    5.8061  H     
48   H        54.2469    5.7512    5.4217  H     
49   H        54.5364    4.7162    4.0132  H     
50   H        53.6590    4.0694    5.4106  H     
@<TRIPOS>BOND
     1    1    2 1
     2    1    5 1
     3    2    3 2
     4    2    6 1
     5    3    4 1
     6    3   16 1
     7    4    5 2
     8    4   15 1
     9    5    9 1
    10    6    7 2
    11    6    8 1
    12    9   10 2
    13    9   14 1
    14   10   11 1
    15   11   12 2
    16   11   21 1
    17   12   13 1
    18   13   14 2
    19   16   17 1
    20   17   18 1
    21   18   19 1
    22   18   20 2
    23   21   22 1
    24   22   25 1
    25   22   26 1
    26   23   24 1
    27   23   27 1
    28   23   28 1
    29   24   25 1
    30   26   27 1
    31   28   29 1
    32   28   30 2
    33   29   31 1
    34   10   32 1
    35   12   33 1
    36   13   34 1
    37   14   35 1
    38   17   36 1
    39   17   37 1
    40   21   38 1
    41   22   39 1
    42   24   40 1
    43   24   41 1
    44   25   42 1
    45   25   43 1
    46   26   44 1
    47   26   45 1
    48   27   46 1
    49   27   47 1
    50   31   48 1
    51   31   49 1
    52   31   50 1
@<TRIPOS>PROPERTY_DATA
  Total_Score	| 11.1935
  Crash		| -1.7514
  Polar		| 7.9625
  FragIndex	| 1
  FragRMSD	| 0.888

