@<TRIPOS>MOLECULE
BindingDB_50219605
 45 47 0 0 0
SMALL
NO_CHARGES


@<TRIPOS>ATOM
1    S        44.5077   14.3948    1.2755  S     
2    C        44.8600   15.8126    2.1646  C     
3    C        45.8318   15.4412    3.0946  C     
4    C        46.2046   14.0889    3.0660  C     
5    C        45.5725   13.3028    2.0819  C     
6    C        44.2588   17.0605    1.9704  C     
7    O        44.5438   18.1051    2.7692  O     
8    O        43.2759   17.2074    1.0563  O     
9    C        45.7200   11.9373    1.7068  C     
10   C        46.9395   11.2361    1.9101  C     
11   C        47.1535    9.9235    1.4018  C     
12   C        46.1351    9.3306    0.6514  C     
13   C        44.8879    9.9786    0.4857  C     
14   C        44.6749   11.2682    1.0255  C     
15   Br       47.3821   13.4959    4.3802  Br    
16   O        46.3846   16.2945    4.0028  O     
17   C        47.6650   16.8450    3.6347  C     
18   C        48.2853   17.3349    4.8699  C     
19   O        49.6168   17.2134    5.0785  O     
20   O        47.5100   17.8954    5.8216  O     
21   N        48.3613    9.3905    1.7332  N     
22   C        48.7454    8.1787    2.3982  C     
23   N        48.4582    5.5358    3.6679  N     
24   C        49.1354    6.6246    4.4178  C     
25   C        48.6759    8.0398    3.9508  C     
26   C        48.0427    6.9879    1.6796  C     
27   C        48.5928    5.6268    2.1953  C     
28   H        47.7369   11.7108    2.3381  H     
29   H        46.2557    8.4077    0.2399  H     
30   H        44.1244    9.5079    0.0041  H     
31   H        43.7447   11.6983    0.8979  H     
32   H        48.3345   16.1240    3.1536  H     
33   H        47.5185   17.6856    2.9533  H     
34   H        49.0917    9.7857    1.2345  H     
35   H        49.8043    8.1045    2.1405  H     
36   H        48.8421    4.6319    3.9729  H     
37   H        47.4550    5.5587    3.8926  H     
38   H        48.8881    6.5066    5.4709  H     
39   H        50.2209    6.5241    4.3105  H     
40   H        49.3182    8.7991    4.4072  H     
41   H        47.6633    8.1895    4.3245  H     
42   H        46.9531    7.0220    1.8561  H     
43   H        48.2109    7.0434    0.5967  H     
44   H        49.6447    5.5074    1.9031  H     
45   H        48.0157    4.8087    1.7359  H     
@<TRIPOS>BOND
     1    1    2 1
     2    1    5 1
     3    2    3 2
     4    2    6 1
     5    3    4 1
     6    3   16 1
     7    4    5 2
     8    4   15 1
     9    5    9 1
    10    6    7 2
    11    6    8 1
    12    9   10 2
    13    9   14 1
    14   10   11 1
    15   11   12 2
    16   11   21 1
    17   12   13 1
    18   13   14 2
    19   16   17 1
    20   17   18 1
    21   18   19 1
    22   18   20 2
    23   21   22 1
    24   22   25 1
    25   22   26 1
    26   23   24 1
    27   23   27 1
    28   24   25 1
    29   26   27 1
    30   10   28 1
    31   12   29 1
    32   13   30 1
    33   14   31 1
    34   17   32 1
    35   17   33 1
    36   21   34 1
    37   22   35 1
    38   23   36 1
    39   23   37 1
    40   24   38 1
    41   24   39 1
    42   25   40 1
    43   25   41 1
    44   26   42 1
    45   26   43 1
    46   27   44 1
    47   27   45 1
@<TRIPOS>PROPERTY_DATA
  Total_Score	| 12.0635
  Crash		| -1.7269
  Polar		| 9.0352
  FragIndex	| 1
  FragRMSD	| 0.534

