@<TRIPOS>MOLECULE
BindingDB_17143
 31 33 0 0 0
SMALL
NO_CHARGES


@<TRIPOS>ATOM
1    C       120.7878  105.6117   27.2745  C     
2    C       120.2143  107.6361   27.9296  C     
3    C       121.4811  105.6759   28.4401  C     
4    O       120.7697  104.6659   26.4990  O     
5    N       120.0960  106.6866   26.9999  N     
6    N       119.6015  108.8247   27.8522  N     
7    S       121.2511  107.1830   29.2339  S     
8    C       122.2061  104.6511   28.9374  C     
9    C       122.9497  104.6329   30.1099  C     
10   C       123.5304  103.4902   30.6543  C     
11   C       124.1743  103.8615   31.8212  C     
12   C       124.0018  105.2365   31.9762  C     
13   O       123.2638  105.6767   30.9219  O     
14   C       124.5224  106.0626   33.0082  C     
15   C       125.6771  107.7440   35.0216  C     
16   C       125.4769  106.3651   35.2523  C     
17   C       124.9273  105.5361   34.2567  C     
18   C       124.6695  107.4523   32.8014  C     
19   C       125.2591  108.2745   33.7812  C     
20   C       126.3045  108.5602   35.9953  C     
21   O       126.9077  109.7256   35.6638  O     
22   O       126.3333  108.2074   37.3012  O     
23   H       119.5500  106.7803   26.2029  H     
24   H       119.7275  109.4843   28.5519  H     
25   H       122.2032  103.7988   28.4213  H     
26   H       123.4923  102.5436   30.2705  H     
27   H       124.7015  103.2316   32.4275  H     
28   H       125.7673  105.9382   36.1362  H     
29   H       124.8261  104.5391   34.4613  H     
30   H       124.3742  107.8791   31.9207  H     
31   H       125.3733  109.2707   33.5799  H     
@<TRIPOS>BOND
     1    1    3 1
     2    1    4 2
     3    1    5 1
     4    2    5 1
     5    2    6 2
     6    2    7 1
     7    3    7 1
     8    3    8 2
     9    8    9 1
    10    9   10 2
    11    9   13 1
    12   10   11 1
    13   11   12 2
    14   12   13 1
    15   12   14 1
    16   14   17 1
    17   14   18 2
    18   15   16 1
    19   15   19 2
    20   15   20 1
    21   16   17 2
    22   18   19 1
    23   20   21 2
    24   20   22 1
    25    5   23 1
    26    6   24 1
    27    8   25 1
    28   10   26 1
    29   11   27 1
    30   16   28 1
    31   17   29 1
    32   18   30 1
    33   19   31 1
@<TRIPOS>PROPERTY_DATA
  Total_Score	| 4.8055
  Crash		| -0.7032
  Polar		| 1.1829
  FragIndex	| 1
  FragRMSD	| 0.329

