@<TRIPOS>MOLECULE
BindingDB_17146
 47 50 0 0 0
SMALL
NO_CHARGES


@<TRIPOS>ATOM
1    C       120.7104  105.5829   27.0034  C     
2    C       119.9569  107.5236   27.7179  C     
3    C       121.3799  105.6641   28.1778  C     
4    O       120.7804  104.6652   26.1997  O     
5    N       119.9233  106.5987   26.7606  N     
6    N       119.2066  108.6358   27.7077  N     
7    S       121.0588  107.1396   28.9922  S     
8    C       122.1191  104.6525   28.6830  C     
9    C       122.8517  104.6386   29.8656  C     
10   C       123.4084  103.4934   30.4269  C     
11   C       124.0661  103.8659   31.5854  C     
12   C       123.9398  105.2475   31.7169  C     
13   O       123.1931  105.6837   30.6628  O     
14   C       124.4638  106.0801   32.7425  C     
15   C       125.2948  107.8395   34.8194  C     
16   C       124.6733  108.3475   33.6590  C     
17   C       124.2528  107.4766   32.6446  C     
18   C       125.1479  105.5834   33.8862  C     
19   C       125.5556  106.4438   34.9235  C     
20   O       127.0333  109.6640   35.6243  O     
21   O       124.6497  110.1618   36.1879  O     
22   S       125.6881  108.9554   36.0896  S     
23   C       126.5229  106.0639   38.3719  C     
24   C       126.8605  107.5623   38.1502  C     
25   C       124.4869  108.1961   38.3884  C     
26   C       124.0994  106.7165   38.5737  C     
27   N       125.7175  108.2755   37.6409  N     
28   N       125.2387  105.9060   39.0970  N     
29   H       119.3658  106.6627   25.9686  H     
30   H       118.5954  108.8094   26.9737  H     
31   H       122.1379  103.8007   28.1658  H     
32   H       123.3505  102.5415   30.0516  H     
33   H       124.5631  103.2316   32.2108  H     
34   H       124.4846  109.3530   33.5622  H     
35   H       123.7463  107.8724   31.8428  H     
36   H       125.3250  104.5843   34.0092  H     
37   H       125.9823  106.0189   35.7879  H     
38   H       126.4668  105.5388   37.4151  H     
39   H       127.3147  105.5863   38.9504  H     
40   H       127.1309  108.0120   39.1118  H     
41   H       127.7207  107.6436   37.4861  H     
42   H       123.6538  108.6816   37.8720  H     
43   H       124.6097  108.6909   39.3568  H     
44   H       123.2907  106.6456   39.3082  H     
45   H       123.7529  106.3842   37.5635  H     
46   H       124.9827  104.9150   39.0933  H     
47   H       125.3989  106.1828   40.0728  H     
@<TRIPOS>BOND
     1    1    3 1
     2    1    4 2
     3    1    5 1
     4    2    5 1
     5    2    6 2
     6    2    7 1
     7    3    7 1
     8    3    8 2
     9    8    9 1
    10    9   10 2
    11    9   13 1
    12   10   11 1
    13   11   12 2
    14   12   13 1
    15   12   14 1
    16   14   17 1
    17   14   18 2
    18   15   16 1
    19   15   19 2
    20   15   22 1
    21   16   17 2
    22   18   19 1
    23   20   22 2
    24   21   22 2
    25   22   27 1
    26   23   24 1
    27   23   28 1
    28   24   27 1
    29   25   26 1
    30   25   27 1
    31   26   28 1
    32    5   29 1
    33    6   30 1
    34    8   31 1
    35   10   32 1
    36   11   33 1
    37   16   34 1
    38   17   35 1
    39   18   36 1
    40   19   37 1
    41   23   38 1
    42   23   39 1
    43   24   40 1
    44   24   41 1
    45   25   42 1
    46   25   43 1
    47   26   44 1
    48   26   45 1
    49   28   46 1
    50   28   47 1
@<TRIPOS>PROPERTY_DATA
  Total_Score	| 6.1596
  Crash		| -1.3733
  Polar		| 0.6156
  FragIndex	| 1
  FragRMSD	| 0.838

