@<TRIPOS>MOLECULE
BindingDB_17149
 37 39 0 0 0
SMALL
NO_CHARGES


@<TRIPOS>ATOM
1    C       120.8107  105.7293   26.8578  C     
2    C       119.9261  107.5428   27.7412  C     
3    C       121.4254  105.7170   28.0684  C     
4    O       120.9630  104.9051   25.9668  O     
5    N       119.9859  106.7294   26.6870  N     
6    N       119.1189  108.6104   27.7941  N     
7    S       120.9856  107.0803   29.0209  S     
8    C       122.2071  104.7067   28.5063  C     
9    C       122.8789  104.6379   29.7188  C     
10   C       123.4435  103.4810   30.2509  C     
11   C       124.0001  103.8160   31.4733  C     
12   C       123.8223  105.1899   31.6591  C     
13   O       123.1392  105.6568   30.5793  O     
14   C       124.2468  105.9946   32.7553  C     
15   C       125.0522  107.6486   34.9480  C     
16   C       124.4553  108.2012   33.7917  C     
17   C       124.0553  107.3905   32.7183  C     
18   C       124.8638  105.4479   33.9043  C     
19   C       125.2704  106.2396   35.0135  C     
20   S       125.4834  108.8061   36.1917  S     
21   O       126.0366  108.2941   37.5917  O     
22   O       126.6655  109.6446   35.5402  O     
23   N       124.2308  109.8959   36.4679  N     
24   C       125.9094  105.5717   36.1921  C     
25   F       126.0786  104.2062   36.0969  F     
26   F       127.1628  106.0952   36.4029  F     
27   F       125.1347  105.7528   37.3110  F     
28   H       119.4617  106.8555   25.8813  H     
29   H       118.5379  108.8224   27.0475  H     
30   H       122.2909  103.9044   27.9170  H     
31   H       123.4220  102.5464   29.8386  H     
32   H       124.4657  103.1569   32.0962  H     
33   H       124.3022  109.2090   33.7128  H     
34   H       123.6232  107.8398   31.9041  H     
35   H       125.0128  104.4407   33.9412  H     
36   H       124.4395  110.8176   36.6916  H     
37   H       123.3269  109.5551   36.5953  H     
@<TRIPOS>BOND
     1    1    3 1
     2    1    4 2
     3    1    5 1
     4    2    5 1
     5    2    6 2
     6    2    7 1
     7    3    7 1
     8    3    8 2
     9    8    9 1
    10    9   10 2
    11    9   13 1
    12   10   11 1
    13   11   12 2
    14   12   13 1
    15   12   14 1
    16   14   17 1
    17   14   18 2
    18   15   16 1
    19   15   19 2
    20   15   20 1
    21   16   17 2
    22   18   19 1
    23   19   24 1
    24   20   21 2
    25   20   22 2
    26   20   23 am
    27   24   25 1
    28   24   26 1
    29   24   27 1
    30    5   28 1
    31    6   29 1
    32    8   30 1
    33   10   31 1
    34   11   32 1
    35   16   33 1
    36   17   34 1
    37   18   35 1
    38   23   36 1
    39   23   37 1
@<TRIPOS>PROPERTY_DATA
  Total_Score	| 6.1294
  Crash		| -0.6031
  Polar		| 1.4591
  FragIndex	| 1
  FragRMSD	| 0.822

