@<TRIPOS>MOLECULE
BindingDB_17145
 49 51 0 0 0
SMALL
NO_CHARGES


@<TRIPOS>ATOM
1    C       120.7313  105.6053   26.9346  C     
2    C       119.9281  107.5008   27.7258  C     
3    C       121.3572  105.6298   28.1386  C     
4    O       120.8314  104.7283   26.0892  O     
5    N       119.9513  106.6333   26.7140  N     
6    N       119.1940  108.6233   27.7241  N     
7    S       120.9412  107.0322   29.0426  S     
8    C       122.1538  104.6371   28.5876  C     
9    C       122.8477  104.5997   29.7877  C     
10   C       123.4582  103.4671   30.3205  C     
11   C       124.0428  103.8365   31.5188  C     
12   C       123.8075  105.2007   31.7027  C     
13   O       123.0813  105.6313   30.6382  O     
14   C       124.2258  106.0368   32.7761  C     
15   C       125.0573  107.7346   34.9036  C     
16   C       125.4275  106.3788   34.8929  C     
17   C       125.0140  105.5422   33.8421  C     
18   C       123.8716  107.4082   32.7928  C     
19   C       124.2863  108.2490   33.8453  C     
20   S       125.6095  108.7709   36.1844  S     
21   O       126.2173  107.9899   37.4292  O     
22   O       126.8220  109.5450   35.5037  O     
23   N       124.4127  109.8437   36.6876  N     
24   C       124.6588  111.2234   36.9445  C     
25   C       123.5271  112.1278   36.3864  C     
26   N       124.0181  113.4277   35.8228  N     
27   C       122.9081  114.2167   35.2088  C     
28   C       124.8026  114.2700   36.7756  C     
29   H       119.4347  106.7465   25.9000  H     
30   H       118.6421  108.8430   26.9577  H     
31   H       122.2514  103.8314   28.0094  H     
32   H       123.4655  102.5284   29.9166  H     
33   H       124.5552  103.2030   32.1344  H     
34   H       126.0087  105.9929   35.6408  H     
35   H       125.3062  104.5640   33.8692  H     
36   H       123.3104  107.8161   32.0405  H     
37   H       124.0252  109.2379   33.8270  H     
38   H       123.5567  109.4703   36.9630  H     
39   H       124.7423  111.3576   38.0263  H     
40   H       125.6045  111.5303   36.4931  H     
41   H       123.0276  111.5891   35.5763  H     
42   H       122.7814  112.3080   37.1681  H     
43   H       124.6536  113.1777   35.0594  H     
44   H       122.4081  113.6312   34.4339  H     
45   H       123.2925  115.1227   34.7294  H     
46   H       122.1669  114.5034   35.9628  H     
47   H       124.2075  114.5404   37.6492  H     
48   H       125.1347  115.1945   36.2963  H     
49   H       125.6987  113.7479   37.1158  H     
@<TRIPOS>BOND
     1    1    3 1
     2    1    4 2
     3    1    5 1
     4    2    5 1
     5    2    6 2
     6    2    7 1
     7    3    7 1
     8    3    8 2
     9    8    9 1
    10    9   10 2
    11    9   13 1
    12   10   11 1
    13   11   12 2
    14   12   13 1
    15   12   14 1
    16   14   17 1
    17   14   18 2
    18   15   16 1
    19   15   19 2
    20   15   20 1
    21   16   17 2
    22   18   19 1
    23   20   21 2
    24   20   22 2
    25   20   23 1
    26   23   24 1
    27   24   25 1
    28   25   26 1
    29   26   27 1
    30   26   28 1
    31    5   29 1
    32    6   30 1
    33    8   31 1
    34   10   32 1
    35   11   33 1
    36   16   34 1
    37   17   35 1
    38   18   36 1
    39   19   37 1
    40   23   38 1
    41   24   39 1
    42   24   40 1
    43   25   41 1
    44   25   42 1
    45   26   43 1
    46   27   44 1
    47   27   45 1
    48   27   46 1
    49   28   47 1
    50   28   48 1
    51   28   49 1
@<TRIPOS>PROPERTY_DATA
  Total_Score	| 8.1527
  Crash		| -0.8567
  Polar		| 3.3994
  FragIndex	| 1
  FragRMSD	| 0.393

