@<TRIPOS>MOLECULE
BindingDB_17141
 34 36 0 0 0
SMALL
NO_CHARGES


@<TRIPOS>ATOM
1    C       120.8268  105.8643   26.8703  C     
2    C       119.8994  107.6024   27.8545  C     
3    C       121.4272  105.7799   28.0872  C     
4    O       121.0110  105.1091   25.9246  O     
5    N       119.9908  106.8632   26.7511  N     
6    N       119.0826  108.6581   27.9661  N     
7    S       120.9322  107.0611   29.1254  S     
8    C       122.2134  104.7520   28.4719  C     
9    C       122.8627  104.6218   29.6897  C     
10   C       123.3943  103.4427   30.2085  C     
11   C       123.9629  103.7496   31.4320  C     
12   C       123.8098  105.1238   31.6355  C     
13   O       123.1406  105.6194   30.5646  O     
14   C       124.2569  105.9253   32.7229  C     
15   C       125.1470  107.5911   34.8622  C     
16   C       124.5076  108.1522   33.7382  C     
17   C       124.0701  107.3291   32.6836  C     
18   C       124.9043  105.3729   33.8565  C     
19   C       125.3360  106.1944   34.9155  C     
20   S       125.6827  108.6196   36.1604  S     
21   O       126.5910  107.8194   37.1930  O     
22   O       126.5907  109.7562   35.5221  O     
23   N       124.3949  109.3578   36.9504  N     
24   H       119.4773  107.0375   25.9457  H     
25   H       118.5146  108.9281   27.2292  H     
26   H       122.3302  103.9938   27.8359  H     
27   H       123.3521  102.5155   29.7829  H     
28   H       124.4168  103.0754   32.0506  H     
29   H       124.3589  109.1634   33.6705  H     
30   H       123.6137  107.7739   31.8793  H     
31   H       125.0714  104.3673   33.9311  H     
32   H       125.8034  105.7597   35.7111  H     
33   H       124.5732  110.0296   37.6248  H     
34   H       123.4783  109.1025   36.7427  H     
@<TRIPOS>BOND
     1    1    3 1
     2    1    4 2
     3    1    5 1
     4    2    5 1
     5    2    6 2
     6    2    7 1
     7    3    7 1
     8    3    8 2
     9    8    9 1
    10    9   10 2
    11    9   13 1
    12   10   11 1
    13   11   12 2
    14   12   13 1
    15   12   14 1
    16   14   17 1
    17   14   18 2
    18   15   16 1
    19   15   19 2
    20   15   20 1
    21   16   17 2
    22   18   19 1
    23   20   21 2
    24   20   22 2
    25   20   23 am
    26    5   24 1
    27    6   25 1
    28    8   26 1
    29   10   27 1
    30   11   28 1
    31   16   29 1
    32   17   30 1
    33   18   31 1
    34   19   32 1
    35   23   33 1
    36   23   34 1
@<TRIPOS>PROPERTY_DATA
  Total_Score	| 4.9687
  Crash		| -0.4767
  Polar		| 1.1356
  FragIndex	| 1
  FragRMSD	| 0.911

