@<TRIPOS>MOLECULE
BindingDB_17142
 31 33 0 0 0
SMALL
NO_CHARGES


@<TRIPOS>ATOM
1    C       120.7135  105.4985   27.1188  C     
2    C       120.0436  107.4905   27.7808  C     
3    C       121.3715  105.5720   28.3025  C     
4    O       120.7629  104.5677   26.3274  O     
5    N       119.9821  106.5462   26.8411  N     
6    N       119.3612  108.6421   27.7197  N     
7    S       121.0906  107.0744   29.0889  S     
8    C       122.1046  104.5607   28.8149  C     
9    C       122.8317  104.5661   29.9960  C     
10   C       123.4917  103.4816   30.5451  C     
11   C       124.1150  103.9137   31.7042  C     
12   C       123.8622  105.2845   31.8872  C     
13   O       123.0797  105.6105   30.8163  O     
14   C       124.2715  106.3236   32.8262  C     
15   C       125.0276  108.6930   34.2752  C     
16   C       124.2360  108.7990   33.1368  C     
17   C       123.8742  107.6429   32.4359  C     
18   C       125.0496  106.2186   34.0453  C     
19   C       125.4177  107.4258   34.7168  C     
20   N       125.4673  105.0689   34.6701  N     
21   O       126.1567  105.0393   35.6584  O     
22   O       125.0647  103.8895   34.3743  O     
23   H       119.4476  106.6274   26.0349  H     
24   H       118.7837  108.8257   26.9623  H     
25   H       122.1359  103.7096   28.2993  H     
26   H       123.5325  102.5346   30.1622  H     
27   H       124.6654  103.2642   32.2500  H     
28   H       125.3078  109.5315   34.7884  H     
29   H       123.9339  109.7192   32.8079  H     
30   H       123.3035  107.8104   31.6058  H     
31   H       125.9785  107.4095   35.5722  H     
@<TRIPOS>BOND
     1    1    3 1
     2    1    4 2
     3    1    5 1
     4    2    5 1
     5    2    6 2
     6    2    7 1
     7    3    7 1
     8    3    8 2
     9    8    9 1
    10    9   10 2
    11    9   13 1
    12   10   11 1
    13   11   12 2
    14   12   13 1
    15   12   14 1
    16   14   17 1
    17   14   18 2
    18   15   16 1
    19   15   19 2
    20   16   17 2
    21   18   19 1
    22   18   20 am
    23   20   21 2
    24   20   22 1
    25    5   23 1
    26    6   24 1
    27    8   25 1
    28   10   26 1
    29   11   27 1
    30   15   28 1
    31   16   29 1
    32   17   30 1
    33   19   31 1
@<TRIPOS>PROPERTY_DATA
  Total_Score	| 3.7110
  Crash		| -0.9844
  Polar		| 0.0000
  FragIndex	| 1
  FragRMSD	| 0.372

