@<TRIPOS>MOLECULE
BindingDB_17151
 37 39 0 0 0
SMALL
NO_CHARGES


@<TRIPOS>ATOM
1    C       121.0996  105.7312   27.1300  C     
2    C       119.9287  107.2607   28.2082  C     
3    C       121.6887  105.6014   28.3588  C     
4    O       121.3313  105.0745   26.1277  O     
5    N       120.1517  106.6339   27.0567  N     
6    N       118.9911  108.2012   28.3752  N     
7    S       120.9578  106.7022   29.4734  S     
8    C       122.6695  104.7270   28.7199  C     
9    C       123.1851  104.6836   30.0220  C     
10   C       123.5555  103.5537   30.7441  C     
11   C       124.0687  103.9743   31.9558  C     
12   C       124.0212  105.3711   31.9676  C     
13   O       123.4815  105.7653   30.7861  O     
14   C       124.4561  106.2634   32.9805  C     
15   C       125.2717  108.1271   34.9762  C     
16   C       125.4735  106.7432   35.1602  C     
17   C       125.0692  105.8268   34.1743  C     
18   C       124.2851  107.6576   32.7941  C     
19   C       124.6898  108.5738   33.7781  C     
20   S       125.8119  109.2703   36.1745  S     
21   O       125.9719  108.5721   37.5945  O     
22   O       127.2292  109.7510   35.6379  O     
23   N       124.8227  110.6205   36.2999  N     
24   C       123.2928  103.8065   27.7614  C     
25   H       119.6421  106.8060   26.2469  H     
26   H       118.8688  108.6120   29.2468  H     
27   H       123.4761  102.5842   30.4455  H     
28   H       124.4203  103.3566   32.6872  H     
29   H       125.9300  106.3834   36.0008  H     
30   H       125.2407  104.8354   34.3411  H     
31   H       123.8609  108.0280   31.9370  H     
32   H       124.5603  109.5737   33.6130  H     
33   H       125.0678  111.3351   36.9076  H     
34   H       123.9302  110.6060   35.9216  H     
35   H       122.5463  103.1086   27.3841  H     
36   H       124.1127  103.2134   28.1730  H     
37   H       123.7205  104.3759   26.9370  H     
@<TRIPOS>BOND
     1    1    3 1
     2    1    4 2
     3    1    5 1
     4    2    5 1
     5    2    6 2
     6    2    7 1
     7    3    7 1
     8    3    8 2
     9    8    9 1
    10    8   24 1
    11    9   10 2
    12    9   13 1
    13   10   11 1
    14   11   12 2
    15   12   13 1
    16   12   14 1
    17   14   17 1
    18   14   18 2
    19   15   16 1
    20   15   19 2
    21   15   20 1
    22   16   17 2
    23   18   19 1
    24   20   21 2
    25   20   22 2
    26   20   23 am
    27    5   25 1
    28    6   26 1
    29   10   27 1
    30   11   28 1
    31   16   29 1
    32   17   30 1
    33   18   31 1
    34   19   32 1
    35   23   33 1
    36   23   34 1
    37   24   35 1
    38   24   36 1
    39   24   37 1
@<TRIPOS>PROPERTY_DATA
  Total_Score	| 4.6703
  Crash		| -1.4676
  Polar		| 0.6669
  FragIndex	| 1
  FragRMSD	| 0.769

