@<TRIPOS>MOLECULE
BindingDB_17152
 33 35 0 0 0
SMALL
NO_CHARGES


@<TRIPOS>ATOM
1    C       120.6747  105.7666   27.0703  C     
2    C       119.2489  106.8932   28.2766  C     
3    C       121.3110  105.7505   28.2628  C     
4    O       121.0552  105.2270   26.0443  O     
5    N       119.5152  106.3694   27.1133  N     
6    S       120.5274  106.7724   29.3996  S     
7    C       122.2679  104.8465   28.5921  C     
8    C       122.9126  104.7312   29.8094  C     
9    C       123.4586  103.5514   30.3029  C     
10   C       124.0256  103.8446   31.5282  C     
11   C       123.8858  105.2180   31.7418  C     
12   O       123.1951  105.7288   30.6827  O     
13   C       124.4045  105.9719   32.8420  C     
14   C       125.5079  107.5486   34.9563  C     
15   C       124.9787  108.1684   33.8038  C     
16   C       124.4228  107.3861   32.7692  C     
17   C       124.9369  105.3687   34.0094  C     
18   C       125.4693  106.1442   35.0536  C     
19   S       126.2183  108.4881   36.2431  S     
20   O       126.9624  109.7799   35.6887  O     
21   O       125.0318  108.9230   37.2079  O     
22   N       127.2923  107.5854   37.1734  N     
23   O       118.1687  107.4060   28.5330  O     
24   H       118.8990  106.3923   26.3595  H     
25   H       122.4952  104.1548   27.9116  H     
26   H       123.4167  102.6290   29.8730  H     
27   H       124.4841  103.1569   32.1374  H     
28   H       125.0109  109.1845   33.7057  H     
29   H       124.0482  107.8748   31.9506  H     
30   H       124.9335  104.3554   34.1163  H     
31   H       125.8472  105.6670   35.8778  H     
32   H       127.4943  107.8593   38.0835  H     
33   H       127.6538  106.7560   36.8245  H     
@<TRIPOS>BOND
     1    1    3 1
     2    1    4 2
     3    1    5 1
     4    2    5 1
     5    2    6 1
     6    2   23 2
     7    3    6 1
     8    3    7 2
     9    7    8 1
    10    8    9 2
    11    8   12 1
    12    9   10 1
    13   10   11 2
    14   11   12 1
    15   11   13 1
    16   13   16 1
    17   13   17 2
    18   14   15 1
    19   14   18 2
    20   14   19 1
    21   15   16 2
    22   17   18 1
    23   19   20 2
    24   19   21 2
    25   19   22 am
    26    5   24 1
    27    7   25 1
    28    9   26 1
    29   10   27 1
    30   15   28 1
    31   16   29 1
    32   17   30 1
    33   18   31 1
    34   22   32 1
    35   22   33 1
@<TRIPOS>PROPERTY_DATA
  Total_Score	| 6.1646
  Crash		| -0.6056
  Polar		| 1.5489
  FragIndex	| 1
  FragRMSD	| 0.575

