@<TRIPOS>MOLECULE
BindingDB_17147
 45 48 0 0 0
SMALL
NO_CHARGES


@<TRIPOS>ATOM
1    C       120.7273  105.6616   27.0107  C     
2    C       120.0130  107.5786   27.8297  C     
3    C       121.4108  105.6742   28.1825  C     
4    O       120.7682  104.7799   26.1641  O     
5    N       119.9565  106.7019   26.8263  N     
6    N       119.2840  108.7023   27.8709  N     
7    S       121.1082  107.1095   29.0791  S     
8    C       122.1681  104.6438   28.6158  C     
9    C       122.8897  104.5689   29.7977  C     
10   C       123.4602  103.4036   30.3034  C     
11   C       124.0792  103.7261   31.4980  C     
12   C       123.9011  105.0943   31.7094  C     
13   O       123.1797  105.5747   30.6626  O     
14   C       124.3647  105.8855   32.7947  C     
15   C       125.2771  107.5016   34.9574  C     
16   C       124.7223  108.0973   33.8063  C     
17   C       124.2630  107.2971   32.7424  C     
18   C       124.9335  105.3017   33.9528  C     
19   C       125.3788  106.0979   35.0210  C     
20   O       126.9819  109.4592   35.6824  O     
21   O       124.7271  109.4850   36.7352  O     
22   S       125.8709  108.4819   36.2686  S     
23   C       127.8403  105.7397   38.4543  C     
24   C       127.7226  106.9127   37.4499  C     
25   C       125.9585  107.8905   38.9048  C     
26   C       126.1510  106.6892   39.8655  C     
27   N       126.4671  107.6037   37.5898  N     
28   O       127.4896  106.1659   39.7836  O     
29   H       119.3928  106.8195   26.0450  H     
30   H       118.6769  108.9136   27.1445  H     
31   H       122.2063  103.8314   28.0401  H     
32   H       123.4259  102.4728   29.8820  H     
33   H       124.5822  103.0642   32.0911  H     
34   H       124.6518  109.1154   33.7322  H     
35   H       123.8626  107.7607   31.9228  H     
36   H       125.0218  104.2872   34.0431  H     
37   H       125.7833  105.6385   35.8386  H     
38   H       127.1969  104.9118   38.1440  H     
39   H       128.8684  105.3757   38.4698  H     
40   H       128.5342  107.6177   37.6310  H     
41   H       127.8424  106.5088   36.4418  H     
42   H       124.8877  108.1241   38.8733  H     
43   H       126.4895  108.7608   39.3010  H     
44   H       125.9714  107.0148   40.8913  H     
45   H       125.4262  105.9050   39.6311  H     
@<TRIPOS>BOND
     1    1    3 1
     2    1    4 2
     3    1    5 1
     4    2    5 1
     5    2    6 2
     6    2    7 1
     7    3    7 1
     8    3    8 2
     9    8    9 1
    10    9   10 2
    11    9   13 1
    12   10   11 1
    13   11   12 2
    14   12   13 1
    15   12   14 1
    16   14   17 1
    17   14   18 2
    18   15   16 1
    19   15   19 2
    20   15   22 1
    21   16   17 2
    22   18   19 1
    23   20   22 2
    24   21   22 2
    25   22   27 1
    26   23   24 1
    27   23   28 1
    28   24   27 1
    29   25   26 1
    30   25   27 1
    31   26   28 1
    32    5   29 1
    33    6   30 1
    34    8   31 1
    35   10   32 1
    36   11   33 1
    37   16   34 1
    38   17   35 1
    39   18   36 1
    40   19   37 1
    41   23   38 1
    42   23   39 1
    43   24   40 1
    44   24   41 1
    45   25   42 1
    46   25   43 1
    47   26   44 1
    48   26   45 1
@<TRIPOS>PROPERTY_DATA
  Total_Score	| 6.1419
  Crash		| -1.1088
  Polar		| 0.6982
  FragIndex	| 1
  FragRMSD	| 0.521

