@<TRIPOS>MOLECULE
BindingDB_10900
 47 48 0 0 0
SMALL
NO_CHARGES


@<TRIPOS>ATOM
1    C        15.2007    4.2703   16.4151  C     
2    C        16.2843    3.9875   15.5516  C     
3    C        16.8754    5.0060   14.7851  C     
4    C        16.4151    6.3436   14.8891  C     
5    C        15.3739    6.6260   15.8184  C     
6    C        14.7712    5.6050   16.5672  C     
7    S        14.3596    2.9919   17.2519  S     
8    O        14.2799    3.4335   18.7785  O     
9    O        12.8827    2.8796   16.6693  O     
10   N        15.1255    1.4930   17.2128  N     
11   C        16.8620    7.4159   13.9578  C     
12   N        18.2666    7.4523   13.7406  N     
13   S        18.9441    7.3715   12.1992  S     
14   O        18.5843    8.6223   11.2758  O     
15   O        20.5263    7.3796   12.4198  O     
16   C        18.5077    5.8334   11.5206  C     
17   C        17.2507    5.6317   10.9235  C     
18   C        19.3024    4.7125   11.8334  C     
19   C        18.8097    3.4152   11.6032  C     
20   C        17.4677    3.1883   11.1711  C     
21   C        16.7332    4.3347   10.7731  C     
22   C        16.8651    1.7880   11.2430  C     
23   C        17.8734    0.7640   10.6335  C     
24   C        16.5597    1.4078   12.7378  C     
25   C        15.4977    1.6224   10.4919  C     
26   H        16.6348    3.0295   15.4415  H     
27   H        17.6191    4.7268   14.1312  H     
28   H        15.0106    7.5833   15.9187  H     
29   H        13.9897    5.8365   17.1864  H     
30   H        14.8892    0.8152   17.8598  H     
31   H        15.7698    1.2868   16.5224  H     
32   H        16.3085    7.2805   13.0285  H     
33   H        16.5893    8.4031   14.3277  H     
34   H        18.8678    7.4344   14.5054  H     
35   H        16.6548    6.4395   10.7274  H     
36   H        20.1880    4.8365   12.3224  H     
37   H        19.4160    2.6237   11.8400  H     
38   H        15.7868    4.2498   10.4090  H     
39   H        18.0649    1.0022    9.5863  H     
40   H        17.4825   -0.2543   10.6896  H     
41   H        18.8299    0.7792   11.1610  H     
42   H        17.4693    1.3544   13.3371  H     
43   H        16.0767    0.4278   12.8101  H     
44   H        15.8917    2.1453   13.1964  H     
45   H        14.7689    2.3515   10.8537  H     
46   H        15.0744    0.6312   10.6475  H     
47   H        15.6159    1.7565    9.4177  H     
@<TRIPOS>BOND
     1    1    2 2
     2    1    6 1
     3    1    7 1
     4    2    3 1
     5    3    4 2
     6    4    5 1
     7    4   11 1
     8    5    6 2
     9    7    8 2
    10    7    9 2
    11    7   10 am
    12   11   12 1
    13   12   13 1
    14   13   14 2
    15   13   15 2
    16   13   16 1
    17   16   17 2
    18   16   18 1
    19   17   21 1
    20   18   19 2
    21   19   20 1
    22   20   21 2
    23   20   22 1
    24   22   23 1
    25   22   24 1
    26   22   25 1
    27    2   26 1
    28    3   27 1
    29    5   28 1
    30    6   29 1
    31   10   30 1
    32   10   31 1
    33   11   32 1
    34   11   33 1
    35   12   34 1
    36   17   35 1
    37   18   36 1
    38   19   37 1
    39   21   38 1
    40   23   39 1
    41   23   40 1
    42   23   41 1
    43   24   42 1
    44   24   43 1
    45   24   44 1
    46   25   45 1
    47   25   46 1
    48   25   47 1
@<TRIPOS>PROPERTY_DATA
  Total_Score	| 5.7985
  Crash		| -1.9057
  Polar		| 0.0088
  FragIndex	| 1
  FragRMSD	| 0.375

