@<TRIPOS>MOLECULE
BindingDB_12155
 43 44 0 0 0
SMALL
NO_CHARGES


@<TRIPOS>ATOM
1    C        16.2993    6.7274   15.3189  C     
2    C        15.0202    4.4567   16.4453  C     
3    C        14.5798    5.7622   16.7482  C     
4    C        15.2091    6.8889   16.1870  C     
5    C        16.7581    5.4383   15.0091  C     
6    C        16.1259    4.2936   15.5646  C     
7    O        14.4608    1.6761   16.5158  O     
8    O        14.2656    3.0062   18.6893  O     
9    S        14.1201    3.1163   17.1105  S     
10   N        12.4993    3.2937   16.7587  N     
11   C        16.5345    3.0531   15.1637  C     
12   O        17.4062    2.4639   15.7992  O     
13   N        16.0757    2.5948   14.0096  N     
14   N        16.4176    1.4674   13.4707  N     
15   C        17.1447    1.4200   12.3691  C     
16   O        17.3164    0.3094   11.8720  O     
17   N        17.7289    2.5191   11.9095  N     
18   S        18.7043    2.6044   10.5524  S     
19   O        20.1655    2.1142   10.9709  O     
20   O        18.1077    1.5967    9.4687  O     
21   C        18.7599    4.1878    9.8087  C     
22   C        19.8619    4.4436    8.9592  C     
23   C        19.9546    5.6363    8.2260  C     
24   C        18.9403    6.5950    8.3337  C     
25   C        17.8438    6.3742    9.1784  C     
26   C        17.7295    5.1750    9.9310  C     
27   C        16.5352    4.9873   10.8096  C     
28   H        16.7484    7.5430   14.9033  H     
29   H        13.7710    5.9110   17.3549  H     
30   H        14.8567    7.8302   16.4007  H     
31   H        17.5463    5.3323   14.3684  H     
32   H        12.1612    2.9740   15.9081  H     
33   H        11.9644    3.9138   17.2720  H     
34   H        15.4911    3.1907   13.4914  H     
35   H        16.1564    0.6452   13.9089  H     
36   H        17.5897    3.3670   12.3860  H     
37   H        20.6097    3.7533    8.8542  H     
38   H        20.7541    5.7955    7.6150  H     
39   H        18.9992    7.4601    7.7913  H     
40   H        17.1152    7.0913    9.2358  H     
41   H        16.0001    4.0792   10.5099  H     
42   H        15.8330    5.8351   10.7621  H     
43   H        16.8609    4.8899   11.8581  H     
@<TRIPOS>BOND
     1    1    4 2
     2    1    5 1
     3    2    3 2
     4    2    6 1
     5    2    9 1
     6    3    4 1
     7    5    6 2
     8    6   11 1
     9    7    9 2
    10    8    9 2
    11    9   10 am
    12   11   12 2
    13   11   13 am
    14   13   14 1
    15   14   15 am
    16   15   16 2
    17   15   17 am
    18   17   18 1
    19   18   19 2
    20   18   20 2
    21   18   21 1
    22   21   22 2
    23   21   26 1
    24   22   23 1
    25   23   24 2
    26   24   25 1
    27   25   26 2
    28   26   27 1
    29    1   28 1
    30    3   29 1
    31    4   30 1
    32    5   31 1
    33   10   32 1
    34   10   33 1
    35   13   34 1
    36   14   35 1
    37   17   36 1
    38   22   37 1
    39   23   38 1
    40   24   39 1
    41   25   40 1
    42   27   41 1
    43   27   42 1
    44   27   43 1
@<TRIPOS>PROPERTY_DATA
  Total_Score	| 3.0576
  Crash		| -5.3658
  Polar		| 2.1384
  FragIndex	| 1
  FragRMSD	| 0.924

