@<TRIPOS>MOLECULE
BindingDB_10871
 37 38 0 0 0
SMALL
NO_CHARGES


@<TRIPOS>ATOM
1    C        18.2519    4.9113   11.4406  C     
2    C        16.9399    4.3963   11.3497  C     
3    C        16.7189    3.0101   11.2072  C     
4    C        17.8122    2.1248   11.1216  C     
5    C        19.1262    2.6342   11.1702  C     
6    C        19.3430    4.0177   11.3281  C     
7    N        17.6054    0.8004   11.0101  N     
8    O        19.9735    6.9612   12.2049  O     
9    O        18.3812    7.3522   10.3100  O     
10   S        18.4959    6.6161   11.7125  S     
11   N        17.3588    7.3525   12.7201  N     
12   C        17.4726    7.4510   14.1342  C     
13   C        16.6330    6.4409   14.8256  C     
14   C        16.2061    4.0823   15.3528  C     
15   C        16.9706    5.0717   14.7133  C     
16   C        15.5116    6.7921   15.6137  C     
17   C        14.7553    5.8064   16.2697  C     
18   C        15.0893    4.4406   16.1322  C     
19   O        12.6400    3.4146   16.7454  O     
20   S        14.1990    3.2213   17.0052  S     
21   O        14.6176    1.7497   16.5774  O     
22   N        14.4477    3.4323   18.6536  N     
23   H        16.1319    5.0238   11.4034  H     
24   H        15.7626    2.6518   11.1700  H     
25   H        19.9266    2.0011   11.1063  H     
26   H        20.3070    4.3639   11.3748  H     
27   H        18.3614    0.1954   10.9492  H     
28   H        16.7001    0.4520   10.9906  H     
29   H        16.5317    7.6467   12.3098  H     
30   H        18.5129    7.3536   14.4427  H     
31   H        17.1546    8.4536   14.4178  H     
32   H        16.4733    3.0987   15.2484  H     
33   H        17.7954    4.7858   14.1776  H     
34   H        15.2507    7.7684   15.7239  H     
35   H        13.9564    6.0848   16.8397  H     
36   H        13.8266    3.0118   19.2735  H     
37   H        14.9760    4.1943   18.9487  H     
@<TRIPOS>BOND
     1    1    2 2
     2    1    6 1
     3    1   10 1
     4    2    3 1
     5    3    4 2
     6    4    5 1
     7    4    7 1
     8    5    6 2
     9    8   10 2
    10    9   10 2
    11   10   11 1
    12   11   12 1
    13   12   13 1
    14   13   15 1
    15   13   16 2
    16   14   15 2
    17   14   18 1
    18   16   17 1
    19   17   18 2
    20   18   20 1
    21   19   20 2
    22   20   21 2
    23   20   22 am
    24    2   23 1
    25    3   24 1
    26    5   25 1
    27    6   26 1
    28    7   27 1
    29    7   28 1
    30   11   29 1
    31   12   30 1
    32   12   31 1
    33   14   32 1
    34   15   33 1
    35   16   34 1
    36   17   35 1
    37   22   36 1
    38   22   37 1
@<TRIPOS>PROPERTY_DATA
  Total_Score	| 4.6458
  Crash		| -1.3599
  Polar		| 1.8272
  FragIndex	| 1
  FragRMSD	| 0.785

