@<TRIPOS>MOLECULE
BindingDB_12153
 23 23 0 0 0
SMALL
NO_CHARGES


@<TRIPOS>ATOM
1    C        16.4237    6.6259   14.8623  C     
2    C        15.0912    4.4793   16.1329  C     
3    C        14.8428    5.8162   16.5210  C     
4    C        15.5082    6.8824   15.8940  C     
5    C        16.6744    5.3041   14.4591  C     
6    C        16.0248    4.2115   15.0882  C     
7    O        12.6506    3.5502   17.1374  O     
8    O        14.2345    1.8554   16.1776  O     
9    S        14.1955    3.2310   16.9707  S     
10   N        14.8219    2.8921   18.4888  N     
11   C        16.3472    2.9241   14.6722  C     
12   O        16.8197    2.1442   15.4889  O     
13   N        16.1881    2.5656   13.4066  N     
14   N        16.4532    1.4148   12.9558  N     
15   H        16.9094    7.4015   14.4067  H     
16   H        14.1747    6.0303   17.2670  H     
17   H        15.3232    7.8452   16.1864  H     
18   H        17.3589    5.1478   13.7132  H     
19   H        14.7087    3.5287   19.2079  H     
20   H        15.1748    2.0085   18.6742  H     
21   H        15.8376    3.2212   12.7827  H     
22   H        16.3074    1.2247   12.0532  H     
23   H        16.7813    0.7471   13.5238  H     
@<TRIPOS>BOND
     1    1    4 2
     2    1    5 1
     3    2    3 2
     4    2    6 1
     5    2    9 1
     6    3    4 1
     7    5    6 2
     8    6   11 1
     9    7    9 2
    10    8    9 2
    11    9   10 am
    12   11   12 2
    13   11   13 am
    14   13   14 1
    15    1   15 1
    16    3   16 1
    17    4   17 1
    18    5   18 1
    19   10   19 1
    20   10   20 1
    21   13   21 1
    22   14   22 1
    23   14   23 1
@<TRIPOS>PROPERTY_DATA
  Total_Score	| 4.0209
  Crash		| -1.1322
  Polar		| 1.9979
  FragIndex	| 1
  FragRMSD	| 0.908

