@<TRIPOS>MOLECULE
BindingDB_50247721
 35 36 0 0 0
SMALL
NO_CHARGES


@<TRIPOS>ATOM
1    C        14.7193   11.1017   11.7758  C     
2    C        14.9167   12.4384   11.3822  C     
3    C        16.2183   12.9135   11.1256  C     
4    C        17.3177   12.0430   11.2472  C     
5    C        17.1197   10.7043   11.6356  C     
6    C        15.8196   10.2300   11.9226  C     
7    F        16.4084   14.1562   10.7902  F     
8    S        15.5818    8.5959   12.4711  S     
9    N        16.9737    7.7590   12.9278  N     
10   O        14.4807    8.5332   13.6233  O     
11   O        14.9376    7.7633   11.2782  O     
12   C        17.3739    7.6137   14.2838  C     
13   C        16.5760    6.5536   14.9421  C     
14   C        16.9021    5.1914   14.7321  C     
15   C        16.1562    4.1654   15.3389  C     
16   C        15.0736    4.4816   16.1810  C     
17   C        14.7315    5.8317   16.3876  C     
18   C        15.4856    6.8597   15.7863  C     
19   S        14.1937    3.2048   16.9764  S     
20   N        14.3709    3.3285   18.6420  N     
21   O        12.6458    3.3918   16.6672  O     
22   O        14.6323    1.7580   16.4866  O     
23   H        13.7690   10.7713   11.9611  H     
24   H        14.1144   13.0594   11.2801  H     
25   H        18.2637   12.3768   11.0543  H     
26   H        17.9299   10.0837   11.7233  H     
27   H        17.3747    7.1748   12.2691  H     
28   H        18.4329    7.3457   14.3076  H     
29   H        17.2739    8.5630   14.8055  H     
30   H        17.6946    4.9345   14.1274  H     
31   H        16.4246    3.1894   15.1688  H     
32   H        13.9450    6.0751   16.9943  H     
33   H        15.2288    7.8337   15.9612  H     
34   H        13.6299    3.0682   19.2166  H     
35   H        15.0850    3.8780   19.0062  H     
@<TRIPOS>BOND
     1    1    2 2
     2    1    6 1
     3    2    3 1
     4    3    4 2
     5    3    7 1
     6    4    5 1
     7    5    6 2
     8    6    8 1
     9    8    9 1
    10    8   10 2
    11    8   11 2
    12    9   12 1
    13   12   13 1
    14   13   14 2
    15   13   18 1
    16   14   15 1
    17   15   16 2
    18   16   17 1
    19   16   19 1
    20   17   18 2
    21   19   20 am
    22   19   21 2
    23   19   22 2
    24    1   23 1
    25    2   24 1
    26    4   25 1
    27    5   26 1
    28    9   27 1
    29   12   28 1
    30   12   29 1
    31   14   30 1
    32   15   31 1
    33   17   32 1
    34   18   33 1
    35   20   34 1
    36   20   35 1
@<TRIPOS>PROPERTY_DATA
  Total_Score	| 5.2040
  Crash		| -1.8959
  Polar		| 2.3575
  FragIndex	| 1
  FragRMSD	| 0.799

