@<TRIPOS>MOLECULE
BindingDB_29278
 17 18 0 0 0
SMALL
NO_CHARGES


@<TRIPOS>ATOM
1    S        16.5334    3.8421   13.2372  S     
2    O        18.0654    4.2265   13.0360  O     
3    O        15.4722    4.2260   12.1136  O     
4    O        15.3209    1.7516   16.0199  O     
5    N        16.1751    2.4505   14.1101  N     
6    C        16.0442    4.8127   14.5754  C     
7    C        15.5617    4.0010   15.6082  C     
8    C        15.6646    2.6743   15.2986  C     
9    C        16.0247    6.2141   14.6764  C     
10   C        15.0057    4.5939   16.7649  C     
11   C        15.4742    6.8079   15.8312  C     
12   C        14.9519    6.0001   16.8627  C     
13   H        16.3082    1.5558   13.7527  H     
14   H        16.3793    6.7965   13.9144  H     
15   H        14.6245    4.0128   17.5158  H     
16   H        15.4331    7.8240   15.9136  H     
17   H        14.5380    6.4354   17.6918  H     
@<TRIPOS>BOND
     1    1    2 2
     2    1    3 2
     3    1    5 1
     4    1    6 1
     5    4    8 2
     6    5    8 1
     7    6    7 1
     8    6    9 2
     9    7    8 1
    10    7   10 2
    11    9   11 1
    12   10   12 1
    13   11   12 2
    14    5   13 1
    15    9   14 1
    16   10   15 1
    17   11   16 1
    18   12   17 1
@<TRIPOS>PROPERTY_DATA
  Total_Score	| 4.2595
  Crash		| -0.3576
  Polar		| 3.1593
  FragIndex	| 1
  FragRMSD	| 1.118

