@<TRIPOS>MOLECULE
BindingDB_16659
 35 36 0 0 0
SMALL
NO_CHARGES


@<TRIPOS>ATOM
1    C        15.1364    4.2891   16.2856  C     
2    C        16.1906    4.0909   15.3667  C     
3    C        16.7508    5.1896   14.6863  C     
4    C        16.2707    6.5017   14.9075  C     
5    C        15.2100    6.6891   15.8238  C     
6    C        14.6439    5.5934   16.5029  C     
7    S        14.3954    2.9565   17.1321  S     
8    O        14.3260    3.3477   18.6697  O     
9    O        12.9121    2.7652   16.5930  O     
10   N        15.2211    1.4892   17.0582  N     
11   C        16.8457    7.6633   14.1860  C     
12   N        15.8460    8.2880   13.3838  N     
13   C        16.0647   10.5292   11.5402  C     
14   C        14.8585   11.2475   11.6675  C     
15   C        17.2484   11.2152   11.1933  C     
16   C        17.2226   12.6010   10.9670  C     
17   C        16.0143   13.3094   11.0825  C     
18   C        14.8310   12.6319   11.4312  C     
19   S        16.0689    8.8026   11.7912  S     
20   O        17.3311    8.0966   11.1319  O     
21   O        14.8407    8.1403   11.0287  O     
22   H        16.5612    3.1488   15.1930  H     
23   H        17.5187    5.0137   14.0321  H     
24   H        14.8412    7.6275   16.0013  H     
25   H        13.8711    5.7592   17.1563  H     
26   H        14.9379    0.7436   17.6246  H     
27   H        15.9964    1.3902   16.4915  H     
28   H        17.2164    8.3979   14.9122  H     
29   H        17.6983    7.3713   13.5660  H     
30   H        14.9701    8.4459   13.7764  H     
31   H        13.9932   10.7675   11.9279  H     
32   H        18.1343   10.7121   11.0937  H     
33   H        18.0832   13.0959   10.7137  H     
34   H        15.9923   14.3166   10.9166  H     
35   H        13.9564   13.1506   11.5253  H     
@<TRIPOS>BOND
     1    1    2 1
     2    1    6 2
     3    1    7 1
     4    2    3 2
     5    3    4 1
     6    4    5 2
     7    4   11 1
     8    5    6 1
     9    7    8 2
    10    7    9 2
    11    7   10 am
    12   11   12 1
    13   12   19 1
    14   13   14 1
    15   13   15 2
    16   13   19 1
    17   14   18 2
    18   15   16 1
    19   16   17 2
    20   17   18 1
    21   19   20 2
    22   19   21 2
    23    2   22 1
    24    3   23 1
    25    5   24 1
    26    6   25 1
    27   10   26 1
    28   10   27 1
    29   11   28 1
    30   11   29 1
    31   12   30 1
    32   14   31 1
    33   15   32 1
    34   16   33 1
    35   17   34 1
    36   18   35 1
@<TRIPOS>PROPERTY_DATA
  Total_Score	| 4.4886
  Crash		| -0.9357
  Polar		| 0.8078
  FragIndex	| 1
  FragRMSD	| 0.337

