@<TRIPOS>MOLECULE
BindingDB_50355643
 33 34 0 0 0
SMALL
NO_CHARGES


@<TRIPOS>ATOM
1    O        19.5702   32.6357   59.9482  O     
2    S        19.0914   31.1218   59.8428  S     
3    O        20.3520   30.2330   60.2239  O     
4    S        17.8889   30.9213   55.2990  S     
5    C        17.8748   29.6013   56.4120  C     
6    C        17.2635   28.5267   55.7287  C     
7    C        16.8439   28.8207   54.4164  C     
8    C        17.1291   30.1163   53.9887  C     
9    C        18.3621   29.6733   57.7108  C     
10   O        18.4921   28.6537   58.3810  O     
11   N        18.6515   30.8552   58.2367  N     
12   S        16.9202   26.9574   56.3988  S     
13   C        17.7368   26.0141   55.0872  C     
14   C        17.7505   24.5660   55.4156  C     
15   C        16.5910   23.7736   55.2420  C     
16   C        16.5695   22.4171   55.6287  C     
17   C        17.7321   21.8304   56.1798  C     
18   C        18.9032   22.5989   56.3123  C     
19   C        18.9142   23.9503   55.9287  C     
20   Cl       17.7740   20.2220   56.7134  Cl    
21   Cl       15.1295   21.5427   55.4194  Cl    
22   C        17.7207   30.8726   60.9885  C     
23   H        16.3581   28.1383   53.8278  H     
24   H        16.9015   30.5286   53.0827  H     
25   H        18.5371   31.6392   57.6792  H     
26   H        17.2323   26.1710   54.1302  H     
27   H        18.7491   26.4082   54.9961  H     
28   H        15.7425   24.1978   54.8553  H     
29   H        19.7522   22.1846   56.7044  H     
30   H        19.7759   24.4857   56.0490  H     
31   H        18.0546   31.0728   62.0057  H     
32   H        17.3715   29.8420   60.9178  H     
33   H        16.9027   31.5475   60.7360  H     
@<TRIPOS>BOND
     1    1    2 2
     2    2    3 2
     3    2   11 1
     4    2   22 1
     5    4    5 1
     6    4    8 1
     7    5    6 2
     8    5    9 1
     9    6    7 1
    10    6   12 1
    11    7    8 2
    12    9   10 2
    13    9   11 am
    14   12   13 1
    15   13   14 1
    16   14   15 2
    17   14   19 1
    18   15   16 1
    19   16   17 2
    20   16   21 1
    21   17   18 1
    22   17   20 1
    23   18   19 2
    24    7   23 1
    25    8   24 1
    26   11   25 1
    27   13   26 1
    28   13   27 1
    29   15   28 1
    30   18   29 1
    31   19   30 1
    32   22   31 1
    33   22   32 1
    34   22   33 1
@<TRIPOS>PROPERTY_DATA
  Total_Score	| 7.5573
  Crash		| -1.5489
  Polar		| 2.2348
  FragIndex	| 1
  FragRMSD	| 0.103

