@<TRIPOS>MOLECULE
BindingDB_50355652
 28 29 0 0 0
SMALL
NO_CHARGES


@<TRIPOS>ATOM
1    C        17.1601   30.3355   54.2085  C     
2    C        17.7299   31.2248   55.1353  C     
3    C        18.0675   30.7787   56.4243  C     
4    C        17.8640   29.4308   56.7972  C     
5    C        17.2726   28.5364   55.8641  C     
6    C        16.9127   29.0016   54.5789  C     
7    S        16.8222   26.9077   56.3094  S     
8    C        17.8990   26.0286   55.1512  C     
9    C        17.8695   24.5739   55.4487  C     
10   C        16.6793   23.8269   55.2790  C     
11   C        16.6150   22.4658   55.6425  C     
12   C        17.7636   21.8288   56.1669  C     
13   C        18.9619   22.5543   56.3016  C     
14   C        19.0155   23.9116   55.9440  C     
15   C        18.2559   29.0220   58.0885  C     
16   O        19.1862   28.0574   58.2403  O     
17   O        17.9492   29.7507   59.1777  O     
18   Cl       15.1414   21.6482   55.4415  Cl    
19   Cl       17.7585   20.2092   56.6647  Cl    
20   H        16.9020   30.6652   53.2750  H     
21   H        17.8907   32.2002   54.8793  H     
22   H        18.4778   31.4459   57.0836  H     
23   H        16.4532   28.3727   53.9118  H     
24   H        17.5774   26.2084   54.1230  H     
25   H        18.9046   26.4367   55.2632  H     
26   H        15.8430   24.2879   54.9093  H     
27   H        19.7995   22.1044   56.6781  H     
28   H        19.8948   24.4168   56.0710  H     
@<TRIPOS>BOND
     1    1    2 2
     2    1    6 1
     3    2    3 1
     4    3    4 2
     5    4    5 1
     6    4   15 1
     7    5    6 2
     8    5    7 1
     9    7    8 1
    10    8    9 1
    11    9   10 2
    12    9   14 1
    13   10   11 1
    14   11   12 2
    15   11   18 1
    16   12   13 1
    17   12   19 1
    18   13   14 2
    19   15   16 2
    20   15   17 1
    21    1   20 1
    22    2   21 1
    23    3   22 1
    24    6   23 1
    25    8   24 1
    26    8   25 1
    27   10   26 1
    28   13   27 1
    29   14   28 1
@<TRIPOS>PROPERTY_DATA
  Total_Score	| 8.4694
  Crash		| -1.5039
  Polar		| 2.7788
  FragIndex	| 1
  FragRMSD	| 0.815

