@<TRIPOS>MOLECULE
BindingDB_50355638
 40 42 0 0 0
SMALL
NO_CHARGES


@<TRIPOS>ATOM
1    O        19.8537   32.7314   59.7424  O     
2    S        19.2072   31.2788   59.7733  S     
3    O        20.3848   30.3112   60.2365  O     
4    S        17.9142   30.9891   55.3044  S     
5    C        17.9337   29.6544   56.3992  C     
6    C        17.3288   28.5781   55.7103  C     
7    C        16.9054   28.8869   54.3978  C     
8    C        17.1551   30.1982   53.9892  C     
9    C        18.4252   29.7492   57.6956  C     
10   O        18.4919   28.7440   58.4031  O     
11   N        18.7449   30.9317   58.1880  N     
12   S        16.9726   27.0110   56.3944  S     
13   C        17.6871   25.9806   55.0880  C     
14   C        17.7197   24.5511   55.4843  C     
15   C        16.5708   23.7351   55.3591  C     
16   C        16.6158   22.3657   55.6939  C     
17   C        17.8184   21.8029   56.1853  C     
18   C        18.9605   22.6145   56.3241  C     
19   C        18.9143   23.9704   55.9638  C     
20   Cl       17.9518   20.1679   56.6141  Cl    
21   Cl       15.2052   21.4450   55.4882  Cl    
22   C        17.8577   31.2627   60.8819  C     
23   C        17.5926   30.1098   61.6539  C     
24   C        16.4918   30.0757   62.5315  C     
25   C        15.6479   31.1941   62.6459  C     
26   C        15.9072   32.3488   61.8859  C     
27   C        17.0067   32.3831   61.0055  C     
28   H        16.4284   28.2137   53.7892  H     
29   H        16.9045   30.6254   53.0900  H     
30   H        18.6579   31.6970   57.6007  H     
31   H        17.0936   26.0889   54.1792  H     
32   H        18.6883   26.3513   54.8743  H     
33   H        15.6948   24.1419   55.0136  H     
34   H        19.8368   22.2260   56.6844  H     
35   H        19.7599   24.5358   56.0624  H     
36   H        18.1997   29.2906   61.5840  H     
37   H        16.3082   29.2404   63.0879  H     
38   H        14.8524   31.1688   63.2836  H     
39   H        15.3000   33.1637   61.9733  H     
40   H        17.1798   33.2300   60.4603  H     
@<TRIPOS>BOND
     1    1    2 2
     2    2    3 2
     3    2   11 1
     4    2   22 1
     5    4    5 1
     6    4    8 1
     7    5    6 2
     8    5    9 1
     9    6    7 1
    10    6   12 1
    11    7    8 2
    12    9   10 2
    13    9   11 am
    14   12   13 1
    15   13   14 1
    16   14   15 2
    17   14   19 1
    18   15   16 1
    19   16   17 2
    20   16   21 1
    21   17   18 1
    22   17   20 1
    23   18   19 2
    24   22   23 2
    25   22   27 1
    26   23   24 1
    27   24   25 2
    28   25   26 1
    29   26   27 2
    30    7   28 1
    31    8   29 1
    32   11   30 1
    33   13   31 1
    34   13   32 1
    35   15   33 1
    36   18   34 1
    37   19   35 1
    38   23   36 1
    39   24   37 1
    40   25   38 1
    41   26   39 1
    42   27   40 1
@<TRIPOS>PROPERTY_DATA
  Total_Score	| 8.2503
  Crash		| -1.8025
  Polar		| 2.2719
  FragIndex	| 1
  FragRMSD	| 0.105

