@<TRIPOS>MOLECULE
BindingDB_50355650
 37 38 0 0 0
SMALL
NO_CHARGES


@<TRIPOS>ATOM
1    C        17.6945   30.4043   54.1106  C     
2    C        18.2287   31.2014   55.1419  C     
3    C        18.3606   30.6879   56.4412  C     
4    C        17.9804   29.3628   56.7430  C     
5    C        17.3647   28.5843   55.7290  C     
6    C        17.2135   29.1100   54.4229  C     
7    S        16.7305   26.9906   56.0856  S     
8    C        17.8781   26.0313   55.0666  C     
9    C        17.8454   24.5868   55.4235  C     
10   C        16.6621   23.8242   55.2751  C     
11   C        16.6154   22.4629   55.6465  C     
12   C        17.7751   21.8413   56.1642  C     
13   C        18.9644   22.5855   56.2933  C     
14   C        18.9988   23.9367   55.9212  C     
15   C        18.2845   28.8565   58.0205  C     
16   O        19.5574   28.4667   58.2646  O     
17   O        17.6031   29.3167   59.0985  O     
18   Cl       15.1565   21.6145   55.4460  Cl    
19   Cl       17.8034   20.2177   56.6558  Cl    
20   C        17.7029   30.8613   52.8870  C     
21   C        17.7392   31.3029   51.7711  C     
22   C        17.7184   31.8133   50.5064  C     
23   C        19.0420   32.4991   50.0551  C     
24   O        20.1005   32.4807   51.0113  O     
25   H        18.5499   32.1562   54.9533  H     
26   H        18.7585   31.2855   57.1689  H     
27   H        16.7802   28.5372   53.6946  H     
28   H        17.6055   26.1507   54.0147  H     
29   H        18.8829   26.4441   55.2014  H     
30   H        15.8197   24.2695   54.9051  H     
31   H        19.8095   22.1433   56.6675  H     
32   H        19.8756   24.4477   56.0279  H     
33   H        17.4742   31.0052   49.8126  H     
34   H        16.9035   32.5331   50.4496  H     
35   H        19.4141   31.9975   49.1637  H     
36   H        18.8530   33.5396   49.7815  H     
37   H        19.8737   33.1753   51.6651  H     
@<TRIPOS>BOND
     1    1    2 2
     2    1    6 1
     3    1   20 1
     4    2    3 1
     5    3    4 2
     6    4    5 1
     7    4   15 1
     8    5    6 2
     9    5    7 1
    10    7    8 1
    11    8    9 1
    12    9   10 2
    13    9   14 1
    14   10   11 1
    15   11   12 2
    16   11   18 1
    17   12   13 1
    18   12   19 1
    19   13   14 2
    20   15   16 2
    21   15   17 1
    22   20   21 3
    23   21   22 1
    24   22   23 1
    25   23   24 1
    26    2   25 1
    27    3   26 1
    28    6   27 1
    29    8   28 1
    30    8   29 1
    31   10   30 1
    32   13   31 1
    33   14   32 1
    34   22   33 1
    35   22   34 1
    36   23   35 1
    37   23   36 1
    38   24   37 1
@<TRIPOS>PROPERTY_DATA
  Total_Score	| 9.2076
  Crash		| -3.3329
  Polar		| 4.2175
  FragIndex	| 1
  FragRMSD	| 0.762

