@<TRIPOS>MOLECULE
BindingDB_50355644
 28 29 0 0 0
SMALL
NO_CHARGES


@<TRIPOS>ATOM
1    C        17.8102   30.2275   54.0387  C     
2    C        18.1763   31.1636   55.0166  C     
3    C        18.2033   30.7929   56.3696  C     
4    C        17.8981   29.4693   56.7629  C     
5    C        17.4627   28.5397   55.7785  C     
6    C        17.4088   28.9364   54.4227  C     
7    S        16.8872   26.9459   56.2180  S     
8    C        17.8886   25.9611   55.0730  C     
9    C        17.8585   24.5261   55.4499  C     
10   C        16.6857   23.7556   55.2688  C     
11   C        16.6372   22.4008   55.6574  C     
12   C        17.7799   21.7988   56.2347  C     
13   C        18.9595   22.5501   56.3910  C     
14   C        19.0003   23.8979   55.9973  C     
15   C        18.1023   29.1084   58.1128  C     
16   O        17.8840   29.9860   59.1140  O     
17   O        18.9230   28.0744   58.4026  O     
18   Cl       15.1934   21.5450   55.4086  Cl    
19   Cl       17.7910   20.1879   56.7590  Cl    
20   Br       17.9327   30.6835   52.2402  Br    
21   H        18.4554   32.1073   54.7456  H     
22   H        18.5018   31.4884   57.0589  H     
23   H        17.0986   28.2844   53.7001  H     
24   H        17.5030   26.0727   54.0582  H     
25   H        18.9070   26.3529   55.0921  H     
26   H        15.8550   24.1900   54.8566  H     
27   H        19.7940   22.1248   56.8022  H     
28   H        19.8690   24.4200   56.1293  H     
@<TRIPOS>BOND
     1    1    2 2
     2    1    6 1
     3    1   20 1
     4    2    3 1
     5    3    4 2
     6    4    5 1
     7    4   15 1
     8    5    6 2
     9    5    7 1
    10    7    8 1
    11    8    9 1
    12    9   10 2
    13    9   14 1
    14   10   11 1
    15   11   12 2
    16   11   18 1
    17   12   13 1
    18   12   19 1
    19   13   14 2
    20   15   16 2
    21   15   17 1
    22    2   21 1
    23    3   22 1
    24    6   23 1
    25    8   24 1
    26    8   25 1
    27   10   26 1
    28   13   27 1
    29   14   28 1
@<TRIPOS>PROPERTY_DATA
  Total_Score	| 5.1940
  Crash		| -3.5435
  Polar		| 2.3765
  FragIndex	| 1
  FragRMSD	| 0.580

