@<TRIPOS>MOLECULE
BindingDB_50355648
 31 33 0 0 0
SMALL
NO_CHARGES


@<TRIPOS>ATOM
1    S        18.0034   31.0466   55.2536  S     
2    C        18.0022   29.7045   56.3349  C     
3    C        17.3025   28.6750   55.6783  C     
4    C        16.8345   29.0103   54.3904  C     
5    C        17.1413   30.3050   53.9709  C     
6    C        18.5864   29.7223   57.6192  C     
7    O        19.1560   30.8482   58.1004  O     
8    O        18.6244   28.6350   58.4192  O     
9    S        16.9003   27.1353   56.3925  S     
10   C        18.2075   26.1663   55.5891  C     
11   C        17.9968   24.7207   55.6946  C     
12   C        16.8027   24.1898   55.3390  C     
13   C        18.8516   22.5366   56.1709  C     
14   C        19.0254   23.8737   56.0690  C     
15   C        17.6030   21.9682   55.8964  C     
16   C        16.5486   22.8272   55.4760  C     
17   C        15.2663   22.3020   55.2029  C     
18   C        15.0365   20.9240   55.3150  C     
19   C        16.0754   20.0669   55.7087  C     
20   C        17.3546   20.5777   56.0058  C     
21   H        16.2904   28.3710   53.8107  H     
22   H        16.8772   30.7412   53.0862  H     
23   H        18.2490   26.4198   54.5287  H     
24   H        19.1485   26.4752   56.0493  H     
25   H        16.0800   24.7783   54.9897  H     
26   H        19.6240   21.9619   56.4256  H     
27   H        19.9349   24.2414   56.2320  H     
28   H        14.4964   22.9163   54.9263  H     
29   H        14.1098   20.5524   55.1000  H     
30   H        15.8979   19.0645   55.7681  H     
31   H        18.1017   19.9339   56.2798  H     
@<TRIPOS>BOND
     1    1    2 1
     2    1    5 1
     3    2    3 2
     4    2    6 1
     5    3    4 1
     6    3    9 1
     7    4    5 2
     8    6    7 2
     9    6    8 1
    10    9   10 1
    11   10   11 1
    12   11   12 2
    13   11   14 1
    14   12   16 1
    15   13   14 2
    16   13   15 1
    17   15   16 1
    18   15   20 2
    19   16   17 2
    20   17   18 1
    21   18   19 2
    22   19   20 1
    23    4   21 1
    24    5   22 1
    25   10   23 1
    26   10   24 1
    27   12   25 1
    28   13   26 1
    29   14   27 1
    30   17   28 1
    31   18   29 1
    32   19   30 1
    33   20   31 1
@<TRIPOS>PROPERTY_DATA
  Total_Score	| 6.8303
  Crash		| -2.8793
  Polar		| 1.4543
  FragIndex	| 1
  FragRMSD	| 0.307

