@<TRIPOS>MOLECULE
BindingDB_50355645
 31 32 0 0 0
SMALL
NO_CHARGES


@<TRIPOS>ATOM
1    S        17.8396   31.1857   55.4417  S     
2    C        18.1229   29.7777   56.3952  C     
3    C        17.6957   28.6654   55.6367  C     
4    C        17.2428   29.0126   54.3464  C     
5    C        17.2155   30.3818   54.0650  C     
6    C        18.6684   29.8565   57.6936  C     
7    O        19.0620   31.0473   58.1998  O     
8    O        18.8974   28.7607   58.4652  O     
9    S        17.7425   27.0308   56.2817  S     
10   C        17.5474   25.9215   54.8652  C     
11   C        17.5535   24.5029   55.3080  C     
12   C        16.4114   23.6917   55.1433  C     
13   C        16.3772   22.3383   55.5619  C     
14   C        17.5316   21.7656   56.1701  C     
15   C        18.6862   22.5709   56.3081  C     
16   C        18.6964   23.9161   55.8934  C     
17   C        15.1041   21.6080   55.3265  C     
18   C        17.5674   20.3511   56.6376  C     
19   H        16.9448   28.3328   53.6442  H     
20   H        16.8986   30.8213   53.1941  H     
21   H        16.6051   26.1821   54.3787  H     
22   H        18.3562   26.0933   54.1451  H     
23   H        15.5857   24.0953   54.7019  H     
24   H        19.5348   22.1782   56.7233  H     
25   H        19.5543   24.4576   56.0136  H     
26   H        14.2763   22.1542   55.8005  H     
27   H        15.1014   20.5953   55.7269  H     
28   H        14.9092   21.5472   54.2550  H     
29   H        16.8220   20.1977   57.4198  H     
30   H        18.5404   20.0647   57.0417  H     
31   H        17.3471   19.6809   55.7997  H     
@<TRIPOS>BOND
     1    1    2 1
     2    1    5 1
     3    2    3 2
     4    2    6 1
     5    3    4 1
     6    3    9 1
     7    4    5 2
     8    6    7 2
     9    6    8 1
    10    9   10 1
    11   10   11 1
    12   11   12 2
    13   11   16 1
    14   12   13 1
    15   13   14 2
    16   13   17 1
    17   14   15 1
    18   14   18 1
    19   15   16 2
    20    4   19 1
    21    5   20 1
    22   10   21 1
    23   10   22 1
    24   12   23 1
    25   15   24 1
    26   16   25 1
    27   17   26 1
    28   17   27 1
    29   17   28 1
    30   18   29 1
    31   18   30 1
    32   18   31 1
@<TRIPOS>PROPERTY_DATA
  Total_Score	| 8.4067
  Crash		| -1.2828
  Polar		| 1.5021
  FragIndex	| 1
  FragRMSD	| 0.343

