@<TRIPOS>MOLECULE
BindingDB_50355647
 25 26 0 0 0
SMALL
NO_CHARGES


@<TRIPOS>ATOM
1    S        17.8115   31.0508   55.3179  S     
2    C        18.0870   29.7068   56.3686  C     
3    C        17.6848   28.5514   55.6749  C     
4    C        17.2599   28.8017   54.3565  C     
5    C        17.2314   30.1614   53.9835  C     
6    C        18.6357   29.8690   57.6655  C     
7    O        19.0022   28.8257   58.4491  O     
8    O        18.9223   31.1037   58.1399  O     
9    S        17.6954   26.9435   56.3924  S     
10   C        17.5263   25.8123   54.9707  C     
11   C        17.5846   24.3822   55.4262  C     
12   C        18.7904   23.7991   55.8916  C     
13   C        18.8516   22.4459   56.2866  C     
14   C        17.6925   21.6405   56.2241  C     
15   C        16.4746   22.1997   55.7852  C     
16   C        16.4308   23.5528   55.3862  C     
17   H        16.9893   28.0526   53.7272  H     
18   H        16.9468   30.5993   53.1053  H     
19   H        16.5669   26.0178   54.4805  H     
20   H        18.3121   26.0453   54.2352  H     
21   H        19.6414   24.3480   55.9342  H     
22   H        19.7186   22.0378   56.6084  H     
23   H        17.7242   20.6592   56.5193  H     
24   H        15.6348   21.6257   55.7589  H     
25   H        15.5392   23.9235   55.0615  H     
@<TRIPOS>BOND
     1    1    2 1
     2    1    5 1
     3    2    3 2
     4    2    6 1
     5    3    4 1
     6    3    9 1
     7    4    5 2
     8    6    7 2
     9    6    8 1
    10    9   10 1
    11   10   11 1
    12   11   12 2
    13   11   16 1
    14   12   13 1
    15   13   14 2
    16   14   15 1
    17   15   16 2
    18    4   17 1
    19    5   18 1
    20   10   19 1
    21   10   20 1
    22   12   21 1
    23   13   22 1
    24   14   23 1
    25   15   24 1
    26   16   25 1
@<TRIPOS>PROPERTY_DATA
  Total_Score	| 5.9934
  Crash		| -0.7272
  Polar		| 1.4861
  FragIndex	| 1
  FragRMSD	| 0.861

