@<TRIPOS>MOLECULE
BindingDB_50355637
 27 28 0 0 0
SMALL
NO_CHARGES


@<TRIPOS>ATOM
1    O        16.2340   26.8233   57.0633  O     
2    S        17.4936   27.1016   56.1263  S     
3    O        18.8376   26.9343   56.9705  O     
4    S        17.9138   31.2375   55.3441  S     
5    C        18.0713   29.8319   56.3334  C     
6    C        17.5216   28.7540   55.5947  C     
7    C        17.0150   29.1307   54.3288  C     
8    C        17.1463   30.4829   54.0163  C     
9    C        18.6382   29.8815   57.6256  C     
10   O        19.0666   31.0632   58.1404  O     
11   O        18.7126   28.8176   58.4576  O     
12   C        17.5250   25.8498   54.8063  C     
13   C        17.6061   24.4567   55.3174  C     
14   C        16.4922   23.5838   55.2186  C     
15   C        16.5763   22.2432   55.6497  C     
16   C        17.7767   21.7609   56.2267  C     
17   C        18.8934   22.6135   56.3007  C     
18   C        18.8108   23.9410   55.8487  C     
19   Cl       17.9423   20.1868   56.8342  Cl    
20   Cl       15.2228   21.2447   55.4435  Cl    
21   H        16.5671   28.4795   53.6798  H     
22   H        16.8191   30.9437   53.1662  H     
23   H        16.6125   25.9827   54.2353  H     
24   H        18.3794   26.0511   54.1535  H     
25   H        15.6057   23.9183   54.8097  H     
26   H        19.7819   22.2778   56.6863  H     
27   H        19.6350   24.5197   55.9112  H     
@<TRIPOS>BOND
     1    1    2 2
     2    2    3 2
     3    2    6 1
     4    2   12 1
     5    4    5 1
     6    4    8 1
     7    5    6 2
     8    5    9 1
     9    6    7 1
    10    7    8 2
    11    9   10 2
    12    9   11 1
    13   12   13 1
    14   13   14 2
    15   13   18 1
    16   14   15 1
    17   15   16 2
    18   15   20 1
    19   16   17 1
    20   16   19 1
    21   17   18 2
    22    7   21 1
    23    8   22 1
    24   12   23 1
    25   12   24 1
    26   14   25 1
    27   17   26 1
    28   18   27 1
@<TRIPOS>PROPERTY_DATA
  Total_Score	| 6.3842
  Crash		| -2.0249
  Polar		| 1.4603
  FragIndex	| 1
  FragRMSD	| 0.291

