@<TRIPOS>MOLECULE
BindingDB_50355635
 25 26 0 0 0
SMALL
NO_CHARGES


@<TRIPOS>ATOM
1    S        17.9061   31.1584   55.3700  S     
2    C        18.0333   29.7759   56.3908  C     
3    C        17.4691   28.6904   55.6852  C     
4    C        16.9610   29.0456   54.4136  C     
5    C        17.1434   30.3791   54.0503  C     
6    C        18.6103   29.8457   57.6767  C     
7    O        18.7744   28.7697   58.4761  O     
8    O        18.9632   31.0398   58.2051  O     
9    S        17.3128   27.0904   56.3746  S     
10   C        17.5123   26.0282   54.9124  C     
11   C        17.5980   24.6080   55.3241  C     
12   C        16.5000   23.7393   55.1534  C     
13   C        16.5681   22.3971   55.5634  C     
14   C        17.7506   21.8997   56.1454  C     
15   C        18.8554   22.7475   56.3035  C     
16   C        18.7788   24.0920   55.9020  C     
17   Br       15.0718   21.3262   55.3092  Br    
18   Br       17.8920   20.1405   56.7201  Br    
19   H        16.4840   28.3966   53.7875  H     
20   H        16.8493   30.8225   53.1780  H     
21   H        16.6434   26.1824   54.2647  H     
22   H        18.4135   26.3067   54.3503  H     
23   H        15.6332   24.0850   54.7344  H     
24   H        19.7174   22.3918   56.7222  H     
25   H        19.5923   24.6944   56.0335  H     
@<TRIPOS>BOND
     1    1    2 1
     2    1    5 1
     3    2    3 2
     4    2    6 1
     5    3    4 1
     6    3    9 1
     7    4    5 2
     8    6    7 2
     9    6    8 1
    10    9   10 1
    11   10   11 1
    12   11   12 2
    13   11   16 1
    14   12   13 1
    15   13   14 2
    16   13   17 1
    17   14   15 1
    18   14   18 1
    19   15   16 2
    20    4   19 1
    21    5   20 1
    22   10   21 1
    23   10   22 1
    24   12   23 1
    25   15   24 1
    26   16   25 1
@<TRIPOS>PROPERTY_DATA
  Total_Score	| 5.9410
  Crash		| -1.9573
  Polar		| 1.5062
  FragIndex	| 1
  FragRMSD	| 0.842

