@<TRIPOS>MOLECULE
BindingDB_50355640
 25 26 0 0 0
SMALL
NO_CHARGES


@<TRIPOS>ATOM
1    S        17.9112   31.0241   55.3020  S     
2    C        18.0878   29.6527   56.3278  C     
3    C        17.4969   28.5589   55.6592  C     
4    C        16.9468   28.8959   54.4007  C     
5    C        17.1013   30.2281   54.0200  C     
6    C        18.7021   29.7443   57.5971  C     
7    O        18.8982   28.6808   58.4045  O     
8    O        19.0348   30.9466   58.1113  O     
9    S        17.3742   26.9670   56.3793  S     
10   C        17.4261   25.8578   54.9488  C     
11   C        17.5639   24.4513   55.4016  C     
12   C        18.7996   23.9755   55.9030  C     
13   C        18.9294   22.6482   56.3511  C     
14   C        17.8249   21.7769   56.3096  C     
15   C        16.5917   22.2340   55.8076  C     
16   C        16.4660   23.5581   55.3508  C     
17   Cl       17.9628   20.1977   56.8934  Cl    
18   H        16.4518   28.2374   53.8013  H     
19   H        16.7675   30.6644   53.1587  H     
20   H        16.4965   25.9833   54.3938  H     
21   H        18.2571   26.1214   54.2870  H     
22   H        19.6130   24.5928   55.9528  H     
23   H        19.8285   22.3257   56.7180  H     
24   H        15.7816   21.6101   55.7798  H     
25   H        15.5594   23.8716   54.9978  H     
@<TRIPOS>BOND
     1    1    2 1
     2    1    5 1
     3    2    3 2
     4    2    6 1
     5    3    4 1
     6    3    9 1
     7    4    5 2
     8    6    7 2
     9    6    8 1
    10    9   10 1
    11   10   11 1
    12   11   12 2
    13   11   16 1
    14   12   13 1
    15   13   14 2
    16   14   15 1
    17   14   17 1
    18   15   16 2
    19    4   18 1
    20    5   19 1
    21   10   20 1
    22   10   21 1
    23   12   22 1
    24   13   23 1
    25   15   24 1
    26   16   25 1
@<TRIPOS>PROPERTY_DATA
  Total_Score	| 6.2916
  Crash		| -1.0599
  Polar		| 1.4549
  FragIndex	| 1
  FragRMSD	| 0.810

