@<TRIPOS>MOLECULE
BindingDB_50355653
 25 26 0 0 0
SMALL
NO_CHARGES


@<TRIPOS>ATOM
1    S        17.9076   31.0273   55.2948  S     
2    C        18.0813   29.6921   56.3709  C     
3    C        17.5162   28.5674   55.7237  C     
4    C        16.9657   28.8677   54.4565  C     
5    C        17.1171   30.1890   54.0351  C     
6    C        18.6792   29.8177   57.6421  C     
7    O        18.8316   28.7868   58.4961  O     
8    O        19.0903   31.0268   58.0848  O     
9    S        17.4015   26.9757   56.4596  S     
10   C        17.5354   25.8740   55.0253  C     
11   C        17.6017   24.4482   55.4349  C     
12   C        16.4791   23.6006   55.2904  C     
13   C        16.5519   22.2292   55.6141  C     
14   C        17.7606   21.6917   56.0947  C     
15   C        18.8851   22.5214   56.2571  C     
16   C        18.8063   23.8888   55.9317  C     
17   Cl       15.2070   21.2303   55.3909  Cl    
18   H        16.4743   28.1966   53.8724  H     
19   H        16.7954   30.5910   53.1523  H     
20   H        16.6578   26.0278   54.3970  H     
21   H        18.4140   26.1373   54.4343  H     
22   H        15.5969   23.9756   54.9354  H     
23   H        17.8276   20.6964   56.3209  H     
24   H        19.7598   22.1269   56.6080  H     
25   H        19.6372   24.4720   56.0484  H     
@<TRIPOS>BOND
     1    1    2 1
     2    1    5 1
     3    2    3 2
     4    2    6 1
     5    3    4 1
     6    3    9 1
     7    4    5 2
     8    6    7 2
     9    6    8 1
    10    9   10 1
    11   10   11 1
    12   11   12 2
    13   11   16 1
    14   12   13 1
    15   13   14 2
    16   13   17 1
    17   14   15 1
    18   15   16 2
    19    4   18 1
    20    5   19 1
    21   10   20 1
    22   10   21 1
    23   12   22 1
    24   14   23 1
    25   15   24 1
    26   16   25 1
@<TRIPOS>PROPERTY_DATA
  Total_Score	| 6.3253
  Crash		| -0.9825
  Polar		| 1.5591
  FragIndex	| 1
  FragRMSD	| 0.811

