@<TRIPOS>MOLECULE
BindingDB_50355636
 25 26 0 0 0
SMALL
NO_CHARGES


@<TRIPOS>ATOM
1    Cl       15.1934   21.3081   55.4155  Cl    
2    Cl       17.9837   20.1620   56.5952  Cl    
3    S        17.3563   27.0085   56.5176  S     
4    S        17.8987   31.0084   55.2718  S     
5    O        19.0577   31.0807   58.0580  O     
6    O        18.8310   28.8299   58.5131  O     
7    C        17.4537   28.5771   55.7628  C     
8    C        18.0287   29.7039   56.3881  C     
9    C        17.5591   24.5224   55.4484  C     
10   C        18.6367   29.8589   57.6540  C     
11   C        16.9206   28.8400   54.4823  C     
12   C        16.5601   22.2873   55.6460  C     
13   C        17.4570   25.9472   55.0577  C     
14   C        17.7863   21.7825   56.1390  C     
15   C        16.4545   23.6531   55.3134  C     
16   C        17.1054   30.1421   54.0257  C     
17   C        18.7834   23.9982   55.9192  C     
18   C        18.8970   22.6402   56.2642  C     
19   H        16.4278   28.1446   53.9189  H     
20   H        16.5628   26.1054   54.4551  H     
21   H        18.3233   26.2200   54.4514  H     
22   H        15.5640   24.0158   54.9618  H     
23   H        16.8207   30.5277   53.1254  H     
24   H        19.6043   24.6033   56.0135  H     
25   H        19.7933   22.2875   56.6127  H     
@<TRIPOS>BOND
     1    1   12 1
     2    2   14 1
     3    3    7 1
     4    3   13 1
     5    4    8 1
     6    4   16 1
     7    5   10 2
     8    6   10 1
     9    7    8 2
    10    7   11 1
    11    8   10 1
    12    9   13 1
    13    9   15 1
    14    9   17 2
    15   11   16 2
    16   12   14 1
    17   12   15 2
    18   14   18 2
    19   17   18 1
    20   11   19 1
    21   13   20 1
    22   13   21 1
    23   15   22 1
    24   16   23 1
    25   17   24 1
    26   18   25 1
@<TRIPOS>PROPERTY_DATA
  Total_Score	| 6.8301
  Crash		| -1.2498
  Polar		| 1.5698
  FragIndex	| 1
  FragRMSD	| 0.191

