@<TRIPOS>MOLECULE
BindingDB_50355642
 42 44 0 0 0
SMALL
NO_CHARGES


@<TRIPOS>ATOM
1    O        19.7682   32.6763   59.7712  O     
2    S        19.1362   31.2242   59.7570  S     
3    O        20.3396   30.2782   60.1899  O     
4    S        17.9530   30.9408   55.2435  S     
5    C        17.9310   29.6313   56.3652  C     
6    C        17.3002   28.5595   55.6841  C     
7    C        16.8552   28.8533   54.3817  C     
8    C        17.1458   30.1446   53.9483  C     
9    C        18.4278   29.7168   57.6536  C     
10   O        18.3829   28.7298   58.4100  O     
11   N        18.7437   30.9039   58.1539  N     
12   S        16.9530   27.0041   56.3665  S     
13   C        17.7031   26.0006   55.0540  C     
14   C        17.7463   24.5555   55.4368  C     
15   C        16.5844   23.7600   55.3073  C     
16   C        16.5994   22.3887   55.6575  C     
17   C        17.7815   21.8151   56.1652  C     
18   C        18.9468   22.6005   56.2865  C     
19   C        18.9319   23.9578   55.9241  C     
20   Cl       17.8765   20.1866   56.6354  Cl    
21   Cl       15.1762   21.4808   55.4484  Cl    
22   C        17.7581   31.1676   60.8216  C     
23   C        16.8522   32.2575   60.8745  C     
24   C        15.7262   32.2060   61.7255  C     
25   C        15.4881   31.0661   62.5190  C     
26   C        16.3785   29.9800   62.4643  C     
27   C        17.5093   30.0334   61.6260  C     
28   N        16.1560   28.8814   63.2100  N     
29   H        16.3613   28.1848   53.7870  H     
30   H        16.9156   30.5589   53.0321  H     
31   H        18.6870   31.6734   57.5596  H     
32   H        17.1156   26.1296   54.1356  H     
33   H        18.7123   26.4037   54.8798  H     
34   H        15.7175   24.1815   54.9551  H     
35   H        19.8111   22.1894   56.6571  H     
36   H        19.7813   24.5115   56.0438  H     
37   H        17.0003   33.0903   60.3012  H     
38   H        15.0821   32.9955   61.7647  H     
39   H        14.6741   31.0333   63.1362  H     
40   H        18.1608   29.2370   61.5943  H     
41   H        16.7712   28.1222   63.1614  H     
42   H        15.3805   28.8328   63.7881  H     
@<TRIPOS>BOND
     1    1    2 2
     2    2    3 2
     3    2   11 1
     4    2   22 1
     5    4    5 1
     6    4    8 1
     7    5    6 2
     8    5    9 1
     9    6    7 1
    10    6   12 1
    11    7    8 2
    12    9   10 2
    13    9   11 am
    14   12   13 1
    15   13   14 1
    16   14   15 2
    17   14   19 1
    18   15   16 1
    19   16   17 2
    20   16   21 1
    21   17   18 1
    22   17   20 1
    23   18   19 2
    24   22   23 2
    25   22   27 1
    26   23   24 1
    27   24   25 2
    28   25   26 1
    29   26   27 2
    30   26   28 1
    31    7   29 1
    32    8   30 1
    33   11   31 1
    34   13   32 1
    35   13   33 1
    36   15   34 1
    37   18   35 1
    38   19   36 1
    39   23   37 1
    40   24   38 1
    41   25   39 1
    42   27   40 1
    43   28   41 1
    44   28   42 1
@<TRIPOS>PROPERTY_DATA
  Total_Score	| 8.6277
  Crash		| -2.0161
  Polar		| 2.2299
  FragIndex	| 1
  FragRMSD	| 0.106

