@<TRIPOS>MOLECULE
BindingDB_50280241
 26 26 0 0 0
SMALL
NO_CHARGES


@<TRIPOS>ATOM
1    P        54.1503    7.9295   27.3904  P     
2    C        54.9234    9.9621   28.7790  C     
3    C        55.7744   12.1439   27.9378  C     
4    C        54.7893   11.2230   28.0593  C     
5    C        56.0623    9.9959   29.8368  C     
6    C        55.5605   13.3119   27.2089  C     
7    O        55.2466    8.9591   27.7896  O     
8    C        57.3504   10.5498   29.1720  C     
9    C        57.0596   11.9823   28.6392  C     
10   O        53.6191    7.1330   28.5984  O     
11   O        52.9910    8.6314   26.6676  O     
12   O        54.7240    7.0128   26.4438  O     
13   O        56.4504   14.3321   27.2295  O     
14   O        54.5248   13.4381   26.3454  O     
15   N        58.4936   10.5524   30.0935  N     
16   O        56.2547    8.6946   30.3914  O     
17   H        53.9899    9.7730   29.3259  H     
18   H        53.9223   11.3651   27.5935  H     
19   H        55.7665   10.6634   30.6534  H     
20   H        57.6308    9.9106   28.3283  H     
21   H        57.8885   12.2586   27.9753  H     
22   H        57.0602   12.6793   29.4856  H     
23   H        58.2052   10.2108   31.0076  H     
24   H        58.8498   11.5024   30.1976  H     
25   H        59.2320    9.9456   29.7262  H     
26   H        56.8664    8.8121   31.1467  H     
@<TRIPOS>BOND
     1    1    7 1
     2    1   10 1
     3    1   11 1
     4    1   12 2
     5    2    4 1
     6    2    5 1
     7    2    7 1
     8    3    4 2
     9    3    6 1
    10    3    9 1
    11    5    8 1
    12    5   16 1
    13    6   13 1
    14    6   14 2
    15    8    9 1
    16    8   15 1
    17    2   17 1
    18    4   18 1
    19    5   19 1
    20    8   20 1
    21    9   21 1
    22    9   22 1
    23   15   23 1
    24   15   24 1
    25   15   25 1
    26   16   26 1
@<TRIPOS>PROPERTY_DATA
  Total_Score	| 15.6845
  Crash		| -1.3589
  Polar		| 14.8942
  FragIndex	| 1
  FragRMSD	| 0.880

