@<TRIPOS>MOLECULE
BindingDB_50281995
 22 22 0 0 0
SMALL
NO_CHARGES


@<TRIPOS>ATOM
1    P        53.9940    7.9961   27.7202  P     
2    C        56.0311   12.0734   27.9596  C     
3    C        55.6664   13.2505   27.2981  C     
4    C        55.1818   11.0219   28.0394  C     
5    O        54.4599    8.8668   28.9224  O     
6    O        55.1600    7.3922   26.9124  O     
7    O        53.2813    6.8895   28.3072  O     
8    O        54.5269   13.3471   26.5720  O     
9    C        55.5609    9.7790   28.7158  C     
10   O        56.4916   14.3235   27.2411  O     
11   O        52.9679    8.6784   26.7877  O     
12   C        57.3570   11.9258   28.5884  C     
13   C        57.2631   11.2755   30.0025  C     
14   C        56.1878   10.1435   30.1028  C     
15   H        54.2623   11.0908   27.6694  H     
16   H        56.3497    9.2833   28.1426  H     
17   H        57.9539   11.2835   27.9381  H     
18   H        57.8917   12.8770   28.6759  H     
19   H        58.2516   10.8731   30.2606  H     
20   H        57.0323   12.0565   30.7283  H     
21   H        55.3952   10.4653   30.7880  H     
22   H        56.6451    9.2435   30.5420  H     
@<TRIPOS>BOND
     1    1    5 1
     2    1    6 1
     3    1    7 2
     4    1   11 1
     5    2    3 1
     6    2    4 2
     7    2   12 1
     8    3    8 1
     9    3   10 2
    10    4    9 1
    11    5    9 1
    12    9   14 1
    13   12   13 1
    14   13   14 1
    15    4   15 1
    16    9   16 1
    17   12   17 1
    18   12   18 1
    19   13   19 1
    20   13   20 1
    21   14   21 1
    22   14   22 1
@<TRIPOS>PROPERTY_DATA
  Total_Score	| 11.6591
  Crash		| -0.6763
  Polar		| 8.9703
  FragIndex	| 1
  FragRMSD	| 1.382

