@<TRIPOS>MOLECULE
BindingDB_50281343
 29 29 0 0 0
SMALL
NO_CHARGES


@<TRIPOS>ATOM
1    C        55.0403    9.9845   28.8169  C     
2    C        55.9850   12.1168   27.9588  C     
3    P        54.1202    7.9395   27.5090  P     
4    C        54.9708   11.2329   28.0750  C     
5    C        56.1920    9.9797   29.8644  C     
6    O        55.2689    8.9384   27.8427  O     
7    C        55.7841   13.3204   27.2815  C     
8    C        57.5196   10.4376   29.1888  C     
9    C        57.2926   11.8617   28.5977  C     
10   C        60.0995    9.4610   31.6868  C     
11   O        53.5599    7.3261   28.6918  O     
12   O        58.6272   10.4897   30.1256  O     
13   O        54.6876   13.5429   26.5185  O     
14   O        61.0281   10.4449   31.7471  O     
15   O        52.9944    8.6087   26.7049  O     
16   O        54.7145    6.8097   26.6479  O     
17   C        59.3277    9.2622   30.4490  C     
18   O        56.2916    8.6944   30.4637  O     
19   O        56.7052   14.3104   27.2763  O     
20   O        60.1366    8.5137   32.6489  O     
21   H        54.1030    9.8707   29.3784  H     
22   H        54.1109   11.4007   27.5996  H     
23   H        55.9383   10.6811   30.6682  H     
24   H        57.7586    9.7516   28.3616  H     
25   H        58.0871   12.0338   27.8669  H     
26   H        57.4168   12.5938   29.4010  H     
27   H        60.0315    9.0176   29.6419  H     
28   H        58.6281    8.4268   30.5890  H     
29   H        56.8085    8.8445   31.2804  H     
@<TRIPOS>BOND
     1    1    4 1
     2    1    5 1
     3    1    6 1
     4    2    4 2
     5    2    7 1
     6    2    9 1
     7    3    6 1
     8    3   11 2
     9    3   15 1
    10    3   16 1
    11    5    8 1
    12    5   18 1
    13    7   13 2
    14    7   19 1
    15    8    9 1
    16    8   12 1
    17   10   14 2
    18   10   17 1
    19   10   20 1
    20   12   17 1
    21    1   21 1
    22    4   22 1
    23    5   23 1
    24    8   24 1
    25    9   25 1
    26    9   26 1
    27   17   27 1
    28   17   28 1
    29   18   29 1
@<TRIPOS>PROPERTY_DATA
  Total_Score	| 20.9194
  Crash		| -0.7742
  Polar		| 18.9742
  FragIndex	| 1
  FragRMSD	| 0.874

