@<TRIPOS>MOLECULE
BindingDB_50281345
 26 26 0 0 0
SMALL
NO_CHARGES


@<TRIPOS>ATOM
1    C        55.9599   12.1363   27.9451  C     
2    C        54.9546   11.2396   28.0809  C     
3    C        56.1983   10.0337   29.8956  C     
4    C        55.7518   13.3147   27.2230  C     
5    C        55.0447   10.0111   28.8545  C     
6    C        57.5073   10.4976   29.1956  C     
7    C        57.2590   11.9244   28.6148  C     
8    C        60.0630    9.4364   31.6546  C     
9    O        58.6304   10.5382   30.1100  O     
10   O        54.6679   13.4962   26.4307  O     
11   O        61.0119   10.3885   31.7899  O     
12   C        59.3415    9.3036   30.3785  C     
13   O        56.3220    8.7531   30.4962  O     
14   O        56.6639   14.3132   27.1989  O     
15   O        55.2245    8.9253   27.9420  O     
16   O        59.9629    8.5082   32.6298  O     
17   H        54.0941   11.3920   27.6064  H     
18   H        55.9375   10.7352   30.6965  H     
19   H        54.1016    9.8562   29.3857  H     
20   H        57.7295    9.8262   28.3540  H     
21   H        58.0689   12.1245   27.9082  H     
22   H        57.3363   12.6542   29.4253  H     
23   H        60.0770    9.1284   29.5844  H     
24   H        58.6561    8.4478   30.4368  H     
25   H        56.8378    8.9138   31.3056  H     
26   H        54.8536    8.1323   28.3849  H     
@<TRIPOS>BOND
     1    1    2 2
     2    1    4 1
     3    1    7 1
     4    2    5 1
     5    3    5 1
     6    3    6 1
     7    3   13 1
     8    4   10 2
     9    4   14 1
    10    5   15 1
    11    6    7 1
    12    6    9 1
    13    8   11 2
    14    8   12 1
    15    8   16 1
    16    9   12 1
    17    2   17 1
    18    3   18 1
    19    5   19 1
    20    6   20 1
    21    7   21 1
    22    7   22 1
    23   12   23 1
    24   12   24 1
    25   13   25 1
    26   15   26 1
@<TRIPOS>PROPERTY_DATA
  Total_Score	| 14.5474
  Crash		| -0.6624
  Polar		| 13.5237
  FragIndex	| 1
  FragRMSD	| 0.121

