@<TRIPOS>MOLECULE
BindingDB_50281998
 21 21 0 0 0
SMALL
NO_CHARGES


@<TRIPOS>ATOM
1    C        55.6625   13.3206   27.1873  C     
2    C        55.9097   12.1444   27.8917  C     
3    C        54.9149   11.2491   28.0861  C     
4    C        55.0625   10.0201   28.8459  C     
5    O        55.2650    8.9777   27.8923  O     
6    C        56.2298   10.0772   29.8703  C     
7    O        56.4052    8.7893   30.4609  O     
8    C        57.5115   10.5729   29.1537  C     
9    O        58.6158   10.7077   30.0482  O     
10   C        57.2422   11.9526   28.4877  C     
11   O        54.5958   13.4499   26.3652  O     
12   O        56.5358   14.3537   27.2112  O     
13   H        54.0180   11.4071   27.6815  H     
14   H        54.1325    9.8201   29.3878  H     
15   H        54.9062    8.1673   28.3110  H     
16   H        55.9810   10.7803   30.6719  H     
17   H        56.9102    8.9617   31.2824  H     
18   H        57.7945    9.8436   28.3883  H     
19   H        58.3476   10.2872   30.8896  H     
20   H        58.0061   12.0998   27.7188  H     
21   H        57.3772   12.7311   29.2454  H     
@<TRIPOS>BOND
     1    1    2 1
     2    1   11 2
     3    1   12 1
     4    2    3 2
     5    2   10 1
     6    3    4 1
     7    4    5 1
     8    4    6 1
     9    6    7 1
    10    6    8 1
    11    8    9 1
    12    8   10 1
    13    3   13 1
    14    4   14 1
    15    5   15 1
    16    6   16 1
    17    7   17 1
    18    8   18 1
    19    9   19 1
    20   10   20 1
    21   10   21 1
@<TRIPOS>PROPERTY_DATA
  Total_Score	| 10.2030
  Crash		| -0.5742
  Polar		| 9.4812
  FragIndex	| 1
  FragRMSD	| 0.105

