@<TRIPOS>MOLECULE
BindingDB_50280240
 35 35 0 0 0
SMALL
NO_CHARGES


@<TRIPOS>ATOM
1    C        59.4676    9.0701   30.1114  C     
2    P        60.5014    8.9454   28.7720  P     
3    P        54.0790    8.0170   27.4994  P     
4    C        54.9699   10.0701   28.8447  C     
5    O        58.6527   10.2838   29.9848  O     
6    C        56.0050   12.1414   27.9401  C     
7    C        57.4627   10.3753   29.1466  C     
8    C        54.9347   11.3295   28.1151  C     
9    C        60.2452    9.2580   31.3759  C     
10   C        56.1279   10.0590   29.8842  C     
11   C        55.8446   13.3408   27.2515  C     
12   O        55.2087    9.0267   27.8679  O     
13   C        57.3213   11.8111   28.5381  C     
14   O        60.8011    7.4982   28.3363  O     
15   O        59.9447    9.6276   27.5042  O     
16   O        61.7984    9.5446   28.9800  O     
17   O        54.7324    6.9047   26.6426  O     
18   O        53.4805    7.3160   28.7402  O     
19   O        53.0523    8.6267   26.6892  O     
20   O        60.7740   10.4805   31.6771  O     
21   O        56.7794   14.3140   27.2812  O     
22   O        60.0544    8.4890   32.4882  O     
23   O        54.8169   13.5314   26.3907  O     
24   C        58.6647    7.7275   30.2268  C     
25   O        56.1226    8.8219   30.5651  O     
26   H        54.0280    9.9517   29.3992  H     
27   H        57.5668    9.6909   28.3060  H     
28   H        54.0538   11.5750   27.7236  H     
29   H        55.9409   10.8286   30.6412  H     
30   H        58.1029   11.9249   27.7810  H     
31   H        57.5252   12.5371   29.3347  H     
32   H        58.0315    7.5624   29.3546  H     
33   H        58.0302    7.7303   31.1097  H     
34   H        59.3316    6.8684   30.3207  H     
35   H        56.6528    8.9840   31.3618  H     
@<TRIPOS>BOND
     1    1    2 1
     2    1    5 1
     3    1    9 1
     4    1   24 1
     5    2   14 1
     6    2   15 1
     7    2   16 2
     8    3   12 1
     9    3   17 1
    10    3   18 1
    11    3   19 2
    12    4    8 1
    13    4   10 1
    14    4   12 1
    15    7    5 1
    16    6    8 2
    17    6   11 1
    18    6   13 1
    19    7   10 1
    20    7   13 1
    21    9   20 1
    22    9   22 2
    23   10   25 1
    24   11   21 1
    25   11   23 2
    26    4   26 1
    27    7   27 1
    28    8   28 1
    29   10   29 1
    30   13   30 1
    31   13   31 1
    32   24   32 1
    33   24   33 1
    34   24   34 1
    35   25   35 1
@<TRIPOS>PROPERTY_DATA
  Total_Score	| 20.9302
  Crash		| -1.7985
  Polar		| 19.2327
  FragIndex	| 1
  FragRMSD	| 0.177

