@<TRIPOS>MOLECULE
BindingDB_50281988
 24 24 0 0 0
SMALL
NO_CHARGES


@<TRIPOS>ATOM
1    C        54.9950    9.9951   28.8547  C     
2    P        54.1317    7.9631   27.4934  P     
3    C        55.8487   12.1313   27.9211  C     
4    C        54.8391   11.2603   28.1516  C     
5    C        56.1795   10.0349   29.8618  C     
6    O        55.2562    8.9799   27.8544  O     
7    C        55.6114   13.3120   27.2210  C     
8    C        57.4598   10.5307   29.1396  C     
9    C        57.2007   11.9033   28.4558  C     
10   O        54.7570    6.8593   26.6190  O     
11   O        53.5757    7.3247   28.6596  O     
12   O        56.5400   14.2883   27.1446  O     
13   O        52.9991    8.6165   26.6839  O     
14   O        56.3674    8.7352   30.4196  O     
15   O        54.5318   13.4623   26.4241  O     
16   O        58.5799   10.6619   30.0140  O     
17   H        54.0886    9.8084   29.4458  H     
18   H        53.9273   11.4565   27.8025  H     
19   H        55.9357   10.7211   30.6806  H     
20   H        57.7312    9.7970   28.3764  H     
21   H        57.9266   11.9989   27.6396  H     
22   H        57.4069   12.6976   29.1822  H     
23   H        56.9183    8.8658   31.2164  H     
24   H        58.2308   10.7104   30.9262  H     
@<TRIPOS>BOND
     1    1    4 1
     2    1    5 1
     3    1    6 1
     4    2    6 1
     5    2   10 1
     6    2   11 2
     7    2   13 1
     8    3    4 2
     9    3    7 1
    10    3    9 1
    11    5    8 1
    12    5   14 1
    13    7   12 2
    14    7   15 1
    15    8    9 1
    16    8   16 1
    17    1   17 1
    18    4   18 1
    19    5   19 1
    20    8   20 1
    21    9   21 1
    22    9   22 1
    23   14   23 1
    24   16   24 1
@<TRIPOS>PROPERTY_DATA
  Total_Score	| 16.6166
  Crash		| -0.4460
  Polar		| 14.9433
  FragIndex	| 1
  FragRMSD	| 1.186

