@<TRIPOS>MOLECULE
BindingDB_50281990
 30 30 0 0 0
SMALL
NO_CHARGES


@<TRIPOS>ATOM
1    C        55.0293   10.0068   28.8236  C     
2    P        54.1293    7.9850   27.4684  P     
3    C        56.0300   12.1176   27.9753  C     
4    C        54.9743   11.2837   28.1252  C     
5    C        57.5164   10.3633   29.1490  C     
6    C        56.1898    9.9635   29.8603  C     
7    C        59.2382    9.1933   30.5023  C     
8    C        55.8723   13.3206   27.2840  C     
9    O        55.2633    8.9898   27.8204  O     
10   O        58.7099   10.3248   29.9705  O     
11   C        60.0103    9.3778   31.6417  C     
12   C        57.3371   11.8102   28.5889  C     
13   O        53.0070    8.6337   26.6428  O     
14   O        54.7032    6.9649   26.6318  O     
15   O        56.8192   14.2864   27.3037  O     
16   O        60.0404    8.5176   32.6906  O     
17   O        54.8325   13.5293   26.4427  O     
18   O        60.8346   10.4461   31.7110  O     
19   C        59.1288    7.9826   29.9249  C     
20   O        53.5568    7.2803   28.7119  O     
21   O        56.2370    8.6705   30.4540  O     
22   H        54.0942    9.8725   29.3839  H     
23   H        54.1002   11.5102   27.7051  H     
24   H        57.6790    9.7048   28.2910  H     
25   H        55.9810   10.6775   30.6652  H     
26   H        58.1281   11.9722   27.8495  H     
27   H        57.4971   12.5219   29.4047  H     
28   H        59.5516    7.1748   30.3197  H     
29   H        58.6303    7.8655   29.0780  H     
30   H        56.7856    8.7794   31.2572  H     
@<TRIPOS>BOND
     1    1    4 1
     2    1    6 1
     3    1    9 1
     4    2    9 1
     5    2   13 1
     6    2   14 2
     7    2   20 1
     8    3    4 2
     9    3    8 1
    10    3   12 1
    11    5    6 1
    12    5   10 1
    13    5   12 1
    14    6   21 1
    15    7   10 1
    16    7   11 1
    17    7   19 2
    18    8   15 1
    19    8   17 2
    20   11   16 1
    21   11   18 2
    22    1   22 1
    23    4   23 1
    24    5   24 1
    25    6   25 1
    26   12   26 1
    27   12   27 1
    28   19   28 1
    29   19   29 1
    30   21   30 1
@<TRIPOS>PROPERTY_DATA
  Total_Score	| 21.3782
  Crash		| -0.7257
  Polar		| 19.1694
  FragIndex	| 1
  FragRMSD	| 0.866

