@<TRIPOS>MOLECULE
BindingDB_50283578
 29 29 0 0 0
SMALL
NO_CHARGES


@<TRIPOS>ATOM
1    C        55.0288    9.8920   28.7624  C     
2    P        54.1372    7.9278   27.3603  P     
3    C        55.9263   12.0679   28.0052  C     
4    C        54.9102   11.1890   28.1367  C     
5    C        56.2142    9.8031   29.7617  C     
6    C        55.7055   13.2758   27.3411  C     
7    O        55.2572    8.9430   27.7022  O     
8    C        57.5208   10.3572   29.1177  C     
9    C        57.2628   11.8016   28.5999  C     
10   C        60.0291    9.3595   31.6587  C     
11   O        53.0084    8.6007   26.5696  O     
12   O        54.7026    6.9177   26.5020  O     
13   O        58.6341   10.3895   30.0428  O     
14   O        56.6315   14.2668   27.3157  O     
15   O        54.6130   13.4607   26.5556  O     
16   O        60.8697   10.4169   31.7481  O     
17   O        59.9574    8.4996   32.7077  O     
18   O        53.5808    7.2352   28.6176  O     
19   C        59.2261    9.1381   30.4467  C     
20   O        55.8712   10.5498   30.9278  O     
21   H        54.1047    9.7093   29.3299  H     
22   H        54.0284   11.3870   27.7154  H     
23   H        56.3477    8.7588   30.0610  H     
24   H        57.7830    9.7383   28.2533  H     
25   H        58.0307   12.0154   27.8471  H     
26   H        57.4042   12.5073   29.4239  H     
27   H        59.8806    8.7597   29.6534  H     
28   H        58.4462    8.3976   30.6556  H     
29   H        56.6784   10.5458   31.4767  H     
@<TRIPOS>BOND
     1    1    4 1
     2    1    5 1
     3    1    7 1
     4    2    7 1
     5    2   11 1
     6    2   12 2
     7    2   18 1
     8    3    4 2
     9    3    6 1
    10    3    9 1
    11    5    8 1
    12    5   20 1
    13    6   14 1
    14    6   15 2
    15    8    9 1
    16    8   13 1
    17   10   16 1
    18   10   17 2
    19   10   19 1
    20   13   19 1
    21    1   21 1
    22    4   22 1
    23    5   23 1
    24    8   24 1
    25    9   25 1
    26    9   26 1
    27   19   27 1
    28   19   28 1
    29   20   29 1
@<TRIPOS>PROPERTY_DATA
  Total_Score	| 19.5555
  Crash		| -0.7924
  Polar		| 17.8508
  FragIndex	| 1
  FragRMSD	| 0.990

