@<TRIPOS>MOLECULE
BindingDB_50280242
 24 24 0 0 0
SMALL
NO_CHARGES


@<TRIPOS>ATOM
1    P        54.1090    7.9019   27.4955  P     
2    C        55.0113    9.9539   28.7879  C     
3    C        55.8515   12.1165   27.8832  C     
4    C        54.8856   11.1808   28.0139  C     
5    C        56.1722   10.0215   29.8213  C     
6    C        55.6016   13.2777   27.1551  C     
7    O        55.2632    8.8849   27.8440  O     
8    C        57.4522   10.5595   29.1352  C     
9    C        57.1679   11.9594   28.5312  C     
10   O        53.0041    8.5665   26.6490  O     
11   O        54.7038    6.7448   26.6824  O     
12   O        53.5204    7.3183   28.6698  O     
13   O        56.5090   14.2816   27.0948  O     
14   O        54.5002   13.4247   26.3898  O     
15   O        56.3932    8.7465   30.4196  O     
16   O        58.5589   10.6034   30.0392  O     
17   H        54.0907    9.8240   29.3747  H     
18   H        54.0265   11.2845   27.5276  H     
19   H        55.8943   10.7146   30.6237  H     
20   H        57.7439    9.8766   28.3284  H     
21   H        57.9606   12.1641   27.8016  H     
22   H        57.2456   12.7075   29.3268  H     
23   H        56.9243    8.9266   31.2290  H     
24   H        58.1752   10.7565   30.9313  H     
@<TRIPOS>BOND
     1    1    7 1
     2    1   10 1
     3    1   11 1
     4    1   12 2
     5    2    4 1
     6    2    5 1
     7    2    7 1
     8    3    4 2
     9    3    6 1
    10    3    9 1
    11    5    8 1
    12    5   15 1
    13    6   13 1
    14    6   14 2
    15    8    9 1
    16    8   16 1
    17    2   17 1
    18    4   18 1
    19    5   19 1
    20    8   20 1
    21    9   21 1
    22    9   22 1
    23   15   23 1
    24   16   24 1
@<TRIPOS>PROPERTY_DATA
  Total_Score	| 16.3893
  Crash		| -0.4900
  Polar		| 14.6373
  FragIndex	| 1
  FragRMSD	| 0.868

