@<TRIPOS>MOLECULE
BindingDB_50281993
 29 29 0 0 0
SMALL
NO_CHARGES


@<TRIPOS>ATOM
1    C        55.0092    9.9742   28.8136  C     
2    P        54.1225    7.9241   27.4987  P     
3    C        55.9345   12.1017   27.9172  C     
4    C        54.9218   11.2191   28.0630  C     
5    C        56.1653    9.9942   29.8501  C     
6    C        55.7418   13.2922   27.2292  C     
7    O        55.2617    8.9265   27.8487  O     
8    C        57.4837   10.4425   29.1507  C     
9    C        57.2463   11.8563   28.5473  C     
10   C        60.0568    9.4367   31.6310  C     
11   O        54.7291    6.8039   26.6346  O     
12   O        53.5816    7.3008   28.6811  O     
13   O        58.6039   10.5104   30.0709  O     
14   O        56.6556   14.2925   27.2572  O     
15   O        54.6743   13.4957   26.4275  O     
16   O        60.9694   10.4265   31.7659  O     
17   O        59.9868    8.4878   32.6045  O     
18   O        52.9940    8.5923   26.6930  O     
19   C        59.3240    9.2849   30.3580  C     
20   O        56.3078    8.7247   30.4707  O     
21   H        54.0750    9.8419   29.3798  H     
22   H        54.0526   11.3892   27.6001  H     
23   H        55.9202   10.7164   30.6391  H     
24   H        57.7145    9.7510   28.3281  H     
25   H        58.0385   12.0192   27.8080  H     
26   H        57.3734   12.5925   29.3436  H     
27   H        60.0613    9.1110   29.5639  H     
28   H        58.6475    8.4223   30.4156  H     
29   H        56.8161    8.9040   31.2961  H     
@<TRIPOS>BOND
     1    1    4 1
     2    1    5 1
     3    1    7 1
     4    2    7 1
     5    2   11 1
     6    2   12 2
     7    2   18 1
     8    3    4 2
     9    3    6 1
    10    3    9 1
    11    5    8 1
    12    5   20 1
    13    6   14 1
    14    6   15 2
    15    8    9 1
    16    8   13 1
    17   10   16 1
    18   10   17 2
    19   10   19 1
    20   13   19 1
    21    1   21 1
    22    4   22 1
    23    5   23 1
    24    8   24 1
    25    9   25 1
    26    9   26 1
    27   19   27 1
    28   19   28 1
    29   20   29 1
@<TRIPOS>PROPERTY_DATA
  Total_Score	| 20.8902
  Crash		| -0.7371
  Polar		| 19.0699
  FragIndex	| 1
  FragRMSD	| 0.871

