@<TRIPOS>MOLECULE
BindingDB_50280239
 37 37 0 0 0
SMALL
NO_CHARGES


@<TRIPOS>ATOM
1    N        58.8468    9.9938   29.1929  N     
2    P        60.6159    9.2759   31.1284  P     
3    C        54.8058   10.2691   29.4666  C     
4    C        57.3686   10.2195   28.8685  C     
5    P        54.0129    8.3085   27.8717  P     
6    C        55.7950   12.0718   28.0700  C     
7    C        56.2529    9.8398   29.9041  C     
8    C        54.7310   11.3599   28.5008  C     
9    C        59.2354    8.9736   30.2401  C     
10   C        57.1445   11.7384   28.5421  C     
11   C        55.6068   13.1961   27.2652  C     
12   O        53.9070    9.1689   29.1662  O     
13   C        59.7048    9.8960   27.9413  C     
14   C        59.6950    8.6409   27.1645  C     
15   O        60.8701    8.1158   32.1094  O     
16   O        61.9067    9.5355   30.3263  O     
17   O        55.4415    8.0093   27.3668  O     
18   O        53.4662    6.9559   28.3537  O     
19   O        60.4146   10.4376   31.9534  O     
20   O        53.0549    8.7551   26.8916  O     
21   O        56.5496   14.1618   27.1583  O     
22   O        58.5296    8.0114   26.9174  O     
23   O        54.4995   13.3479   26.5027  O     
24   O        60.6757    8.4563   26.2491  O     
25   O        56.1878    8.4468   30.1815  O     
26   H        59.1110   10.8769   29.6276  H     
27   H        54.3491   10.6861   30.3675  H     
28   H        57.1277    9.6593   27.9693  H     
29   H        56.4961   10.3443   30.8429  H     
30   H        53.8132   11.6276   28.2191  H     
31   H        58.4714    8.9200   31.0118  H     
32   H        59.3194    7.9768   29.7992  H     
33   H        57.3485   12.3338   29.4375  H     
34   H        57.8665   12.0471   27.7852  H     
35   H        59.4565   10.6874   27.2376  H     
36   H        60.7413   10.0818   28.2063  H     
37   H        57.0854    8.0913   30.0539  H     
@<TRIPOS>BOND
     1    4    1 1
     2    1    9 1
     3    1   13 1
     4    2    9 1
     5    2   15 1
     6    2   16 1
     7    2   19 2
     8    3    7 1
     9    3    8 1
    10    3   12 1
    11    4    7 1
    12    4   10 1
    13    5   12 1
    14    5   17 1
    15    5   18 1
    16    5   20 2
    17    6    8 2
    18    6   10 1
    19    6   11 1
    20    7   25 1
    21   11   21 1
    22   11   23 2
    23   13   14 1
    24   14   22 1
    25   14   24 2
    26    1   26 1
    27    3   27 1
    28    4   28 1
    29    7   29 1
    30    8   30 1
    31    9   31 1
    32    9   32 1
    33   10   33 1
    34   10   34 1
    35   13   35 1
    36   13   36 1
    37   25   37 1
@<TRIPOS>PROPERTY_DATA
  Total_Score	| 15.5427
  Crash		| -4.9728
  Polar		| 17.6977
  FragIndex	| 1
  FragRMSD	| 0.738

