@<TRIPOS>MOLECULE
BindingDB_50281341
 30 30 0 0 0
SMALL
NO_CHARGES


@<TRIPOS>ATOM
1    C        55.0359    9.9913   28.8390  C     
2    C        55.9923   12.1161   27.9910  C     
3    P        54.1660    7.9861   27.4366  P     
4    C        54.9513   11.2695   28.1567  C     
5    C        57.5306   10.3789   29.1533  C     
6    C        56.2068    9.9670   29.8707  C     
7    C        59.2191    9.2190   30.5407  C     
8    O        55.2975    8.9865   27.8253  O     
9    O        58.7198   10.3578   29.9817  O     
10   C        55.8056   13.3061   27.2878  C     
11   C        57.3159   11.8203   28.5790  C     
12   C        60.0118    9.3921   31.6687  C     
13   O        54.7375    7.0584   26.5013  O     
14   O        54.7683   13.4773   26.4324  O     
15   O        60.1267    8.4851   32.6767  O     
16   C        59.0581    7.9944   30.0042  C     
17   O        53.6609    7.1643   28.6387  O     
18   O        52.9849    8.6529   26.7178  O     
19   O        56.2790    8.6812   30.4795  O     
20   O        56.7235   14.2961   27.3015  O     
21   O        60.8392   10.4582   31.7356  O     
22   H        54.1061    9.8244   29.4020  H     
23   H        54.0712   11.4908   27.7563  H     
24   H        57.7171    9.7028   28.3073  H     
25   H        55.9972   10.6818   30.6678  H     
26   H        58.0868   11.9795   27.8137  H     
27   H        57.4904   12.5562   29.3733  H     
28   H        59.4545    7.1797   30.4249  H     
29   H        58.5314    7.8747   29.1714  H     
30   H        56.8218    8.8048   31.2881  H     
@<TRIPOS>BOND
     1    1    4 1
     2    1    6 1
     3    1    8 1
     4    2    4 2
     5    2   10 1
     6    2   11 1
     7    3    8 1
     8    3   13 2
     9    3   17 1
    10    3   18 1
    11    5    6 1
    12    5    9 1
    13    5   11 1
    14    6   19 1
    15    7    9 1
    16    7   12 1
    17    7   16 2
    18   10   14 2
    19   10   20 1
    20   12   15 2
    21   12   21 1
    22    1   22 1
    23    4   23 1
    24    5   24 1
    25    6   25 1
    26   11   26 1
    27   11   27 1
    28   16   28 1
    29   16   29 1
    30   19   30 1
@<TRIPOS>PROPERTY_DATA
  Total_Score	| 21.5816
  Crash		| -0.7750
  Polar		| 19.3080
  FragIndex	| 1
  FragRMSD	| 0.863

