@<TRIPOS>MOLECULE
BindingDB_50351178
 40 42 0 0 0
SMALL
NO_CHARGES


@<TRIPOS>ATOM
1    C         4.0730  -32.1024   -5.3758  C     
2    C         5.3583  -32.0737   -6.0110  C     
3    C         6.2036  -30.9678   -5.7191  C     
4    C         3.6701  -31.0202   -4.5525  C     
5    C         4.4997  -29.9071   -4.3315  C     
6    C         5.7873  -29.8986   -4.9114  C     
7    N         6.6133  -28.8291   -4.7149  N     
8    C         6.2363  -27.7529   -3.9888  C     
9    N         5.0012  -27.7347   -3.4245  N     
10   C         4.1296  -28.7666   -3.5599  C     
11   N         2.9269  -28.6501   -2.9712  N     
12   N         7.0877  -26.7312   -3.8374  N     
13   C         5.8417  -33.0244   -6.9934  C     
14   C         6.5411  -32.5302   -8.1249  C     
15   C         7.1158  -33.3811   -9.0865  C     
16   C         6.9832  -34.7703   -8.9575  C     
17   C         6.2717  -35.2969   -7.8780  C     
18   C         5.7194  -34.4429   -6.8925  C     
19   Cl        7.9580  -32.7385  -10.4041  Cl    
20   O         5.0325  -35.0097   -5.8645  O     
21   C         5.7702  -35.4965   -4.7230  C     
22   C         7.1842  -34.8847   -4.5142  C     
23   C         3.1386  -33.2536   -5.4410  C     
24   H         7.1519  -30.9157   -6.1077  H     
25   H         2.7603  -31.0452   -4.0904  H     
26   H         2.6914  -27.8339   -2.5030  H     
27   H         2.2693  -29.3519   -3.0537  H     
28   H         6.8328  -25.9636   -3.3004  H     
29   H         7.9686  -26.7605   -4.2564  H     
30   H         6.6290  -31.5269   -8.2699  H     
31   H         7.3976  -35.3994   -9.6498  H     
32   H         6.1719  -36.3096   -7.7975  H     
33   H         5.1641  -35.2664   -3.8472  H     
34   H         5.8522  -36.5840   -4.7892  H     
35   H         7.8471  -35.2268   -5.3055  H     
36   H         7.5974  -35.2079   -3.5513  H     
37   H         7.1418  -33.7902   -4.5353  H     
38   H         3.0953  -33.6641   -6.4468  H     
39   H         2.1146  -32.9952   -5.1550  H     
40   H         3.5045  -33.9961   -4.7230  H     
@<TRIPOS>BOND
     1    1    2 2
     2    1    4 1
     3    1   23 1
     4    2    3 1
     5    2   13 1
     6    3    6 2
     7    4    5 2
     8    5    6 1
     9    5   10 1
    10    6    7 1
    11    7    8 2
    12    8    9 1
    13    8   12 1
    14    9   10 2
    15   10   11 1
    16   13   14 2
    17   13   18 1
    18   14   15 1
    19   15   16 2
    20   15   19 1
    21   16   17 1
    22   17   18 2
    23   18   20 1
    24   20   21 1
    25   21   22 1
    26    3   24 1
    27    4   25 1
    28   11   26 1
    29   11   27 1
    30   12   28 1
    31   12   29 1
    32   14   30 1
    33   16   31 1
    34   17   32 1
    35   21   33 1
    36   21   34 1
    37   22   35 1
    38   22   36 1
    39   22   37 1
    40   23   38 1
    41   23   39 1
    42   23   40 1
@<TRIPOS>PROPERTY_DATA
  Total_Score	| 6.3223
  Crash		| -1.4837
  Polar		| 2.4404
  FragIndex	| 1
  FragRMSD	| 0.660

