@<TRIPOS>MOLECULE
BindingDB_50351186
 41 43 0 0 0
SMALL
NO_CHARGES


@<TRIPOS>ATOM
1    C         4.2767  -32.2308   -5.2302  C     
2    C         5.5964  -32.1926   -5.7718  C     
3    C         6.3657  -31.0128   -5.6385  C     
4    C         3.7831  -31.0996   -4.5430  C     
5    C         4.5625  -29.9332   -4.3717  C     
6    C         5.8616  -29.9007   -4.9471  C     
7    N         6.6226  -28.7809   -4.8013  N     
8    C         6.2009  -27.6901   -4.1259  C     
9    N         4.9653  -27.6970   -3.5548  N     
10   C         4.1430  -28.7764   -3.6470  C     
11   N         2.9499  -28.6949   -3.0299  N     
12   N         7.0053  -26.6200   -4.0215  N     
13   C         6.2028  -33.3217   -6.4013  C     
14   C         6.4462  -34.4857   -5.6226  C     
15   C         6.9197  -35.6780   -6.2068  C     
16   C         7.2037  -35.7178   -7.5768  C     
17   C         6.9661  -34.5680   -8.3649  C     
18   C         6.5218  -33.3608   -7.7838  C     
19   O         6.3138  -32.2285   -8.5524  O     
20   C         6.9949  -32.1478   -9.8277  C     
21   O         7.1011  -36.8039   -5.4562  O     
22   C         5.9008  -37.5912   -5.3579  C     
23   C         3.3925  -33.4231   -5.3949  C     
24   H         7.3102  -30.9572   -6.0320  H     
25   H         2.8434  -31.1299   -4.1384  H     
26   H         2.7075  -27.8936   -2.5472  H     
27   H         2.3356  -29.4380   -3.0650  H     
28   H         6.7246  -25.8444   -3.5084  H     
29   H         7.8828  -26.6254   -4.4486  H     
30   H         6.2412  -34.4965   -4.6219  H     
31   H         7.5600  -36.5642   -8.0225  H     
32   H         7.1329  -34.6706   -9.3696  H     
33   H         8.0380  -32.4987   -9.7673  H     
34   H         7.0103  -31.1119  -10.1662  H     
35   H         6.4609  -32.6944  -10.6117  H     
36   H         5.1141  -37.0585   -4.8159  H     
37   H         6.1371  -38.4979   -4.8035  H     
38   H         5.5265  -37.8865   -6.3424  H     
39   H         3.3527  -33.7104   -6.4473  H     
40   H         2.3707  -33.2420   -5.0615  H     
41   H         3.7868  -34.2537   -4.8136  H     
@<TRIPOS>BOND
     1    1    2 2
     2    1    4 1
     3    1   23 1
     4    2    3 1
     5    2   13 1
     6    3    6 2
     7    4    5 2
     8    5    6 1
     9    5   10 1
    10    6    7 1
    11    7    8 2
    12    8    9 1
    13    8   12 1
    14    9   10 2
    15   10   11 1
    16   13   14 2
    17   13   18 1
    18   14   15 1
    19   15   16 2
    20   15   21 1
    21   16   17 1
    22   17   18 2
    23   18   19 1
    24   19   20 1
    25   21   22 1
    26    3   24 1
    27    4   25 1
    28   11   26 1
    29   11   27 1
    30   12   28 1
    31   12   29 1
    32   14   30 1
    33   16   31 1
    34   17   32 1
    35   20   33 1
    36   20   34 1
    37   20   35 1
    38   22   36 1
    39   22   37 1
    40   22   38 1
    41   23   39 1
    42   23   40 1
    43   23   41 1
@<TRIPOS>PROPERTY_DATA
  Total_Score	| 5.8687
  Crash		| -1.7755
  Polar		| 2.5718
  FragIndex	| 1
  FragRMSD	| 0.675

