@<TRIPOS>MOLECULE
BindingDB_50351189
 39 41 0 0 0
SMALL
NO_CHARGES


@<TRIPOS>ATOM
1    C         4.2225  -32.0523   -5.2485  C     
2    C         5.5381  -31.9914   -5.8000  C     
3    C         6.3230  -30.8322   -5.5985  C     
4    C         3.7482  -30.9561   -4.4931  C     
5    C         4.5391  -29.8081   -4.2755  C     
6    C         5.8313  -29.7539   -4.8455  C     
7    N         6.6018  -28.6409   -4.6585  N     
8    C         6.1741  -27.5728   -3.9554  C     
9    N         4.9389  -27.5997   -3.3921  N     
10   C         4.1169  -28.6752   -3.5173  C     
11   N         2.9221  -28.6229   -2.9095  N     
12   N         6.9749  -26.5045   -3.8143  N     
13   C         6.1035  -33.0549   -6.5585  C     
14   C         6.3848  -32.8838   -7.9283  C     
15   C         6.9526  -33.9330   -8.6762  C     
16   C         7.2462  -35.1686   -8.0719  C     
17   C         6.9872  -35.3360   -6.6999  C     
18   C         6.4293  -34.2847   -5.9498  C     
19   S         7.9716  -36.4577   -8.9957  S     
20   C         9.7635  -36.3272   -8.8778  C     
21   O         7.5359  -37.8739   -8.4226  O     
22   O         7.5473  -36.3872  -10.5322  O     
23   C         3.3245  -33.2204   -5.4674  C     
24   H         7.2703  -30.7712   -5.9881  H     
25   H         2.8101  -31.0021   -4.0862  H     
26   H         2.6532  -27.8322   -2.4263  H     
27   H         2.3028  -29.3594   -2.9791  H     
28   H         6.6758  -25.7408   -3.2949  H     
29   H         7.8566  -26.4965   -4.2380  H     
30   H         6.1767  -31.9987   -8.4017  H     
31   H         7.1538  -33.7764   -9.6680  H     
32   H         7.2101  -36.2168   -6.2263  H     
33   H         6.2664  -34.4271   -4.9478  H     
34   H        10.0859  -35.3719   -9.2927  H     
35   H        10.2257  -37.1414   -9.4375  H     
36   H        10.0701  -36.3884   -7.8326  H     
37   H         3.2216  -33.4053   -6.5376  H     
38   H         2.3237  -33.0690   -5.0595  H     
39   H         3.7428  -34.1063   -4.9897  H     
@<TRIPOS>BOND
     1    1    2 2
     2    1    4 1
     3    1   23 1
     4    2    3 1
     5    2   13 1
     6    3    6 2
     7    4    5 2
     8    5    6 1
     9    5   10 1
    10    6    7 1
    11    7    8 2
    12    8    9 1
    13    8   12 1
    14    9   10 2
    15   10   11 1
    16   13   14 2
    17   13   18 1
    18   14   15 1
    19   15   16 2
    20   16   17 1
    21   16   19 1
    22   17   18 2
    23   19   20 1
    24   19   21 2
    25   19   22 2
    26    3   24 1
    27    4   25 1
    28   11   26 1
    29   11   27 1
    30   12   28 1
    31   12   29 1
    32   14   30 1
    33   15   31 1
    34   17   32 1
    35   18   33 1
    36   20   34 1
    37   20   35 1
    38   20   36 1
    39   23   37 1
    40   23   38 1
    41   23   39 1
@<TRIPOS>PROPERTY_DATA
  Total_Score	| 5.4100
  Crash		| -0.5893
  Polar		| 2.2137
  FragIndex	| 1
  FragRMSD	| 0.266

