@<TRIPOS>MOLECULE
BindingDB_50351184
 39 41 0 0 0
SMALL
NO_CHARGES


@<TRIPOS>ATOM
1    C         4.1365  -32.1507   -5.3056  C     
2    C         5.4597  -32.1411   -5.8359  C     
3    C         6.3013  -31.0322   -5.5639  C     
4    C         3.7022  -31.0522   -4.5192  C     
5    C         4.5343  -29.9358   -4.2836  C     
6    C         5.8439  -29.9322   -4.8249  C     
7    N         6.6505  -28.8417   -4.6522  N     
8    C         6.2410  -27.7475   -3.9793  C     
9    N         5.0005  -27.7253   -3.4316  N     
10   C         4.1457  -28.7788   -3.5481  C     
11   N         2.9515  -28.6632   -2.9402  N     
12   N         7.0659  -26.6898   -3.8609  N     
13   C         5.9567  -33.1321   -6.7387  C     
14   C         6.2304  -32.6937   -8.0603  C     
15   C         6.8674  -33.5255   -8.9882  C     
16   C         7.2583  -34.8194   -8.6187  C     
17   C         6.9838  -35.2762   -7.3169  C     
18   C         6.3212  -34.4656   -6.3661  C     
19   C         6.0768  -35.0377   -5.0036  C     
20   C         5.8146  -36.5660   -4.9820  C     
21   C         3.1880  -33.2708   -5.5278  C     
22   H         7.2509  -31.0030   -5.9544  H     
23   H         2.7547  -31.0408   -4.1378  H     
24   H         2.7209  -27.8534   -2.4681  H     
25   H         2.3028  -29.3729   -2.9957  H     
26   H         6.7744  -25.9104   -3.3667  H     
27   H         7.9452  -26.7110   -4.2750  H     
28   H         5.9757  -31.7478   -8.3565  H     
29   H         7.0945  -33.1744   -9.9252  H     
30   H         7.7418  -35.4234   -9.2875  H     
31   H         7.2781  -36.2250   -7.0701  H     
32   H         6.9219  -34.7759   -4.3447  H     
33   H         5.1719  -34.5713   -4.5874  H     
34   H         5.2262  -36.8474   -5.8607  H     
35   H         5.2612  -36.8457   -4.0784  H     
36   H         6.7643  -37.1052   -5.0107  H     
37   H         3.1843  -33.5767   -6.5766  H     
38   H         2.1605  -32.9979   -5.2781  H     
39   H         3.4650  -34.1228   -4.8964  H     
@<TRIPOS>BOND
     1    1    2 2
     2    1    4 1
     3    1   21 1
     4    2    3 1
     5    2   13 1
     6    3    6 2
     7    4    5 2
     8    5    6 1
     9    5   10 1
    10    6    7 1
    11    7    8 2
    12    8    9 1
    13    8   12 1
    14    9   10 2
    15   10   11 1
    16   13   14 2
    17   13   18 1
    18   14   15 1
    19   15   16 2
    20   16   17 1
    21   17   18 2
    22   18   19 1
    23   19   20 1
    24    3   22 1
    25    4   23 1
    26   11   24 1
    27   11   25 1
    28   12   26 1
    29   12   27 1
    30   14   28 1
    31   15   29 1
    32   16   30 1
    33   17   31 1
    34   19   32 1
    35   19   33 1
    36   20   34 1
    37   20   35 1
    38   20   36 1
    39   21   37 1
    40   21   38 1
    41   21   39 1
@<TRIPOS>PROPERTY_DATA
  Total_Score	| 6.1092
  Crash		| -1.5617
  Polar		| 2.4367
  FragIndex	| 1
  FragRMSD	| 0.920

