@<TRIPOS>MOLECULE
BindingDB_50351185
 36 38 0 0 0
SMALL
NO_CHARGES


@<TRIPOS>ATOM
1    C         4.2116  -32.0856   -5.3186  C     
2    C         5.5382  -32.0434   -5.8423  C     
3    C         6.3537  -30.9171   -5.5898  C     
4    C         3.7415  -30.9962   -4.5429  C     
5    C         4.5578  -29.8766   -4.2842  C     
6    C         5.8652  -29.8439   -4.8294  C     
7    N         6.6530  -28.7490   -4.6318  N     
8    C         6.2348  -27.6698   -3.9301  C     
9    N         4.9927  -27.6785   -3.3792  N     
10   C         4.1563  -28.7387   -3.5182  C     
11   N         2.9602  -28.6529   -2.9144  N     
12   N         7.0607  -26.6236   -3.7962  N     
13   C         6.0851  -33.0917   -6.6273  C     
14   C         6.0789  -32.9346   -8.0316  C     
15   C         6.5946  -33.9400   -8.8701  C     
16   C         7.1135  -35.1212   -8.3148  C     
17   C         7.1462  -35.2829   -6.9184  C     
18   C         6.6527  -34.2685   -6.0583  C     
19   C         3.3179  -33.2505   -5.5677  C     
20   C         6.7580  -34.4463   -4.5878  C     
21   H         7.3116  -30.8777   -5.9556  H     
22   H         2.7954  -31.0173   -4.1524  H     
23   H         2.7215  -27.8542   -2.4204  H     
24   H         2.3205  -29.3793   -2.9801  H     
25   H         6.7912  -25.8507   -3.2773  H     
26   H         7.9360  -26.6319   -4.2259  H     
27   H         5.7060  -32.0807   -8.4573  H     
28   H         6.5922  -33.8096   -9.8844  H     
29   H         7.4825  -35.8567   -8.9217  H     
30   H         7.5388  -36.1504   -6.5395  H     
31   H         3.1891  -33.3810   -6.6496  H     
32   H         2.3263  -33.1183   -5.1225  H     
33   H         3.7663  -34.1564   -5.1380  H     
34   H         7.3037  -33.5976   -4.1538  H     
35   H         7.2911  -35.3618   -4.3196  H     
36   H         5.7490  -34.5018   -4.1637  H     
@<TRIPOS>BOND
     1    1    2 2
     2    1    4 1
     3    1   19 1
     4    2    3 1
     5    2   13 1
     6    3    6 2
     7    4    5 2
     8    5    6 1
     9    5   10 1
    10    6    7 1
    11    7    8 2
    12    8    9 1
    13    8   12 1
    14    9   10 2
    15   10   11 1
    16   13   14 2
    17   13   18 1
    18   14   15 1
    19   15   16 2
    20   16   17 1
    21   17   18 2
    22   18   20 1
    23    3   21 1
    24    4   22 1
    25   11   23 1
    26   11   24 1
    27   12   25 1
    28   12   26 1
    29   14   27 1
    30   15   28 1
    31   16   29 1
    32   17   30 1
    33   19   31 1
    34   19   32 1
    35   19   33 1
    36   20   34 1
    37   20   35 1
    38   20   36 1
@<TRIPOS>PROPERTY_DATA
  Total_Score	| 5.6974
  Crash		| -0.9989
  Polar		| 2.3382
  FragIndex	| 1
  FragRMSD	| 0.865

