@<TRIPOS>MOLECULE
BindingDB_50351193
 33 35 0 0 0
SMALL
NO_CHARGES


@<TRIPOS>ATOM
1    C         4.2097  -32.0750   -5.2405  C     
2    C         5.5166  -32.0194   -5.8066  C     
3    C         6.3085  -30.8619   -5.6230  C     
4    C         3.7476  -30.9762   -4.4763  C     
5    C         4.5472  -29.8298   -4.2745  C     
6    C         5.8315  -29.7778   -4.8684  C     
7    N         6.6073  -28.6675   -4.7104  N     
8    C         6.1921  -27.5922   -4.0019  C     
9    N         4.9714  -27.6176   -3.4119  N     
10   C         4.1443  -28.6917   -3.5132  C     
11   N         2.9612  -28.6318   -2.8807  N     
12   N         6.9934  -26.5204   -3.8953  N     
13   C         6.0672  -33.0818   -6.5708  C     
14   C         6.3882  -34.3165   -5.9607  C     
15   C         6.9354  -35.3665   -6.7208  C     
16   C         7.1703  -35.1914   -8.0967  C     
17   C         6.8788  -33.9604   -8.7095  C     
18   C         6.3249  -32.9114   -7.9518  C     
19   C         3.3071  -33.2403   -5.4511  C     
20   H         7.2463  -30.8048   -6.0319  H     
21   H         2.8159  -31.0147   -4.0578  H     
22   H         2.7139  -27.8390   -2.3864  H     
23   H         2.3384  -29.3701   -2.9323  H     
24   H         6.7037  -25.7480   -3.3840  H     
25   H         7.8609  -26.5134   -4.3403  H     
26   H         6.2340  -34.4573   -4.9589  H     
27   H         7.1797  -36.2527   -6.2698  H     
28   H         7.5721  -35.9532   -8.6472  H     
29   H         7.0585  -33.8301   -9.7079  H     
30   H         6.1023  -32.0257   -8.4149  H     
31   H         3.2087  -33.4446   -6.5199  H     
32   H         2.3044  -33.0740   -5.0508  H     
33   H         3.7175  -34.1224   -4.9579  H     
@<TRIPOS>BOND
     1    1    2 2
     2    1    4 1
     3    1   19 1
     4    2    3 1
     5    2   13 1
     6    3    6 2
     7    4    5 2
     8    5    6 1
     9    5   10 1
    10    6    7 1
    11    7    8 2
    12    8    9 1
    13    8   12 1
    14    9   10 2
    15   10   11 1
    16   13   14 2
    17   13   18 1
    18   14   15 1
    19   15   16 2
    20   16   17 1
    21   17   18 2
    22    3   20 1
    23    4   21 1
    24   11   22 1
    25   11   23 1
    26   12   24 1
    27   12   25 1
    28   14   26 1
    29   15   27 1
    30   16   28 1
    31   17   29 1
    32   18   30 1
    33   19   31 1
    34   19   32 1
    35   19   33 1
@<TRIPOS>PROPERTY_DATA
  Total_Score	| 5.5091
  Crash		| -0.4530
  Polar		| 2.3228
  FragIndex	| 1
  FragRMSD	| 0.271

