@<TRIPOS>MOLECULE
BindingDB_50351183
 37 39 0 0 0
SMALL
NO_CHARGES


@<TRIPOS>ATOM
1    C         3.9168  -32.1877   -5.0502  C     
2    C         5.1835  -32.2425   -5.6743  C     
3    C         6.0449  -31.1255   -5.5563  C     
4    C         3.5072  -31.0433   -4.3404  C     
5    C         4.3658  -29.9327   -4.2210  C     
6    C         5.6449  -29.9808   -4.8407  C     
7    N         6.4861  -28.9126   -4.7377  N     
8    C         6.1451  -27.7885   -4.0624  C     
9    N         4.9336  -27.7173   -3.4548  N     
10   C         4.0474  -28.7404   -3.5049  C     
11   N         2.8807  -28.5768   -2.8547  N     
12   N         7.0060  -26.7636   -3.9945  N     
13   C         5.6018  -33.4077   -6.3746  C     
14   C         6.7913  -34.0590   -5.9741  C     
15   C         7.2766  -35.1793   -6.6722  C     
16   C         6.5762  -35.6649   -7.7868  C     
17   C         5.3901  -35.0329   -8.1916  C     
18   C         4.8785  -33.9214   -7.4837  C     
19   O         3.7603  -33.2820   -7.9574  O     
20   C         2.5134  -33.9964   -7.7967  C     
21   C         1.3422  -33.1525   -8.3308  C     
22   H         3.2927  -32.9946   -5.0724  H     
23   H         6.9697  -31.1394   -5.9978  H     
24   H         2.5878  -31.0485   -3.8928  H     
25   H         2.7001  -27.7477   -2.3920  H     
26   H         2.2135  -29.2745   -2.8688  H     
27   H         6.7625  -25.9623   -3.5059  H     
28   H         7.8721  -26.8183   -4.4362  H     
29   H         7.3213  -33.7228   -5.1644  H     
30   H         8.1423  -35.6369   -6.3726  H     
31   H         6.9310  -36.4759   -8.3020  H     
32   H         4.9054  -35.3784   -9.0185  H     
33   H         2.5505  -34.9336   -8.3599  H     
34   H         2.3206  -34.2299   -6.7444  H     
35   H         1.3080  -32.1948   -7.8136  H     
36   H         0.4033  -33.6793   -8.1571  H     
37   H         1.4533  -32.9787   -9.4001  H     
@<TRIPOS>BOND
     1    1    2 2
     2    1    4 1
     3    2    3 1
     4    2   13 1
     5    3    6 2
     6    4    5 2
     7    5    6 1
     8    5   10 1
     9    6    7 1
    10    7    8 2
    11    8    9 1
    12    8   12 1
    13    9   10 2
    14   10   11 1
    15   13   14 2
    16   13   18 1
    17   14   15 1
    18   15   16 2
    19   16   17 1
    20   17   18 2
    21   18   19 1
    22   19   20 1
    23   20   21 1
    24    1   22 1
    25    3   23 1
    26    4   24 1
    27   11   25 1
    28   11   26 1
    29   12   27 1
    30   12   28 1
    31   14   29 1
    32   15   30 1
    33   16   31 1
    34   17   32 1
    35   20   33 1
    36   20   34 1
    37   21   35 1
    38   21   36 1
    39   21   37 1
@<TRIPOS>PROPERTY_DATA
  Total_Score	| 5.1440
  Crash		| -1.5183
  Polar		| 2.3310
  FragIndex	| 1
  FragRMSD	| 0.967

