@<TRIPOS>MOLECULE
BindingDB_50351174
 46 49 0 0 0
SMALL
NO_CHARGES


@<TRIPOS>ATOM
1    C         3.8971  -32.3292   -5.2565  C     
2    C         5.1963  -32.4000   -5.8343  C     
3    C         6.0516  -31.2744   -5.7469  C     
4    C         3.4970  -31.1445   -4.5879  C     
5    C         4.3707  -30.0430   -4.4568  C     
6    C         5.6514  -30.1164   -5.0563  C     
7    N         6.5162  -29.0718   -4.9259  N     
8    C         6.1976  -27.9494   -4.2374  C     
9    N         4.9831  -27.8524   -3.6456  N     
10   C         4.0659  -28.8518   -3.7269  C     
11   N         2.9024  -28.6769   -3.0767  N     
12   N         7.0912  -26.9532   -4.1531  N     
13   C         5.7674  -33.6147   -6.3291  C     
14   C         7.1576  -35.8171   -7.4549  C     
15   C         6.1397  -35.1775   -8.1738  C     
16   C         5.3833  -34.1292   -7.6010  C     
17   O         4.3243  -33.5863   -8.2981  O     
18   C         3.3522  -34.5181   -8.8410  C     
19   C         2.3582  -33.7865   -9.7572  C     
20   C         2.9665  -33.4859   -5.2957  C     
21   C         7.4648  -35.4023   -6.1447  C     
22   C         6.7862  -34.2805   -5.5752  C     
23   C         7.1812  -33.8965   -4.2726  C     
24   C         8.1371  -34.5686   -3.6012  C     
25   C         8.7652  -35.6442   -4.1606  C     
26   C         8.4537  -36.0635   -5.4023  C     
27   H         6.9990  -31.3165   -6.1340  H     
28   H         2.5689  -31.1020   -4.1540  H     
29   H         2.7267  -27.8506   -2.6035  H     
30   H         2.2284  -29.3702   -3.0856  H     
31   H         6.8784  -26.1438   -3.6617  H     
32   H         7.9506  -27.0442   -4.5971  H     
33   H         7.6623  -36.5941   -7.8935  H     
34   H         5.9407  -35.4996   -9.1230  H     
35   H         3.8330  -35.2948   -9.4432  H     
36   H         2.7960  -35.0081   -8.0422  H     
37   H         1.9194  -32.9349   -9.2278  H     
38   H         1.5553  -34.4690  -10.0637  H     
39   H         2.8697  -33.4345  -10.6538  H     
40   H         2.7543  -33.7554   -6.3254  H     
41   H         2.0096  -33.2777   -4.8097  H     
42   H         3.4235  -34.3403   -4.7983  H     
43   H         6.7641  -33.1149   -3.8247  H     
44   H         8.3949  -34.2721   -2.6864  H     
45   H         9.4648  -36.1268   -3.6432  H     
46   H         8.9312  -36.8504   -5.7822  H     
@<TRIPOS>BOND
     1    1    2 2
     2    1    4 1
     3    1   20 1
     4    2    3 1
     5    2   13 1
     6    3    6 2
     7    4    5 2
     8    5    6 1
     9    5   10 1
    10    6    7 1
    11    7    8 2
    12    8    9 1
    13    8   12 1
    14    9   10 2
    15   10   11 1
    16   13   16 1
    17   13   22 2
    18   14   15 1
    19   14   21 2
    20   15   16 2
    21   16   17 1
    22   17   18 1
    23   18   19 1
    24   21   22 1
    25   21   26 1
    26   22   23 1
    27   23   24 2
    28   24   25 1
    29   25   26 2
    30    3   27 1
    31    4   28 1
    32   11   29 1
    33   11   30 1
    34   12   31 1
    35   12   32 1
    36   14   33 1
    37   15   34 1
    38   18   35 1
    39   18   36 1
    40   19   37 1
    41   19   38 1
    42   19   39 1
    43   20   40 1
    44   20   41 1
    45   20   42 1
    46   23   43 1
    47   24   44 1
    48   25   45 1
    49   26   46 1
@<TRIPOS>PROPERTY_DATA
  Total_Score	| 6.6134
  Crash		| -1.9269
  Polar		| 2.7766
  FragIndex	| 1
  FragRMSD	| 0.832

