@<TRIPOS>MOLECULE
BindingDB_50351179
 42 44 0 0 0
SMALL
NO_CHARGES


@<TRIPOS>ATOM
1    C         3.5224  -32.1040   -5.3589  C     
2    C         4.7434  -32.2318   -6.0976  C     
3    C         5.6974  -31.1835   -6.0002  C     
4    C         3.3517  -30.9992   -4.4884  C     
5    C         4.3328  -29.9960   -4.3579  C     
6    C         5.4977  -30.0801   -5.1538  C     
7    N         6.4278  -29.0842   -5.0977  N     
8    C         6.2817  -28.0062   -4.2896  C     
9    N         5.1920  -27.9161   -3.4882  N     
10   C         4.2257  -28.8705   -3.4847  C     
11   N         3.2015  -28.7128   -2.6311  N     
12   N         7.2094  -27.0379   -4.2938  N     
13   C         5.1059  -33.3731   -6.9009  C     
14   C         6.3691  -33.9828   -6.6852  C     
15   C         6.8400  -35.0545   -7.4825  C     
16   C         6.0041  -35.5349   -8.5099  C     
17   C         4.7463  -34.9666   -8.7311  C     
18   C         4.2750  -33.8964   -7.9282  C     
19   C         8.0907  -35.6135   -7.2535  C     
20   O         8.7362  -36.1765   -8.1280  O     
21   O         3.0400  -33.3095   -8.1086  O     
22   C         2.1316  -33.7509   -9.1477  C     
23   C         0.7588  -33.0536   -9.0614  C     
24   C         2.3811  -33.0584   -5.4631  C     
25   H         6.5634  -31.2206   -6.5477  H     
26   H         2.4905  -30.9188   -3.9448  H     
27   H         3.1662  -27.9381   -2.0513  H     
28   H         2.4872  -29.3646   -2.6013  H     
29   H         7.1062  -26.2602   -3.7225  H     
30   H         7.9710  -27.1043   -4.8928  H     
31   H         6.9661  -33.6349   -5.9283  H     
32   H         6.2990  -36.3086   -9.1116  H     
33   H         4.1784  -35.3489   -9.4865  H     
34   H         8.5166  -35.5440   -6.3595  H     
35   H         2.5600  -33.5308  -10.1279  H     
36   H         1.9702  -34.8274   -9.0543  H     
37   H         0.1867  -33.4402   -8.2159  H     
38   H         0.1897  -33.2445   -9.9729  H     
39   H         0.8763  -31.9795   -8.9410  H     
40   H         1.7655  -32.7987   -6.3410  H     
41   H         1.7348  -33.0299   -4.5806  H     
42   H         2.7399  -34.0846   -5.5605  H     
@<TRIPOS>BOND
     1    1    2 2
     2    1    4 1
     3    1   24 1
     4    2    3 1
     5    2   13 1
     6    3    6 2
     7    4    5 2
     8    5    6 1
     9    5   10 1
    10    6    7 1
    11    7    8 2
    12    8    9 1
    13    8   12 1
    14    9   10 2
    15   10   11 1
    16   13   14 2
    17   13   18 1
    18   14   15 1
    19   15   16 2
    20   15   19 1
    21   16   17 1
    22   17   18 2
    23   18   21 1
    24   19   20 2
    25   21   22 1
    26   22   23 1
    27    3   25 1
    28    4   26 1
    29   11   27 1
    30   11   28 1
    31   12   29 1
    32   12   30 1
    33   14   31 1
    34   16   32 1
    35   17   33 1
    36   19   34 1
    37   22   35 1
    38   22   36 1
    39   23   37 1
    40   23   38 1
    41   23   39 1
    42   24   40 1
    43   24   41 1
    44   24   42 1
@<TRIPOS>PROPERTY_DATA
  Total_Score	| 6.4655
  Crash		| -1.3508
  Polar		| 2.9062
  FragIndex	| 1
  FragRMSD	| 1.173

