@<TRIPOS>MOLECULE
BindingDB_50351188
 34 36 0 0 0
SMALL
NO_CHARGES


@<TRIPOS>ATOM
1    C         4.1659  -31.9510   -5.3457  C     
2    C         5.4662  -31.9239   -5.9105  C     
3    C         6.2619  -30.7778   -5.6378  C     
4    C         3.6976  -30.9223   -4.5055  C     
5    C         4.4997  -29.7902   -4.2454  C     
6    C         5.7868  -29.7205   -4.8356  C     
7    N         6.5655  -28.6178   -4.6180  N     
8    C         6.1520  -27.5833   -3.8482  C     
9    N         4.9284  -27.6312   -3.2647  N     
10   C         4.0968  -28.6920   -3.4323  C     
11   N         2.9078  -28.6581   -2.8062  N     
12   N         6.9658  -26.5339   -3.6604  N     
13   C         5.9515  -32.9930   -6.7491  C     
14   C         6.7375  -32.6789   -7.8901  C     
15   C         7.2143  -33.6744   -8.7616  C     
16   C         6.8936  -35.0186   -8.5335  C     
17   C         6.1072  -35.3609   -7.4257  C     
18   C         5.6643  -34.3737   -6.5125  C     
19   O         4.8781  -34.7469   -5.4437  O     
20   C         5.3880  -35.7348   -4.5246  C     
21   H         3.5318  -32.7232   -5.5521  H     
22   H         7.2076  -30.7030   -6.0239  H     
23   H         2.7654  -30.9986   -4.0916  H     
24   H         2.6554  -27.8956   -2.2691  H     
25   H         2.2867  -29.3914   -2.9064  H     
26   H         6.6858  -25.7984   -3.0911  H     
27   H         7.8409  -26.5151   -4.0905  H     
28   H         6.9542  -31.7069   -8.1229  H     
29   H         7.7819  -33.4224   -9.5775  H     
30   H         7.2156  -35.7400   -9.1814  H     
31   H         5.8472  -36.3382   -7.2876  H     
32   H         5.4222  -36.7261   -4.9811  H     
33   H         4.7130  -35.7832   -3.6676  H     
34   H         6.3815  -35.4672   -4.1633  H     
@<TRIPOS>BOND
     1    1    2 2
     2    1    4 1
     3    2    3 1
     4    2   13 1
     5    3    6 2
     6    4    5 2
     7    5    6 1
     8    5   10 1
     9    6    7 1
    10    7    8 2
    11    8    9 1
    12    8   12 1
    13    9   10 2
    14   10   11 1
    15   13   14 2
    16   13   18 1
    17   14   15 1
    18   15   16 2
    19   16   17 1
    20   17   18 2
    21   18   19 1
    22   19   20 1
    23    1   21 1
    24    3   22 1
    25    4   23 1
    26   11   24 1
    27   11   25 1
    28   12   26 1
    29   12   27 1
    30   14   28 1
    31   15   29 1
    32   16   30 1
    33   17   31 1
    34   20   32 1
    35   20   33 1
    36   20   34 1
@<TRIPOS>PROPERTY_DATA
  Total_Score	| 5.2256
  Crash		| -0.9331
  Polar		| 1.9119
  FragIndex	| 1
  FragRMSD	| 0.687

