@<TRIPOS>MOLECULE
BindingDB_50351190
 35 37 0 0 0
SMALL
NO_CHARGES


@<TRIPOS>ATOM
1    C         4.1760  -32.0748   -5.2440  C     
2    C         5.4831  -32.0129   -5.8118  C     
3    C         6.2735  -30.8546   -5.6265  C     
4    C         3.7113  -30.9738   -4.4815  C     
5    C         4.5066  -29.8300   -4.2842  C     
6    C         5.7944  -29.7750   -4.8691  C     
7    N         6.5742  -28.6690   -4.6986  N     
8    C         6.1560  -27.5964   -3.9864  C     
9    N         4.9249  -27.6165   -3.4137  N     
10   C         4.0937  -28.6878   -3.5304  C     
11   N         2.8955  -28.6180   -2.9285  N     
12   N         6.9605  -26.5354   -3.8507  N     
13   C         6.0406  -33.0777   -6.5729  C     
14   C         6.3568  -34.3151   -5.9658  C     
15   C         6.9155  -35.3602   -6.7202  C     
16   C         7.1781  -35.1745   -8.0894  C     
17   C         6.8898  -33.9372   -8.6994  C     
18   C         6.3219  -32.8963   -7.9456  C     
19   N         7.7080  -36.1770   -8.8200  N     
20   C         3.2781  -33.2413   -5.4443  C     
21   H         7.2102  -30.7953   -6.0334  H     
22   H         2.7834  -31.0212   -4.0570  H     
23   H         2.6324  -27.8190   -2.4539  H     
24   H         2.2737  -29.3549   -2.9954  H     
25   H         6.6692  -25.7688   -3.3302  H     
26   H         7.8387  -26.5334   -4.2729  H     
27   H         6.1868  -34.4629   -4.9639  H     
28   H         7.1318  -36.2493   -6.2668  H     
29   H         7.0849  -33.7901   -9.6931  H     
30   H         6.1094  -32.0073   -8.4072  H     
31   H         7.8871  -36.0463   -9.7636  H     
32   H         7.8929  -37.0339   -8.4061  H     
33   H         3.1548  -33.4385   -6.5099  H     
34   H         2.2794  -33.0855   -5.0277  H     
35   H         3.7052  -34.1250   -4.9680  H     
@<TRIPOS>BOND
     1    1    2 2
     2    1    4 1
     3    1   20 1
     4    2    3 1
     5    2   13 1
     6    3    6 2
     7    4    5 2
     8    5    6 1
     9    5   10 1
    10    6    7 1
    11    7    8 2
    12    8    9 1
    13    8   12 1
    14    9   10 2
    15   10   11 1
    16   13   14 2
    17   13   18 1
    18   14   15 1
    19   15   16 2
    20   16   17 1
    21   16   19 1
    22   17   18 2
    23    3   21 1
    24    4   22 1
    25   11   23 1
    26   11   24 1
    27   12   25 1
    28   12   26 1
    29   14   27 1
    30   15   28 1
    31   17   29 1
    32   18   30 1
    33   19   31 1
    34   19   32 1
    35   20   33 1
    36   20   34 1
    37   20   35 1
@<TRIPOS>PROPERTY_DATA
  Total_Score	| 5.5377
  Crash		| -0.4803
  Polar		| 2.2221
  FragIndex	| 1
  FragRMSD	| 0.286

