@<TRIPOS>MOLECULE
BindingDB_50351196
 40 42 0 0 0
SMALL
NO_CHARGES


@<TRIPOS>ATOM
1    C         4.2689  -32.1837   -5.2799  C     
2    C         5.5663  -32.1207   -5.8939  C     
3    C         6.3752  -31.0009   -5.5402  C     
4    C         3.7856  -31.0876   -4.5159  C     
5    C         4.5626  -29.9344   -4.2974  C     
6    C         5.8820  -29.9133   -4.7991  C     
7    N         6.6578  -28.8058   -4.6132  N     
8    C         6.2043  -27.7052   -3.9700  C     
9    N         4.9432  -27.7004   -3.4713  N     
10   C         4.1155  -28.7707   -3.5972  C     
11   N         2.8853  -28.6664   -3.0664  N     
12   N         7.0024  -26.6351   -3.8365  N     
13   C         6.0688  -32.9946   -6.9497  C     
14   C         6.6473  -32.3685   -8.0936  C     
15   C         7.2057  -33.0880   -9.1633  C     
16   C         7.1556  -34.4844   -9.1634  C     
17   C         6.5462  -35.1426   -8.0934  C     
18   C         6.0335  -34.4234   -6.9884  C     
19   Br        7.9891  -32.1942  -10.5964  Br    
20   O         5.4555  -35.2106   -6.0385  O     
21   C         6.3481  -36.0872   -5.3205  C     
22   C         5.6532  -37.4569   -5.2026  C     
23   C         3.3962  -33.3784   -5.3266  C     
24   H         7.3390  -30.9336   -5.8816  H     
25   H         2.8517  -31.1291   -4.0996  H     
26   H         2.6119  -27.8446   -2.6303  H     
27   H         2.2513  -29.3926   -3.1450  H     
28   H         6.6795  -25.8452   -3.3723  H     
29   H         7.8981  -26.6422   -4.2195  H     
30   H         6.6645  -31.3506   -8.1745  H     
31   H         7.5408  -35.0170   -9.9463  H     
32   H         6.4847  -36.1628   -8.1186  H     
33   H         7.3064  -36.2444   -5.8389  H     
34   H         6.5492  -35.6747   -4.3251  H     
35   H         4.7580  -37.3928   -4.5811  H     
36   H         6.3377  -38.1872   -4.7737  H     
37   H         5.3797  -37.8037   -6.1995  H     
38   H         3.2849  -33.7388   -6.3483  H     
39   H         2.3897  -33.2029   -4.9437  H     
40   H         3.8641  -34.1387   -4.6890  H     
@<TRIPOS>BOND
     1    1    2 2
     2    1    4 1
     3    1   23 1
     4    2    3 1
     5    2   13 1
     6    3    6 2
     7    4    5 2
     8    5    6 1
     9    5   10 1
    10    6    7 1
    11    7    8 2
    12    8    9 1
    13    8   12 1
    14    9   10 2
    15   10   11 1
    16   13   14 2
    17   13   18 1
    18   14   15 1
    19   15   16 2
    20   15   19 1
    21   16   17 1
    22   17   18 2
    23   18   20 1
    24   20   21 1
    25   21   22 1
    26    3   24 1
    27    4   25 1
    28   11   26 1
    29   11   27 1
    30   12   28 1
    31   12   29 1
    32   14   30 1
    33   16   31 1
    34   17   32 1
    35   21   33 1
    36   21   34 1
    37   22   35 1
    38   22   36 1
    39   22   37 1
    40   23   38 1
    41   23   39 1
    42   23   40 1
@<TRIPOS>PROPERTY_DATA
  Total_Score	| 6.4708
  Crash		| -1.4676
  Polar		| 2.3464
  FragIndex	| 1
  FragRMSD	| 0.742

