@<TRIPOS>MOLECULE
BindingDB_50351195
 43 45 0 0 0
SMALL
NO_CHARGES


@<TRIPOS>ATOM
1    C         4.1162  -32.1073   -5.3120  C     
2    C         5.3874  -32.0825   -5.9774  C     
3    C         6.2339  -30.9717   -5.6967  C     
4    C         3.7161  -31.0123   -4.5030  C     
5    C         4.5392  -29.8906   -4.3119  C     
6    C         5.8157  -29.8846   -4.9070  C     
7    N         6.6301  -28.7995   -4.7382  N     
8    C         6.2514  -27.7161   -4.0214  C     
9    N         5.0309  -27.7013   -3.4332  N     
10   C         4.1711  -28.7482   -3.5376  C     
11   N         2.9899  -28.6400   -2.9022  N     
12   N         7.0788  -26.6677   -3.8959  N     
13   C         5.8487  -33.0385   -6.9744  C     
14   C         6.5449  -32.5390   -8.1115  C     
15   C         7.1028  -33.3745   -9.1038  C     
16   C         6.9155  -34.7647   -9.0055  C     
17   C         6.1992  -35.2946   -7.9239  C     
18   C         5.6947  -34.4555   -6.9083  C     
19   C         7.8631  -32.7824  -10.2274  C     
20   O         5.0562  -35.0703   -5.8801  O     
21   C         5.8445  -35.5644   -4.7790  C     
22   C         7.2315  -34.9054   -4.5925  C     
23   C         3.1755  -33.2566   -5.3521  C     
24   H         7.1740  -30.9201   -6.0971  H     
25   H         2.8093  -31.0388   -4.0325  H     
26   H         2.7771  -27.8419   -2.3971  H     
27   H         2.3251  -29.3417   -2.9749  H     
28   H         6.8048  -25.8950   -3.3767  H     
29   H         7.9524  -26.6810   -4.3268  H     
30   H         6.6585  -31.5317   -8.2340  H     
31   H         7.2849  -35.3946   -9.7220  H     
32   H         6.0652  -36.3060   -7.8715  H     
33   H         7.2252  -32.0956  -10.7823  H     
34   H         8.2317  -33.5435  -10.9189  H     
35   H         8.7228  -32.2320   -9.8378  H     
36   H         5.2616  -35.3833   -3.8699  H     
37   H         5.9603  -36.6539   -4.8777  H     
38   H         7.8875  -35.2015   -5.4097  H     
39   H         7.6894  -35.2270   -3.6620  H     
40   H         7.1355  -33.8225   -4.5817  H     
41   H         3.0570  -33.6333   -6.3724  H     
42   H         2.1756  -33.0180   -4.9870  H     
43   H         3.5979  -34.0343   -4.6969  H     
@<TRIPOS>BOND
     1    1    2 2
     2    1    4 1
     3    1   23 1
     4    2    3 1
     5    2   13 1
     6    3    6 2
     7    4    5 2
     8    5    6 1
     9    5   10 1
    10    6    7 1
    11    7    8 2
    12    8    9 1
    13    8   12 1
    14    9   10 2
    15   10   11 1
    16   13   14 2
    17   13   18 1
    18   14   15 1
    19   15   16 2
    20   15   19 1
    21   16   17 1
    22   17   18 2
    23   18   20 1
    24   20   21 1
    25   21   22 1
    26    3   24 1
    27    4   25 1
    28   11   26 1
    29   11   27 1
    30   12   28 1
    31   12   29 1
    32   14   30 1
    33   16   31 1
    34   17   32 1
    35   19   33 1
    36   19   34 1
    37   19   35 1
    38   21   36 1
    39   21   37 1
    40   22   38 1
    41   22   39 1
    42   22   40 1
    43   23   41 1
    44   23   42 1
    45   23   43 1
@<TRIPOS>PROPERTY_DATA
  Total_Score	| 6.1614
  Crash		| -1.7268
  Polar		| 2.4588
  FragIndex	| 1
  FragRMSD	| 0.671

