@<TRIPOS>MOLECULE
BindingDB_50351182
 42 44 0 0 0
SMALL
NO_CHARGES


@<TRIPOS>ATOM
1    C         4.2884  -32.2582   -5.3033  C     
2    C         5.5896  -32.2185   -5.8828  C     
3    C         6.3209  -31.0039   -5.8699  C     
4    C         3.8067  -31.1240   -4.6072  C     
5    C         4.5913  -29.9592   -4.4743  C     
6    C         5.8395  -29.8990   -5.1413  C     
7    N         6.6210  -28.7924   -4.9991  N     
8    C         6.2589  -27.7446   -4.2230  C     
9    N         5.0714  -27.7755   -3.5736  N     
10   C         4.2266  -28.8314   -3.6753  C     
11   N         3.0784  -28.7615   -2.9845  N     
12   N         7.0928  -26.7036   -4.0883  N     
13   C         6.2505  -33.4214   -6.2816  C     
14   C         6.7402  -34.2342   -5.2275  C     
15   C         7.4211  -35.4308   -5.4905  C     
16   C         7.6235  -35.8435   -6.8167  C     
17   C         7.1719  -35.0414   -7.8721  C     
18   C         6.4879  -33.8198   -7.6351  C     
19   C         3.4305  -33.4720   -5.3990  C     
20   C         6.2132  -32.9180   -8.8020  C     
21   C         7.5550  -32.2504   -9.2102  C     
22   C         5.4888  -33.6113   -9.9932  C     
23   H         7.2337  -30.9292   -6.3460  H     
24   H         2.8956  -31.1698   -4.1464  H     
25   H         2.8680  -27.9698   -2.4694  H     
26   H         2.4317  -29.4808   -3.0281  H     
27   H         6.8528  -25.9560   -3.5180  H     
28   H         7.9540  -26.7145   -4.5380  H     
29   H         6.6157  -33.9556   -4.2480  H     
30   H         7.7802  -35.9941   -4.7176  H     
31   H         8.1291  -36.7096   -7.0123  H     
32   H         7.3920  -35.3458   -8.8261  H     
33   H         3.3234  -33.7674   -6.4434  H     
34   H         2.4296  -33.3104   -4.9980  H     
35   H         3.8850  -34.2955   -4.8481  H     
36   H         5.5517  -32.1086   -8.4899  H     
37   H         8.0471  -31.8509   -8.3094  H     
38   H         7.3796  -31.4307   -9.9136  H     
39   H         8.2269  -32.9744   -9.6792  H     
40   H         6.1291  -34.3447  -10.4826  H     
41   H         5.2011  -32.8743  -10.7444  H     
42   H         4.5820  -34.1139   -9.6442  H     
@<TRIPOS>BOND
     1    1    2 2
     2    1    4 1
     3    1   19 1
     4    2    3 1
     5    2   13 1
     6    3    6 2
     7    4    5 2
     8    5    6 1
     9    5   10 1
    10    6    7 1
    11    7    8 2
    12    8    9 1
    13    8   12 1
    14    9   10 2
    15   10   11 1
    16   13   14 2
    17   13   18 1
    18   14   15 1
    19   15   16 2
    20   16   17 1
    21   17   18 2
    22   18   20 1
    23   20   21 1
    24   20   22 1
    25    3   23 1
    26    4   24 1
    27   11   25 1
    28   11   26 1
    29   12   27 1
    30   12   28 1
    31   14   29 1
    32   15   30 1
    33   16   31 1
    34   17   32 1
    35   19   33 1
    36   19   34 1
    37   19   35 1
    38   20   36 1
    39   21   37 1
    40   21   38 1
    41   21   39 1
    42   22   40 1
    43   22   41 1
    44   22   42 1
@<TRIPOS>PROPERTY_DATA
  Total_Score	| 5.2584
  Crash		| -1.7106
  Polar		| 2.6966
  FragIndex	| 1
  FragRMSD	| 1.099

