@<TRIPOS>MOLECULE
BindingDB_50351187
 41 43 0 0 0
SMALL
NO_CHARGES


@<TRIPOS>ATOM
1    C         4.0895  -32.0454   -5.2285  C     
2    C         5.4149  -32.0272   -5.7548  C     
3    C         6.2355  -30.8945   -5.5423  C     
4    C         3.6426  -30.9438   -4.4595  C     
5    C         4.4713  -29.8253   -4.2254  C     
6    C         5.7685  -29.8012   -4.7939  C     
7    N         6.5654  -28.7086   -4.6184  N     
8    C         6.1596  -27.6278   -3.9116  C     
9    N         4.9309  -27.6315   -3.3366  N     
10   C         4.0846  -28.6871   -3.4567  C     
11   N         2.9014  -28.6141   -2.8250  N     
12   N         6.9791  -26.5723   -3.7906  N     
13   C         5.9718  -33.1162   -6.4760  C     
14   C         6.3103  -32.9830   -7.8414  C     
15   C         6.9143  -34.0478   -8.5325  C     
16   C         7.2040  -35.2552   -7.8663  C     
17   C         6.8421  -35.4121   -6.5097  C     
18   C         6.2590  -34.3325   -5.8155  C     
19   O         7.1450  -36.5710   -5.8473  O     
20   C         6.0256  -37.4598   -5.6876  C     
21   O         7.8208  -36.2693   -8.5470  O     
22   C         9.2568  -36.2123   -8.4564  C     
23   C         3.1475  -33.1700   -5.4864  C     
24   H         7.1877  -30.8637   -5.9236  H     
25   H         2.6972  -30.9558   -4.0692  H     
26   H         2.6664  -27.8236   -2.3210  H     
27   H         2.2688  -29.3433   -2.8869  H     
28   H         6.6979  -25.7950   -3.2815  H     
29   H         7.8498  -26.5781   -4.2277  H     
30   H         6.1321  -32.1071   -8.3395  H     
31   H         7.1659  -33.9335   -9.5171  H     
32   H         6.0556  -34.4369   -4.8175  H     
33   H         5.2373  -37.0065   -5.0812  H     
34   H         6.3776  -38.3521   -5.1681  H     
35   H         5.6135  -37.7652   -6.6533  H     
36   H         9.6504  -35.2704   -8.8450  H     
37   H         9.6676  -37.0245   -9.0556  H     
38   H         9.5933  -36.3470   -7.4262  H     
39   H         3.0234  -33.3039   -6.5635  H     
40   H         2.1561  -32.9973   -5.0602  H     
41   H         3.5352  -34.0915   -5.0513  H     
@<TRIPOS>BOND
     1    1    2 2
     2    1    4 1
     3    1   23 1
     4    2    3 1
     5    2   13 1
     6    3    6 2
     7    4    5 2
     8    5    6 1
     9    5   10 1
    10    6    7 1
    11    7    8 2
    12    8    9 1
    13    8   12 1
    14    9   10 2
    15   10   11 1
    16   13   14 2
    17   13   18 1
    18   14   15 1
    19   15   16 2
    20   16   17 1
    21   16   21 1
    22   17   18 2
    23   17   19 1
    24   19   20 1
    25   21   22 1
    26    3   24 1
    27    4   25 1
    28   11   26 1
    29   11   27 1
    30   12   28 1
    31   12   29 1
    32   14   30 1
    33   15   31 1
    34   18   32 1
    35   20   33 1
    36   20   34 1
    37   20   35 1
    38   22   36 1
    39   22   37 1
    40   22   38 1
    41   23   39 1
    42   23   40 1
    43   23   41 1
@<TRIPOS>PROPERTY_DATA
  Total_Score	| 6.9067
  Crash		| -0.6684
  Polar		| 2.1072
  FragIndex	| 1
  FragRMSD	| 0.504

