@<TRIPOS>MOLECULE
BindingDB_50342006
 46 48 0 0 0
SMALL
NO_CHARGES


@<TRIPOS>ATOM
1    C        38.3979   -0.3459   12.8320  C     
2    C        37.1921   -0.8830   12.0395  C     
3    C        37.5585   -2.3764   11.7750  C     
4    O        38.8597   -2.5817   12.3702  O     
5    C        39.5068   -1.3024   12.3829  C     
6    N        36.5156   -3.2965   12.2009  N     
7    O        37.0131   -0.1526   10.8251  O     
8    O        38.7098    1.0287   12.5766  O     
9    C        40.7552   -1.2645   13.3136  C     
10   N        41.9394   -2.1299   12.9614  N     
11   C        42.1630   -2.3458   11.4977  C     
12   C        43.3971   -3.2326   11.2055  C     
13   C        44.6974   -2.7018   11.8721  C     
14   C        44.4444   -2.4744   13.3858  C     
15   C        43.1795   -1.6239   13.6598  C     
16   C        45.2712   -1.5142   11.1768  C     
17   O        44.5856   -0.3617   10.9970  O     
18   O        46.5135   -1.5595   10.6439  O     
19   C        36.7121   -4.1595   13.2431  C     
20   C        35.7633   -5.0404   13.6168  C     
21   C        34.5833   -5.0509   12.9311  C     
22   N        34.3843   -4.1944   11.9342  N     
23   C        35.3218   -3.3252   11.5634  C     
24   O        35.0334   -2.5859   10.6312  O     
25   O        33.6974   -5.8428   13.2096  O     
26   H        38.2032   -0.4737   13.9059  H     
27   H        36.2832   -0.7840   12.6440  H     
28   H        37.7193   -2.5315   10.7035  H     
29   H        39.8220   -1.0185   11.3680  H     
30   H        37.3717   -0.7239   10.1145  H     
31   H        37.9372    1.5353   12.8998  H     
32   H        41.0777   -0.2128   13.3642  H     
33   H        40.4347   -1.5668   14.3198  H     
34   H        41.7582   -3.0615   13.3528  H     
35   H        41.2944   -2.8597   11.0795  H     
36   H        42.2547   -1.3858   10.9868  H     
37   H        43.1932   -4.2386   11.5863  H     
38   H        43.5315   -3.3203   10.1291  H     
39   H        45.4419   -3.4993   11.7953  H     
40   H        44.3116   -3.4463   13.8742  H     
41   H        45.3147   -1.9935   13.8452  H     
42   H        43.3918   -0.5896   13.3735  H     
43   H        43.0126   -1.6335   14.7435  H     
44   H        37.5608   -4.1509   13.7567  H     
45   H        35.9224   -5.6731   14.3740  H     
46   H        33.5447   -4.2182   11.4455  H     
@<TRIPOS>BOND
     1    1    2 1
     2    1    5 1
     3    1    8 1
     4    2    3 1
     5    2    7 1
     6    3    4 1
     7    3    6 1
     8    4    5 1
     9    5    9 1
    10    6   19 1
    11    6   23 1
    12    9   10 1
    13   10   11 1
    14   10   15 1
    15   11   12 1
    16   12   13 1
    17   13   14 1
    18   13   16 1
    19   14   15 1
    20   16   17 1
    21   16   18 2
    22   19   20 2
    23   20   21 1
    24   21   22 1
    25   21   25 2
    26   22   23 1
    27   23   24 2
    28    1   26 1
    29    2   27 1
    30    3   28 1
    31    5   29 1
    32    7   30 1
    33    8   31 1
    34    9   32 1
    35    9   33 1
    36   10   34 1
    37   11   35 1
    38   11   36 1
    39   12   37 1
    40   12   38 1
    41   13   39 1
    42   14   40 1
    43   14   41 1
    44   15   42 1
    45   15   43 1
    46   19   44 1
    47   20   45 1
    48   22   46 1
@<TRIPOS>PROPERTY_DATA
  Total_Score	| 6.4351
  Crash		| -1.2013
  Polar		| 7.5453
  FragIndex	| 1
  FragRMSD	| 0.836

