@<TRIPOS>MOLECULE
BindingDB_50292724
 32 33 0 0 0
SMALL
NO_CHARGES


@<TRIPOS>ATOM
1    C        35.7346   -5.1017   13.5952  C     
2    C        36.6533   -4.1669   13.2846  C     
3    N        36.4457   -3.2640   12.2756  N     
4    C        35.2649   -3.3063   11.6169  C     
5    N        34.3576   -4.2314   11.9283  N     
6    C        34.5760   -5.1306   12.8834  C     
7    O        33.7343   -5.9920   13.0914  O     
8    O        34.9696   -2.5375   10.7110  O     
9    C        37.4813   -2.3163   11.8809  C     
10   O        38.6570   -2.3259   12.7043  O     
11   C        39.2878   -1.0420   12.6299  C     
12   C        38.1039   -0.0418   12.6083  C     
13   C        37.0333   -0.8309   11.8210  C     
14   O        35.7179   -0.5656   12.3138  O     
15   O        38.2894    1.2161   11.9213  O     
16   C        40.2605   -0.9558   13.8348  C     
17   O        41.1752    0.1271   13.7394  O     
18   P        39.0641    2.3792   12.6005  P     
19   O        38.3994    3.6841   12.1244  O     
20   O        39.0137    2.3748   14.1423  O     
21   O        40.4206    2.4380   12.1207  O     
22   H        35.9012   -5.7519   14.3293  H     
23   H        37.4908   -4.1533   13.8190  H     
24   H        33.5275   -4.2656   11.4284  H     
25   H        37.8362   -2.6207   10.8895  H     
26   H        39.8575   -0.9732   11.6963  H     
27   H        37.7336    0.1150   13.6282  H     
28   H        37.0337   -0.5229   10.7696  H     
29   H        35.7585   -0.6503   13.2897  H     
30   H        39.6995   -0.8577   14.7662  H     
31   H        40.8506   -1.8736   13.8913  H     
32   H        41.7134   -0.0602   12.9410  H     
@<TRIPOS>BOND
     1    1    2 2
     2    1    6 1
     3    2    3 1
     4    3    4 1
     5    9    3 1
     6    4    5 1
     7    4    8 2
     8    5    6 1
     9    6    7 2
    10    9   10 1
    11    9   13 1
    12   10   11 1
    13   11   12 1
    14   11   16 1
    15   12   13 1
    16   12   15 1
    17   13   14 1
    18   15   18 1
    19   16   17 1
    20   18   19 1
    21   18   20 1
    22   18   21 2
    23    1   22 1
    24    2   23 1
    25    5   24 1
    26    9   25 1
    27   11   26 1
    28   12   27 1
    29   13   28 1
    30   14   29 1
    31   16   30 1
    32   16   31 1
    33   17   32 1
@<TRIPOS>PROPERTY_DATA
  Total_Score	| 3.8237
  Crash		| -0.3737
  Polar		| 4.0210
  FragIndex	| 1
  FragRMSD	| 0.841

