@<TRIPOS>MOLECULE
BindingDB_50292723
 32 33 0 0 0
SMALL
NO_CHARGES


@<TRIPOS>ATOM
1    O        41.2457   -2.0835    9.9143  O     
2    C        40.9941   -2.0643   11.3209  C     
3    C        39.5709   -1.5197   11.5816  C     
4    C        39.3440   -0.9351   12.9929  C     
5    O        39.6644    0.4631   13.0526  O     
6    C        37.8560   -1.2676   13.2868  C     
7    O        37.1291   -0.1151   13.7994  O     
8    C        37.3927   -2.0739   12.0287  C     
9    O        38.6091   -2.5803   11.4520  O     
10   N        36.4387   -3.1489   12.2827  N     
11   C        35.2598   -3.2432   11.6279  C     
12   O        34.9115   -2.4958   10.7229  O     
13   N        34.3877   -4.2001   11.9413  N     
14   C        34.6468   -5.1091   12.8785  C     
15   O        33.8160   -5.9749   13.1138  O     
16   C        35.8513   -5.0975   13.5116  C     
17   C        36.7398   -4.1351   13.1879  C     
18   P        36.0583    0.6328   12.9541  P     
19   O        36.6573    1.3572   11.7337  O     
20   O        34.9825   -0.3662   12.4813  O     
21   O        35.3752    1.5926   13.7825  O     
22   H        41.2174   -1.1430    9.6398  H     
23   H        41.0960   -3.0787   11.7171  H     
24   H        41.7409   -1.4221   11.7980  H     
25   H        39.3597   -0.7409   10.8383  H     
26   H        39.9796   -1.4488   13.7252  H     
27   H        40.6291    0.5053   12.8657  H     
28   H        37.8618   -1.9514   14.1452  H     
29   H        36.9939   -1.3620   11.3019  H     
30   H        33.5398   -4.2324   11.4717  H     
31   H        36.0649   -5.7767   14.2084  H     
32   H        37.6246   -4.1499   13.6473  H     
@<TRIPOS>BOND
     1    1    2 1
     2    3    2 1
     3    3    4 1
     4    3    9 1
     5    4    5 1
     6    4    6 1
     7    6    7 1
     8    6    8 1
     9    7   18 1
    10    8    9 1
    11    8   10 1
    12   10   11 1
    13   10   17 1
    14   11   12 2
    15   11   13 1
    16   13   14 1
    17   14   15 2
    18   14   16 1
    19   16   17 2
    20   18   19 1
    21   18   20 1
    22   18   21 2
    23    1   22 1
    24    2   23 1
    25    2   24 1
    26    3   25 1
    27    4   26 1
    28    5   27 1
    29    6   28 1
    30    8   29 1
    31   13   30 1
    32   16   31 1
    33   17   32 1
@<TRIPOS>PROPERTY_DATA
  Total_Score	| 4.6845
  Crash		| -1.3485
  Polar		| 5.3169
  FragIndex	| 1
  FragRMSD	| 1.006

