@<TRIPOS>MOLECULE
BindingDB_50292720
 42 44 0 0 0
SMALL
NO_CHARGES


@<TRIPOS>ATOM
1    C        35.7104   -5.0279   13.6287  C     
2    C        36.6611   -4.1378   13.2910  C     
3    N        36.4794   -3.2710   12.2469  N     
4    C        35.2874   -3.2662   11.6056  C     
5    N        34.3520   -4.1528   11.9458  N     
6    C        34.5474   -5.0326   12.9245  C     
7    O        33.6669   -5.8525   13.1593  O     
8    O        35.0175   -2.5252   10.6676  O     
9    C        37.5644   -2.4133   11.7783  C     
10   O        38.8808   -2.7592   12.2992  O     
11   C        39.6995   -1.5782   12.1873  C     
12   C        38.7275   -0.4611   12.6939  C     
13   C        37.3610   -0.9008   12.1155  C     
14   O        37.0221   -0.1394   10.9496  O     
15   O        39.1230    0.8662   12.3013  O     
16   C        41.0151   -1.7121   13.0085  C     
17   N        42.1858   -2.4836   12.4336  N     
18   C        41.8800   -3.6111   11.4856  C     
19   C        43.1724   -4.3857   11.1346  C     
20   O        44.2005   -3.5059   10.6299  O     
21   C        44.5367   -2.4504   11.5583  C     
22   C        43.2797   -1.6153   11.8939  C     
23   H        35.8493   -5.6509   14.3881  H     
24   H        37.4901   -4.1232   13.8273  H     
25   H        33.5274   -4.1695   11.4435  H     
26   H        37.6418   -2.5511   10.6807  H     
27   H        39.9567   -1.3912   11.1303  H     
28   H        38.6804   -0.4904   13.8024  H     
29   H        36.5862   -0.7550   12.8628  H     
30   H        37.3034   -0.6809   10.1818  H     
31   H        39.6897    0.7352   11.5030  H     
32   H        41.3260   -0.6926   13.2656  H     
33   H        40.7721   -2.2023   13.9525  H     
34   H        42.6027   -2.9541   13.2421  H     
35   H        41.1906   -4.3262   11.9561  H     
36   H        41.4187   -3.2275   10.5649  H     
37   H        43.5243   -4.9325   12.0256  H     
38   H        42.9279   -5.1280   10.3611  H     
39   H        44.9780   -2.8701   12.4650  H     
40   H        45.2837   -1.8137   11.0825  H     
41   H        42.9347   -1.1012   10.9906  H     
42   H        43.5656   -0.8601   12.6414  H     
@<TRIPOS>BOND
     1    1    2 2
     2    1    6 1
     3    2    3 1
     4    3    4 1
     5    9    3 1
     6    4    5 1
     7    4    8 2
     8    5    6 1
     9    6    7 2
    10    9   10 1
    11    9   13 1
    12   10   11 1
    13   11   12 1
    14   11   16 1
    15   12   13 1
    16   12   15 1
    17   13   14 1
    18   16   17 1
    19   17   18 1
    20   17   22 1
    21   18   19 1
    22   19   20 1
    23   20   21 1
    24   21   22 1
    25    1   23 1
    26    2   24 1
    27    5   25 1
    28    9   26 1
    29   11   27 1
    30   12   28 1
    31   13   29 1
    32   14   30 1
    33   15   31 1
    34   16   32 1
    35   16   33 1
    36   17   34 1
    37   18   35 1
    38   18   36 1
    39   19   37 1
    40   19   38 1
    41   21   39 1
    42   21   40 1
    43   22   41 1
    44   22   42 1
@<TRIPOS>PROPERTY_DATA
  Total_Score	| 4.3721
  Crash		| -1.0752
  Polar		| 4.1774
  FragIndex	| 1
  FragRMSD	| 0.493

