@<TRIPOS>MOLECULE
BindingDB_50342008
 48 50 0 0 0
SMALL
NO_CHARGES


@<TRIPOS>ATOM
1    C        38.3765   -0.0872   12.1760  C     
2    C        37.1488   -0.8509   11.6496  C     
3    C        37.6146   -2.3244   11.5112  C     
4    O        38.8768   -2.3705   12.2094  O     
5    C        39.5177   -1.1084   11.9951  C     
6    N        36.6259   -3.3101   11.9215  N     
7    O        38.1739    0.3113   13.5314  O     
8    C        40.7572   -0.8799   12.9057  C     
9    N        41.9010   -1.8448   12.7588  N     
10   C        42.1981   -2.2603   11.3530  C     
11   C        43.4282   -3.1940   11.2414  C     
12   C        44.7042   -2.6257   11.9329  C     
13   C        44.3559   -2.2447   13.3936  C     
14   C        43.1084   -1.3232   13.4895  C     
15   C        45.3483   -1.5194   11.1743  C     
16   O        46.6024   -1.6639   10.6808  O     
17   O        44.7284   -0.3418   10.9296  O     
18   C        36.9612   -4.3553   12.7381  C     
19   C        36.0680   -5.2992   13.1266  C     
20   C        34.7810   -5.1615   12.6602  C     
21   N        34.4744   -4.1920   11.8036  N     
22   C        35.3658   -3.2767   11.4332  C     
23   O        34.9682   -2.4403   10.6313  O     
24   O        33.8778   -5.9309   12.9610  O     
25   C        36.5111   -6.4413   13.9131  C     
26   H        38.5680    0.8180   11.5876  H     
27   H        36.2990   -0.7622   12.3345  H     
28   H        36.8401   -0.4545   10.6765  H     
29   H        37.8373   -2.5217   10.4575  H     
30   H        39.8725   -1.0521   10.9557  H     
31   H        37.9625   -0.5101   14.0295  H     
32   H        41.0973    0.1429   12.7108  H     
33   H        40.4199   -0.9302   13.9483  H     
34   H        41.6230   -2.7004   13.2492  H     
35   H        41.3444   -2.8237   10.9640  H     
36   H        42.3278   -1.3717   10.7174  H     
37   H        43.1764   -4.1531   11.7127  H     
38   H        43.6395   -3.4006   10.1918  H     
39   H        45.4344   -3.4450   11.9861  H     
40   H        44.1554   -3.1560   13.9692  H     
41   H        45.2077   -1.7493   13.8701  H     
42   H        43.3879   -0.3371   13.1107  H     
43   H        42.8698   -1.2050   14.5521  H     
44   H        37.8995   -4.4455   13.0489  H     
45   H        33.5765   -4.1488   11.4299  H     
46   H        37.1903   -7.0471   13.3130  H     
47   H        35.6892   -7.0725   14.2478  H     
48   H        37.0442   -6.0826   14.7914  H     
@<TRIPOS>BOND
     1    1    2 1
     2    1    5 1
     3    1    7 1
     4    2    3 1
     5    3    4 1
     6    3    6 1
     7    4    5 1
     8    5    8 1
     9    6   18 1
    10    6   22 1
    11    8    9 1
    12    9   10 1
    13    9   14 1
    14   10   11 1
    15   11   12 1
    16   12   13 1
    17   12   15 1
    18   13   14 1
    19   15   16 1
    20   15   17 2
    21   18   19 2
    22   19   20 1
    23   19   25 1
    24   20   21 1
    25   20   24 2
    26   21   22 1
    27   22   23 2
    28    1   26 1
    29    2   27 1
    30    2   28 1
    31    3   29 1
    32    5   30 1
    33    7   31 1
    34    8   32 1
    35    8   33 1
    36    9   34 1
    37   10   35 1
    38   10   36 1
    39   11   37 1
    40   11   38 1
    41   12   39 1
    42   13   40 1
    43   13   41 1
    44   14   42 1
    45   14   43 1
    46   18   44 1
    47   21   45 1
    48   25   46 1
    49   25   47 1
    50   25   48 1
@<TRIPOS>PROPERTY_DATA
  Total_Score	| 5.3176
  Crash		| -1.3382
  Polar		| 5.1226
  FragIndex	| 1
  FragRMSD	| 0.877

