@<TRIPOS>MOLECULE
BindingDB_50292717
 46 48 0 0 0
SMALL
NO_CHARGES


@<TRIPOS>ATOM
1    C        35.9613   -5.0849   13.2012  C     
2    C        36.7615   -4.0573   12.8332  C     
3    N        36.3474   -3.0694   11.9816  N     
4    C        35.0807   -3.1201   11.5238  C     
5    N        34.2776   -4.1155   11.8845  N     
6    C        34.6768   -5.0807   12.7077  C     
7    O        33.8635   -5.9550   12.9711  O     
8    O        34.6020   -2.2995   10.7520  O     
9    C        37.2930   -2.0490   11.5482  C     
10   O        38.5607   -2.6730   11.3126  O     
11   C        39.5981   -1.8717   11.8838  C     
12   C        38.9492   -1.0847   13.0432  C     
13   C        37.5047   -0.8993   12.5639  C     
14   O        39.6067    0.1564   13.2899  O     
15   C        40.7556   -2.8203   12.3074  C     
16   N        42.1095   -2.1757   12.3289  N     
17   C        42.5651   -1.7636   10.9591  C     
18   C        43.9318   -1.0382   10.9987  C     
19   C        45.0046   -1.9080   11.6961  C     
20   C        44.5189   -2.3494   13.0947  C     
21   C        43.1309   -3.0336   13.0155  C     
22   C        36.5015   -6.1512   14.0349  C     
23   H        37.6947   -4.0402   13.1782  H     
24   H        33.3883   -4.1569   11.4998  H     
25   H        37.0037   -1.6001   10.5933  H     
26   H        39.9293   -1.1732   11.1065  H     
27   H        38.9495   -1.6702   13.9653  H     
28   H        37.3947    0.0676   12.0640  H     
29   H        36.8020   -0.9413   13.4010  H     
30   H        39.1283    0.5513   14.0502  H     
31   H        40.5022   -3.2200   13.2927  H     
32   H        40.7771   -3.6819   11.6331  H     
33   H        42.0246   -1.3237   12.8873  H     
34   H        42.6439   -2.6393   10.3057  H     
35   H        41.8426   -1.0805   10.5076  H     
36   H        44.2518   -0.8079    9.9793  H     
37   H        43.8252   -0.0937   11.5431  H     
38   H        45.2140   -2.7885   11.0844  H     
39   H        45.9310   -1.3359   11.7931  H     
40   H        45.2419   -3.0440   13.5300  H     
41   H        44.4522   -1.4775   13.7497  H     
42   H        42.8108   -3.2425   14.0409  H     
43   H        43.2334   -3.9920   12.4945  H     
44   H        37.2576   -6.7073   13.4762  H     
45   H        35.7378   -6.8541   14.3744  H     
46   H        36.9764   -5.7183   14.9147  H     
@<TRIPOS>BOND
     1    1    2 2
     2    1    6 1
     3    1   22 1
     4    2    3 1
     5    3    4 1
     6    9    3 1
     7    4    5 1
     8    4    8 2
     9    5    6 1
    10    6    7 2
    11    9   10 1
    12    9   13 1
    13   10   11 1
    14   11   12 1
    15   11   15 1
    16   12   13 1
    17   12   14 1
    18   15   16 1
    19   16   17 1
    20   16   21 1
    21   17   18 1
    22   18   19 1
    23   19   20 1
    24   20   21 1
    25    2   23 1
    26    5   24 1
    27    9   25 1
    28   11   26 1
    29   12   27 1
    30   13   28 1
    31   13   29 1
    32   14   30 1
    33   15   31 1
    34   15   32 1
    35   16   33 1
    36   17   34 1
    37   17   35 1
    38   18   36 1
    39   18   37 1
    40   19   38 1
    41   19   39 1
    42   20   40 1
    43   20   41 1
    44   21   42 1
    45   21   43 1
    46   22   44 1
    47   22   45 1
    48   22   46 1
@<TRIPOS>PROPERTY_DATA
  Total_Score	| 2.9580
  Crash		| -1.0200
  Polar		| 1.6917
  FragIndex	| 1
  FragRMSD	| 1.151

