@<TRIPOS>MOLECULE
BindingDB_50342007
 48 50 0 0 0
SMALL
NO_CHARGES


@<TRIPOS>ATOM
1    C        38.4472   -0.4725   12.9566  C     
2    C        37.1088   -1.0063   12.4115  C     
3    C        37.4346   -2.4335   11.8979  C     
4    O        38.7369   -2.7291   12.4363  O     
5    C        39.4707   -1.5004   12.4333  C     
6    N        36.3992   -3.4160   12.1898  N     
7    O        38.7428    0.8604   12.5410  O     
8    C        40.7788   -1.6125   13.2634  C     
9    N        41.5682   -2.8773   13.0691  N     
10   C        41.8393   -3.3010   11.6581  C     
11   C        42.9039   -2.4197   10.9654  C     
12   C        44.2309   -2.3990   11.7791  C     
13   C        43.9773   -2.0372   13.2706  C     
14   C        42.8349   -2.9004   13.8749  C     
15   C        45.2040   -1.4710   11.1635  C     
16   O        44.8942   -0.1677   10.9882  O     
17   O        46.3842   -1.9167   10.6778  O     
18   C        36.6401   -4.4895   13.0053  C     
19   C        35.7138   -5.4523   13.2284  C     
20   C        34.4876   -5.2882   12.6288  C     
21   N        34.2575   -4.2421   11.8438  N     
22   C        35.1828   -3.3166   11.6137  C     
23   O        34.8670   -2.4219   10.8395  O     
24   O        33.5735   -6.0896   12.7732  O     
25   C        36.0047   -6.6384   14.0274  C     
26   H        38.4169   -0.4892   14.0501  H     
27   H        36.3581   -1.0273   13.2073  H     
28   H        36.7362   -0.3828   11.5932  H     
29   H        37.5609   -2.4026   10.8080  H     
30   H        39.7408   -1.2446   11.4006  H     
31   H        38.7699    0.8306   11.5615  H     
32   H        41.3891   -0.7335   13.0415  H     
33   H        40.5090   -1.5616   14.3220  H     
34   H        40.9795   -3.6160   13.4615  H     
35   H        42.1913   -4.3369   11.6650  H     
36   H        40.9279   -3.2982   11.0597  H     
37   H        43.0874   -2.8194    9.9682  H     
38   H        42.5049   -1.4079   10.8520  H     
39   H        44.6574   -3.4074   11.7493  H     
40   H        44.8921   -2.2039   13.8467  H     
41   H        43.7159   -0.9806   13.3663  H     
42   H        42.6438   -2.5738   14.9009  H     
43   H        43.1808   -3.9357   13.9440  H     
44   H        37.5281   -4.5853   13.4403  H     
45   H        33.4028   -4.1702   11.3948  H     
46   H        37.0087   -6.6245   14.4569  H     
47   H        35.9201   -7.5307   13.4033  H     
48   H        35.2870   -6.7163   14.8454  H     
@<TRIPOS>BOND
     1    1    2 1
     2    1    5 1
     3    1    7 1
     4    2    3 1
     5    3    4 1
     6    3    6 1
     7    4    5 1
     8    5    8 1
     9    6   18 1
    10    6   22 1
    11    8    9 1
    12    9   10 1
    13    9   14 1
    14   10   11 1
    15   11   12 1
    16   12   13 1
    17   12   15 1
    18   13   14 1
    19   15   16 1
    20   15   17 2
    21   18   19 2
    22   19   20 1
    23   19   25 1
    24   20   21 1
    25   20   24 2
    26   21   22 1
    27   22   23 2
    28    1   26 1
    29    2   27 1
    30    2   28 1
    31    3   29 1
    32    5   30 1
    33    7   31 1
    34    8   32 1
    35    8   33 1
    36    9   34 1
    37   10   35 1
    38   10   36 1
    39   11   37 1
    40   11   38 1
    41   12   39 1
    42   13   40 1
    43   13   41 1
    44   14   42 1
    45   14   43 1
    46   18   44 1
    47   21   45 1
    48   25   46 1
    49   25   47 1
    50   25   48 1
@<TRIPOS>PROPERTY_DATA
  Total_Score	| 5.3397
  Crash		| -0.8890
  Polar		| 4.7034
  FragIndex	| 1
  FragRMSD	| 1.022

