@<TRIPOS>MOLECULE
BindingDB_50292715
 53 55 0 0 0
SMALL
NO_CHARGES


@<TRIPOS>ATOM
1    C        35.7930   -4.9189   13.6024  C     
2    C        36.5532   -3.8569   13.2761  C     
3    N        36.1566   -2.9553   12.3254  N     
4    C        34.9996   -3.1880   11.6658  C     
5    N        34.2550   -4.2472   11.9833  N     
6    C        34.6150   -5.0983   12.9392  C     
7    O        33.8870   -6.0459   13.2064  O     
8    O        34.5679   -2.4830   10.7632  O     
9    C        36.9946   -1.8051   12.0263  C     
10   O        38.1588   -2.2131   11.3038  O     
11   C        39.1324   -1.1648   11.4706  C     
12   C        39.0279   -0.8636   12.9842  C     
13   C        37.5222   -1.0263   13.2693  C     
14   O        36.8510    0.2316   13.4072  O     
15   O        39.5019    0.4425   13.3267  O     
16   C        40.4812   -1.5880   10.8016  C     
17   N        41.5893   -2.1227   11.6737  N     
18   C        42.3646   -1.0263   12.3501  C     
19   C        43.5564   -1.5330   13.1950  C     
20   C        44.4929   -2.4851   12.4046  C     
21   C        43.6350   -3.6233   11.7812  C     
22   C        42.4789   -3.0601   10.9162  C     
23   C        45.3439   -1.8065   11.3881  C     
24   O        46.4231   -2.4813   10.8958  O     
25   O        45.0929   -0.5475   10.9592  O     
26   C        47.3478   -1.9895    9.9224  C     
27   C        48.3423   -3.1078    9.5473  C     
28   H        36.1002   -5.5575   14.2978  H     
29   H        37.4170   -3.7351   13.7511  H     
30   H        33.4466   -4.4151   11.4812  H     
31   H        36.4744   -1.0822   11.3778  H     
32   H        38.7775   -0.2731   10.9267  H     
33   H        39.5898   -1.6149   13.5482  H     
34   H        37.3973   -1.5781   14.2099  H     
35   H        36.0267    0.0222   13.8966  H     
36   H        39.4598    0.4724   14.3088  H     
37   H        40.2038   -2.3456   10.0521  H     
38   H        40.8540   -0.7478   10.1995  H     
39   H        41.1522   -2.6830   12.4091  H     
40   H        42.7243   -0.3110   11.6064  H     
41   H        41.7150   -0.4784   13.0225  H     
42   H        44.1219   -0.6782   13.5690  H     
43   H        43.1604   -2.0651   14.0611  H     
44   H        45.1780   -2.9381   13.1216  H     
45   H        44.2582   -4.2906   11.1771  H     
46   H        43.2112   -4.2274   12.5912  H     
47   H        41.8925   -3.9127   10.5595  H     
48   H        42.8967   -2.5599   10.0371  H     
49   H        46.8039   -1.6743    9.0226  H     
50   H        47.8945   -1.1396   10.3253  H     
51   H        48.9093   -3.4111   10.4316  H     
52   H        49.0362   -2.7475    8.7871  H     
53   H        47.8065   -3.9743    9.1553  H     
@<TRIPOS>BOND
     1    1    2 2
     2    1    6 1
     3    2    3 1
     4    3    4 1
     5    9    3 1
     6    4    5 1
     7    4    8 2
     8    5    6 1
     9    6    7 2
    10    9   10 1
    11    9   13 1
    12   10   11 1
    13   11   12 1
    14   11   16 1
    15   12   13 1
    16   12   15 1
    17   13   14 1
    18   16   17 1
    19   17   18 1
    20   17   22 1
    21   18   19 1
    22   19   20 1
    23   20   21 1
    24   20   23 1
    25   21   22 1
    26   23   24 1
    27   23   25 2
    28   24   26 1
    29   26   27 1
    30    1   28 1
    31    2   29 1
    32    5   30 1
    33    9   31 1
    34   11   32 1
    35   12   33 1
    36   13   34 1
    37   14   35 1
    38   15   36 1
    39   16   37 1
    40   16   38 1
    41   17   39 1
    42   18   40 1
    43   18   41 1
    44   19   42 1
    45   19   43 1
    46   20   44 1
    47   21   45 1
    48   21   46 1
    49   22   47 1
    50   22   48 1
    51   26   49 1
    52   26   50 1
    53   27   51 1
    54   27   52 1
    55   27   53 1
@<TRIPOS>PROPERTY_DATA
  Total_Score	| 6.2008
  Crash		| -0.8731
  Polar		| 5.2044
  FragIndex	| 1
  FragRMSD	| 1.068

