@<TRIPOS>MOLECULE
BindingDB_50331792
 29 30 0 0 0
SMALL
NO_CHARGES


@<TRIPOS>ATOM
1    O        39.3378    0.6824   12.5590  O     
2    C        39.4052   -0.7281   12.8043  C     
3    C        38.0358   -1.2938   13.2396  C     
4    C        39.7376   -1.5292   11.5142  C     
5    C        37.5301   -2.0078   11.9670  C     
6    O        38.7309   -2.5425   11.3930  O     
7    C        41.0670   -2.1718   11.4374  C     
8    O        41.7807   -2.5094   12.5367  O     
9    N        36.5333   -3.0555   12.1515  N     
10   C        35.3273   -3.0161   11.5451  C     
11   N        34.4596   -4.0063   11.7210  N     
12   C        34.7244   -5.0450   12.5060  C     
13   C        35.9384   -5.1472   13.1398  C     
14   C        36.8248   -4.1447   12.9298  C     
15   O        34.9633   -2.1242   10.7889  O     
16   O        33.8655   -5.9132   12.5909  O     
17   C        36.2406   -6.2905   13.9959  C     
18   O        41.5364   -2.5711   10.2314  O     
19   H        38.7213    0.8013   11.8051  H     
20   H        40.1408   -0.8839   13.5980  H     
21   H        38.1706   -2.0115   14.0518  H     
22   H        37.3421   -0.5163   13.5740  H     
23   H        39.6593   -0.8596   10.6518  H     
24   H        37.1498   -1.2308   11.2880  H     
25   H        33.6064   -3.9780   11.2550  H     
26   H        37.7299   -4.2197   13.3381  H     
27   H        35.4815   -6.3689   14.7780  H     
28   H        37.2182   -6.2117   14.4770  H     
29   H        36.2241   -7.2080   13.4033  H     
@<TRIPOS>BOND
     1    2    1 1
     2    2    3 1
     3    2    4 1
     4    3    5 1
     5    4    6 1
     6    4    7 1
     7    5    6 1
     8    5    9 1
     9    7    8 1
    10    7   18 2
    11    9   10 1
    12    9   14 1
    13   10   11 1
    14   10   15 2
    15   11   12 1
    16   12   13 1
    17   12   16 2
    18   13   14 2
    19   13   17 1
    20    1   19 1
    21    2   20 1
    22    3   21 1
    23    3   22 1
    24    4   23 1
    25    5   24 1
    26   11   25 1
    27   14   26 1
    28   17   27 1
    29   17   28 1
    30   17   29 1
@<TRIPOS>PROPERTY_DATA
  Total_Score	| 2.8072
  Crash		| -0.3470
  Polar		| 2.4567
  FragIndex	| 1
  FragRMSD	| 0.789

