@<TRIPOS>MOLECULE
BindingDB_50292716
 43 45 0 0 0
SMALL
NO_CHARGES


@<TRIPOS>ATOM
1    C        36.2868   -4.9780   13.1681  C     
2    C        37.0366   -3.9035   12.8359  C     
3    N        36.5786   -2.9106   12.0199  N     
4    C        35.3390   -3.0270   11.5096  C     
5    N        34.5801   -4.0718   11.8326  N     
6    C        35.0078   -5.0212   12.6618  C     
7    O        34.2253   -5.9257   12.9198  O     
8    O        34.8361   -2.2059   10.7565  O     
9    C        37.4372   -1.7727   11.7432  C     
10   O        38.8024   -2.1778   11.5187  O     
11   C        39.6874   -1.1529   12.0131  C     
12   C        38.8276   -0.0804   12.7350  C     
13   C        37.4733   -0.7781   12.9206  C     
14   O        38.6738    1.1006   11.9497  O     
15   C        40.7703   -1.7706   12.9412  C     
16   N        41.4694   -2.9676   12.3839  N     
17   C        42.0896   -2.8181   11.0461  C     
18   C        43.0573   -4.0108   10.9347  C     
19   C        43.3477   -4.4487   12.3824  C     
20   C        42.5428   -3.4827   13.2634  C     
21   C        36.8711   -6.0142   14.0142  C     
22   H        37.9593   -3.8394   13.2123  H     
23   H        33.6858   -4.1363   11.4598  H     
24   H        37.1227   -1.2302   10.8412  H     
25   H        40.2021   -0.7083   11.1459  H     
26   H        39.2260    0.2250   13.7085  H     
27   H        36.6254   -0.0771   12.8983  H     
28   H        37.4688   -1.3065   13.8811  H     
29   H        39.5410    1.5660   11.9947  H     
30   H        41.5031   -0.9926   13.1770  H     
31   H        40.2907   -2.0707   13.8760  H     
32   H        40.7705   -3.7103   12.2981  H     
33   H        41.3273   -2.8656   10.2542  H     
34   H        42.6364   -1.8678   10.9611  H     
35   H        42.5966   -4.8345   10.3890  H     
36   H        43.9753   -3.7363   10.4172  H     
37   H        43.0110   -5.4782   12.5526  H     
38   H        44.4167   -4.3897   12.6207  H     
39   H        43.1881   -2.6711   13.6197  H     
40   H        42.1121   -3.9932   14.1247  H     
41   H        37.7043   -6.4850   13.4883  H     
42   H        36.1593   -6.7932   14.2872  H     
43   H        37.2462   -5.5647   14.9353  H     
@<TRIPOS>BOND
     1    1    2 2
     2    1    6 1
     3    1   21 1
     4    2    3 1
     5    3    4 1
     6    9    3 1
     7    4    5 1
     8    4    8 2
     9    5    6 1
    10    6    7 2
    11    9   10 1
    12    9   13 1
    13   10   11 1
    14   11   12 1
    15   11   15 1
    16   12   13 1
    17   12   14 1
    18   15   16 1
    19   16   17 1
    20   16   20 1
    21   17   18 1
    22   18   19 1
    23   19   20 1
    24    2   22 1
    25    5   23 1
    26    9   24 1
    27   11   25 1
    28   12   26 1
    29   13   27 1
    30   13   28 1
    31   14   29 1
    32   15   30 1
    33   15   31 1
    34   16   32 1
    35   17   33 1
    36   17   34 1
    37   18   35 1
    38   18   36 1
    39   19   37 1
    40   19   38 1
    41   20   39 1
    42   20   40 1
    43   21   41 1
    44   21   42 1
    45   21   43 1
@<TRIPOS>PROPERTY_DATA
  Total_Score	| 3.3118
  Crash		| -0.4014
  Polar		| 2.0103
  FragIndex	| 1
  FragRMSD	| 0.759

