@<TRIPOS>MOLECULE
BindingDB_50118239
 36 37 0 0 0
SMALL
NO_CHARGES


@<TRIPOS>ATOM
1    C        37.4837   -2.2931   11.8276  C     
2    C        35.6511   -4.9458   13.6400  C     
3    C        36.5944   -4.0501   13.2955  C     
4    N        36.4220   -3.2032   12.2312  N     
5    C        35.2411   -3.2343   11.5761  C     
6    N        34.3117   -4.1253   11.9163  N     
7    C        34.5003   -4.9856   12.9131  C     
8    O        33.6377   -5.8197   13.1439  O     
9    O        34.9619   -2.4817   10.6534  O     
10   O        38.7935   -2.7892   12.1604  O     
11   C        39.6469   -1.6469   12.2811  C     
12   C        38.7761   -0.6300   13.0464  C     
13   C        37.3613   -0.8915   12.4829  C     
14   C        40.9912   -2.0263   12.9602  C     
15   O        42.0634   -1.1850   12.4926  O     
16   O        36.9591    0.0949   11.5241  O     
17   O        39.2295    0.7170   12.8746  O     
18   P        42.7728   -1.5851   11.1557  P     
19   O        41.8470   -2.0492   10.1482  O     
20   O        43.3994   -0.3064   10.5557  O     
21   O        43.8257   -2.7133   11.3558  O     
22   P        45.2195   -2.2538   11.8616  P     
23   O        45.8406   -1.2058   10.9049  O     
24   O        46.0961   -3.3950   11.8297  O     
25   O        45.2238   -1.7182   13.3126  O     
26   H        37.4879   -2.1920   10.7338  H     
27   H        35.7886   -5.5516   14.4154  H     
28   H        37.4242   -4.0138   13.8429  H     
29   H        33.4884   -4.1602   11.4057  H     
30   H        39.8506   -1.2663   11.2728  H     
31   H        38.7778   -0.8646   14.1177  H     
32   H        36.6294   -0.8950   13.2981  H     
33   H        40.9097   -1.8804   14.0395  H     
34   H        41.2035   -3.0921   12.8177  H     
35   H        36.1884    0.5469   11.9382  H     
36   H        40.1045    0.7510   13.3177  H     
@<TRIPOS>BOND
     1    1    4 1
     2    1   10 1
     3    1   13 1
     4    2    3 2
     5    2    7 1
     6    3    4 1
     7    4    5 1
     8    5    6 1
     9    5    9 2
    10    6    7 1
    11    7    8 2
    12   10   11 1
    13   11   12 1
    14   11   14 1
    15   12   13 1
    16   12   17 1
    17   13   16 1
    18   14   15 1
    19   15   18 1
    20   18   19 2
    21   18   20 1
    22   18   21 1
    23   21   22 1
    24   22   23 1
    25   22   24 2
    26   22   25 1
    27    1   26 1
    28    2   27 1
    29    3   28 1
    30    6   29 1
    31   11   30 1
    32   12   31 1
    33   13   32 1
    34   14   33 1
    35   14   34 1
    36   16   35 1
    37   17   36 1
@<TRIPOS>PROPERTY_DATA
  Total_Score	| 5.6045
  Crash		| -0.8389
  Polar		| 6.4998
  FragIndex	| 1
  FragRMSD	| 0.373

