@<TRIPOS>MOLECULE
BindingDB_50292714
 46 48 0 0 0
SMALL
NO_CHARGES


@<TRIPOS>ATOM
1    C        35.6515   -5.0166   13.6634  C     
2    C        36.5685   -4.0783   13.3970  C     
3    N        36.4193   -3.2000   12.3531  N     
4    C        35.2703   -3.2541   11.6438  C     
5    N        34.3546   -4.1775   11.9211  N     
6    C        34.5322   -5.0705   12.8923  C     
7    O        33.6767   -5.9225   13.0776  O     
8    O        35.0034   -2.4788   10.7331  O     
9    C        37.4741   -2.2564   12.0012  C     
10   O        38.6496   -2.3866   12.8109  O     
11   C        39.2689   -1.1137   13.0470  C     
12   C        38.0665   -0.1006   13.0699  C     
13   C        37.0817   -0.7569   12.0648  C     
14   O        35.7136   -0.5364   12.4203  O     
15   N        38.3453    1.3710   12.7948  N     
16   C        37.1462    2.2812   12.8280  C     
17   C        36.6192    2.5697   14.2650  C     
18   C        37.7579    3.1475   15.1520  C     
19   C        39.0382    2.2689   15.0798  C     
20   C        39.4460    1.9982   13.6025  C     
21   C        39.9904   -1.2590   14.4321  C     
22   O        40.6425   -2.5235   14.5936  O     
23   C        40.2732   -0.9166   11.9559  C     
24   O        40.2943    0.1845   11.1672  O     
25   O        41.0950   -1.9305   11.5891  O     
26   H        35.7724   -5.6458   14.4284  H     
27   H        37.3654   -4.0339   13.9924  H     
28   H        33.5412   -4.2132   11.3973  H     
29   H        37.8073   -2.4896   10.9803  H     
30   H        37.5967   -0.1778   14.0574  H     
31   H        37.2313   -0.3170   11.0756  H     
32   H        35.6737   -0.5460   13.4041  H     
33   H        38.6714    1.3976   11.8282  H     
34   H        37.4226    3.2393   12.3711  H     
35   H        36.3270    1.8886   12.2135  H     
36   H        35.8002    3.2919   14.2173  H     
37   H        36.2349    1.6454   14.7131  H     
38   H        37.9985    4.1683   14.8180  H     
39   H        37.4114    3.2046   16.1911  H     
40   H        39.8613    2.7823   15.6008  H     
41   H        38.8530    1.3151   15.5903  H     
42   H        40.3467    1.3911   13.5684  H     
43   H        39.7270    2.9429   13.1378  H     
44   H        40.7489   -0.4886   14.5908  H     
45   H        39.2645   -1.1854   15.2460  H     
46   H        41.3462   -2.5463   13.9074  H     
@<TRIPOS>BOND
     1    1    2 2
     2    1    6 1
     3    2    3 1
     4    3    4 1
     5    9    3 1
     6    4    5 1
     7    4    8 2
     8    5    6 1
     9    6    7 2
    10    9   10 1
    11    9   13 1
    12   10   11 1
    13   11   12 1
    14   11   21 1
    15   11   23 1
    16   12   13 1
    17   12   15 1
    18   13   14 1
    19   15   16 1
    20   15   20 1
    21   16   17 1
    22   17   18 1
    23   18   19 1
    24   19   20 1
    25   21   22 1
    26   23   24 1
    27   23   25 2
    28    1   26 1
    29    2   27 1
    30    5   28 1
    31    9   29 1
    32   12   30 1
    33   13   31 1
    34   14   32 1
    35   15   33 1
    36   16   34 1
    37   16   35 1
    38   17   36 1
    39   17   37 1
    40   18   38 1
    41   18   39 1
    42   19   40 1
    43   19   41 1
    44   20   42 1
    45   20   43 1
    46   21   44 1
    47   21   45 1
    48   22   46 1
@<TRIPOS>PROPERTY_DATA
  Total_Score	| 4.4912
  Crash		| -0.4995
  Polar		| 2.9689
  FragIndex	| 1
  FragRMSD	| 0.364

