@<TRIPOS>MOLECULE
BindingDB_50292718
 41 43 0 0 0
SMALL
NO_CHARGES


@<TRIPOS>ATOM
1    C        36.0184   -4.9213   13.4810  C     
2    C        36.8089   -3.8890   13.1382  C     
3    N        36.4503   -3.0012   12.1634  N     
4    C        35.2580   -3.1773   11.5373  C     
5    N        34.4787   -4.2056   11.8798  N     
6    C        34.8298   -5.0643   12.8317  C     
7    O        34.0754   -5.9888   13.1044  O     
8    O        34.8297   -2.4308   10.6779  O     
9    C        37.3479   -1.9097   11.8295  C     
10   O        38.7064   -2.3774   11.7236  O     
11   C        39.5972   -1.2826   12.0118  C     
12   C        38.7353   -0.1495   12.6586  C     
13   C        37.3679   -0.8035   12.9035  C     
14   O        36.2861    0.1179   12.7669  O     
15   O        38.5971    0.9921   11.8193  O     
16   C        40.7551   -1.7476   12.9321  C     
17   N        41.5474   -2.9058   12.3951  N     
18   C        42.0432   -2.8104   11.0043  C     
19   C        43.1187   -3.9154   10.9306  C     
20   C        43.6134   -4.1453   12.3697  C     
21   C        42.7345   -3.2189   13.2269  C     
22   H        36.3016   -5.5630   14.1876  H     
23   H        37.6757   -3.7886   13.6176  H     
24   H        33.6324   -4.3256   11.4192  H     
25   H        37.0960   -1.4640   10.8618  H     
26   H        40.0486   -0.9728   11.0605  H     
27   H        39.1168    0.2219   13.6118  H     
28   H        37.3540   -1.2402   13.9110  H     
29   H        35.6211   -0.1617   13.4329  H     
30   H        39.4477    1.4899   11.9009  H     
31   H        41.4296   -0.8970   13.1112  H     
32   H        40.3249   -2.0544   13.9040  H     
33   H        40.9345   -3.7299   12.4343  H     
34   H        41.2284   -2.9972   10.2887  H     
35   H        42.4850   -1.8208   10.8071  H     
36   H        42.7049   -4.8430   10.5371  H     
37   H        43.9464   -3.6405   10.2785  H     
38   H        43.4741   -5.1831   12.6733  H     
39   H        44.6626   -3.8844   12.4870  H     
40   H        43.2845   -2.3077   13.4899  H     
41   H        42.4283   -3.7140   14.1590  H     
@<TRIPOS>BOND
     1    1    2 2
     2    1    6 1
     3    2    3 1
     4    3    4 1
     5    9    3 1
     6    4    5 1
     7    4    8 2
     8    5    6 1
     9    6    7 2
    10    9   10 1
    11    9   13 1
    12   10   11 1
    13   11   12 1
    14   11   16 1
    15   12   13 1
    16   12   15 1
    17   13   14 1
    18   16   17 1
    19   17   18 1
    20   17   21 1
    21   18   19 1
    22   19   20 1
    23   20   21 1
    24    1   22 1
    25    2   23 1
    26    5   24 1
    27    9   25 1
    28   11   26 1
    29   12   27 1
    30   13   28 1
    31   14   29 1
    32   15   30 1
    33   16   31 1
    34   16   32 1
    35   17   33 1
    36   18   34 1
    37   18   35 1
    38   19   36 1
    39   19   37 1
    40   20   38 1
    41   20   39 1
    42   21   40 1
    43   21   41 1
@<TRIPOS>PROPERTY_DATA
  Total_Score	| 3.8313
  Crash		| -0.4183
  Polar		| 3.3432
  FragIndex	| 1
  FragRMSD	| 0.975

