@<TRIPOS>MOLECULE
BindingDB_50292719
 44 46 0 0 0
SMALL
NO_CHARGES


@<TRIPOS>ATOM
1    C        35.6300   -4.9382   13.6291  C     
2    C        36.5128   -3.9705   13.3129  C     
3    N        36.2710   -3.0788   12.2997  N     
4    C        35.1100   -3.1979   11.6179  C     
5    N        34.2456   -4.1629   11.9242  N     
6    C        34.4812   -5.0303   12.9044  C     
7    O        33.6622   -5.9108   13.1240  O     
8    O        34.7880   -2.4798   10.6805  O     
9    C        37.2837   -2.0988   11.9332  C     
10   O        38.4780   -2.7775   11.5484  O     
11   C        39.5993   -1.8961   11.7365  C     
12   C        39.1106   -0.6818   12.5795  C     
13   C        37.7080   -1.1110   13.0386  C     
14   O        36.7980   -0.0205   13.1680  O     
15   O        39.0485    0.5016   11.7807  O     
16   C        40.7302   -2.7405   12.3845  C     
17   N        42.1115   -2.1587   12.3522  N     
18   C        42.5559   -1.7377   10.9833  C     
19   C        43.9788   -1.1171   11.0094  C     
20   C        44.9968   -2.1020   11.6308  C     
21   C        44.5324   -2.5337   13.0409  C     
22   C        43.0895   -3.0950   12.9997  C     
23   H        35.8180   -5.5813   14.3657  H     
24   H        37.3607   -3.9272   13.8309  H     
25   H        33.4407   -4.2594   11.3911  H     
26   H        36.9776   -1.5046   11.0654  H     
27   H        39.9379   -1.5636   10.7409  H     
28   H        39.7552   -0.4781   13.4402  H     
29   H        37.7911   -1.6131   14.0047  H     
30   H        36.0688   -0.3547   13.7321  H     
31   H        39.9760    0.6818   11.5244  H     
32   H        40.4456   -2.9258   13.4240  H     
33   H        40.7582   -3.7151   11.8803  H     
34   H        42.0829   -1.3121   12.9251  H     
35   H        42.5477   -2.5878   10.2912  H     
36   H        41.8569   -0.9813   10.5919  H     
37   H        44.2923   -0.8607    9.9969  H     
38   H        43.9629   -0.1968   11.5993  H     
39   H        45.0997   -2.9822   10.9886  H     
40   H        45.9738   -1.6173   11.6982  H     
41   H        45.2110   -3.3006   13.4273  H     
42   H        44.5698   -1.6782   13.7226  H     
43   H        42.7798   -3.2945   14.0293  H     
44   H        43.1036   -4.0509   12.4655  H     
@<TRIPOS>BOND
     1    1    2 2
     2    1    6 1
     3    2    3 1
     4    3    4 1
     5    9    3 1
     6    4    5 1
     7    4    8 2
     8    5    6 1
     9    6    7 2
    10    9   10 1
    11    9   13 1
    12   10   11 1
    13   11   12 1
    14   11   16 1
    15   12   13 1
    16   12   15 1
    17   13   14 1
    18   16   17 1
    19   17   18 1
    20   17   22 1
    21   18   19 1
    22   19   20 1
    23   20   21 1
    24   21   22 1
    25    1   23 1
    26    2   24 1
    27    5   25 1
    28    9   26 1
    29   11   27 1
    30   12   28 1
    31   13   29 1
    32   14   30 1
    33   15   31 1
    34   16   32 1
    35   16   33 1
    36   17   34 1
    37   18   35 1
    38   18   36 1
    39   19   37 1
    40   19   38 1
    41   20   39 1
    42   20   40 1
    43   21   41 1
    44   21   42 1
    45   22   43 1
    46   22   44 1
@<TRIPOS>PROPERTY_DATA
  Total_Score	| 4.5164
  Crash		| -0.6489
  Polar		| 3.2203
  FragIndex	| 1
  FragRMSD	| 1.206

