@<TRIPOS>MOLECULE
BindingDB_50292722
 32 33 0 0 0
SMALL
NO_CHARGES


@<TRIPOS>ATOM
1    O        40.2201   -0.8240   15.3825  O     
2    C        39.4945   -1.8806   14.7538  C     
3    C        39.6833   -1.8525   13.2086  C     
4    C        39.1058   -0.5939   12.5100  C     
5    O        39.7415   -0.0210   11.3343  O     
6    C        37.6723   -1.0615   12.1719  C     
7    O        37.1168   -0.3728   11.0442  O     
8    C        37.8238   -2.5842   11.9379  C     
9    O        39.0240   -2.9940   12.6236  O     
10   N        36.6348   -3.3566   12.2909  N     
11   C        35.4922   -3.2608   11.5707  C     
12   O        35.3550   -2.5128   10.6110  O     
13   N        34.4507   -4.0448   11.8555  N     
14   C        34.4923   -4.9258   12.8502  C     
15   C        35.5982   -5.0215   13.6340  C     
16   C        36.6534   -4.2334   13.3462  C     
17   P        41.1216   -0.4556   10.7475  P     
18   O        42.1646   -0.7664   11.8303  O     
19   O        41.6480    0.6885   10.0485  O     
20   O        41.0459   -1.6071    9.7238  O     
21   O        33.5391   -5.6712   13.0224  O     
22   H        41.1651   -1.0245   15.2014  H     
23   H        39.8589   -2.8355   15.1475  H     
24   H        38.4293   -1.7844   15.0059  H     
25   H        40.7637   -1.9466   13.0293  H     
26   H        39.0487    0.2339   13.2239  H     
27   H        37.0171   -0.8870   13.0373  H     
28   H        37.3854   -0.9097   10.2658  H     
29   H        38.0501   -2.7628   10.8810  H     
30   H        33.6567   -4.0035   11.2952  H     
31   H        35.6307   -5.6623   14.3953  H     
32   H        37.4482   -4.3038   13.9366  H     
@<TRIPOS>BOND
     1    1    2 1
     2    3    2 1
     3    3    4 1
     4    3    9 1
     5    4    5 1
     6    4    6 1
     7    5   17 1
     8    6    7 1
     9    6    8 1
    10    8    9 1
    11    8   10 1
    12   10   11 1
    13   10   16 1
    14   11   12 2
    15   11   13 1
    16   13   14 1
    17   14   15 1
    18   14   21 2
    19   15   16 2
    20   17   18 1
    21   17   19 2
    22   17   20 1
    23    1   22 1
    24    2   23 1
    25    2   24 1
    26    3   25 1
    27    4   26 1
    28    6   27 1
    29    7   28 1
    30    8   29 1
    31   13   30 1
    32   15   31 1
    33   16   32 1
@<TRIPOS>PROPERTY_DATA
  Total_Score	| 4.3718
  Crash		| -1.0819
  Polar		| 5.1508
  FragIndex	| 1
  FragRMSD	| 0.871

