@<TRIPOS>MOLECULE
BindingDB_32567
 56 58 0 0 0
SMALL
NO_CHARGES


@<TRIPOS>ATOM
1    C        55.6917  -23.7737   50.6556  C     
2    C        55.3314  -22.9317   51.7227  C     
3    C        59.4479  -22.8343   52.6409  C     
4    C        58.6754  -21.7055   51.9108  C     
5    C        58.9918  -21.4693   54.6687  C     
6    N        57.4938  -21.3570   52.6617  N     
7    N        59.4720  -22.7001   54.0822  N     
8    S        56.0015  -21.3294   51.8512  S     
9    O        56.1456  -20.6061   50.4350  O     
10   O        54.9345  -20.4504   52.6498  O     
11   C        60.3719  -23.4263   54.7904  C     
12   C        62.6893  -23.9870   55.0006  C     
13   C        60.0405  -24.2013   55.9373  C     
14   C        61.1049  -24.8743   56.5919  C     
15   C        62.4254  -24.7753   56.1317  C     
16   C        55.1744  -25.0782   50.5700  C     
17   C        54.2450  -25.5849   51.5180  C     
18   C        53.9255  -24.7252   52.6056  C     
19   C        54.4566  -23.4262   52.7090  C     
20   C        53.6079  -26.9669   51.4152  C     
21   C        52.4602  -27.1204   52.4684  C     
22   C        52.9641  -27.2898   50.0183  C     
23   C        54.6903  -28.0585   51.6936  C     
24   N        61.6659  -23.3500   54.3865  N     
25   C        58.6294  -24.3729   56.4079  C     
26   F        58.5023  -25.0326   57.6038  F     
27   F        57.9933  -23.1733   56.6129  F     
28   F        57.9094  -25.0755   55.4667  F     
29   C        57.5930  -21.0755   54.0897  C     
30   C        57.2995  -19.5876   54.4251  C     
31   H        56.3411  -23.4474   49.9340  H     
32   H        58.9669  -23.7875   52.4074  H     
33   H        60.4582  -22.8657   52.2229  H     
34   H        59.3161  -20.8205   51.8345  H     
35   H        58.4556  -22.0382   50.8896  H     
36   H        58.9320  -21.5128   55.7645  H     
37   H        59.7216  -20.6898   54.4258  H     
38   H        63.6399  -23.8875   54.6473  H     
39   H        60.9233  -25.4605   57.4102  H     
40   H        63.1808  -25.2762   56.6056  H     
41   H        55.4962  -25.6507   49.7939  H     
42   H        53.2870  -25.0314   53.3408  H     
43   H        54.2022  -22.8465   53.5134  H     
44   H        52.8391  -27.0629   53.4891  H     
45   H        51.9631  -28.0905   52.3681  H     
46   H        51.7129  -26.3343   52.3447  H     
47   H        52.1968  -26.5557   49.7629  H     
48   H        52.4939  -28.2785   50.0104  H     
49   H        53.7183  -27.2808   49.2274  H     
50   H        55.5096  -27.9833   50.9687  H     
51   H        54.2592  -29.0646   51.6226  H     
52   H        55.1097  -27.9560   52.6981  H     
53   H        56.8486  -21.6946   54.6085  H     
54   H        57.6036  -19.3424   55.4436  H     
55   H        56.2328  -19.3777   54.3485  H     
56   H        57.8286  -18.9339   53.7288  H     
@<TRIPOS>BOND
     1    1    2 1
     2    1   16 2
     3    2    8 1
     4    2   19 2
     5    3    4 1
     6    3    7 1
     7    4    6 1
     8    5    7 1
     9    5   29 1
    10    6    8 1
    11    6   29 1
    12    7   11 1
    13    8    9 2
    14    8   10 2
    15   11   13 1
    16   11   24 2
    17   12   15 2
    18   12   24 1
    19   13   14 2
    20   13   25 1
    21   14   15 1
    22   16   17 1
    23   17   18 2
    24   17   20 1
    25   18   19 1
    26   20   21 1
    27   20   22 1
    28   20   23 1
    29   25   26 1
    30   25   27 1
    31   25   28 1
    32   29   30 1
    33    1   31 1
    34    3   32 1
    35    3   33 1
    36    4   34 1
    37    4   35 1
    38    5   36 1
    39    5   37 1
    40   12   38 1
    41   14   39 1
    42   15   40 1
    43   16   41 1
    44   18   42 1
    45   19   43 1
    46   21   44 1
    47   21   45 1
    48   21   46 1
    49   22   47 1
    50   22   48 1
    51   22   49 1
    52   23   50 1
    53   23   51 1
    54   23   52 1
    55   29   53 1
    56   30   54 1
    57   30   55 1
    58   30   56 1
@<TRIPOS>PROPERTY_DATA
  Total_Score	| 5.8829
  Crash		| -2.3802
  Polar		| 1.1613
  FragIndex	| 1
  FragRMSD	| 0.538

