@<TRIPOS>MOLECULE
BindingDB_32572
 56 58 0 0 0
SMALL
NO_CHARGES


@<TRIPOS>ATOM
1    C        53.8178  -22.9070   51.6644  C     
2    C        55.2098  -22.7673   51.5172  C     
3    C        57.4571  -23.8113   54.2933  C     
4    C        59.1977  -22.4932   53.2751  C     
5    N        56.9599  -21.5658   53.4147  N     
6    N        58.8737  -23.4172   54.3587  N     
7    S        56.0172  -21.3077   52.0204  S     
8    O        56.8804  -20.8612   50.7617  O     
9    O        54.9875  -20.1234   52.2711  O     
10   C        59.7021  -23.8018   55.4109  C     
11   C        59.5505  -24.6323   57.7092  C     
12   C        61.1387  -23.8009   55.5381  C     
13   C        61.7167  -24.2237   56.7751  C     
14   C        60.9380  -24.6345   57.8600  C     
15   C        53.2104  -24.1609   51.4848  C     
16   C        53.9548  -25.3263   51.1789  C     
17   C        55.3449  -25.1361   50.9548  C     
18   C        55.9625  -23.8776   51.1131  C     
19   C        53.2663  -26.6866   51.1357  C     
20   C        54.2449  -27.8960   50.9253  C     
21   C        52.5110  -26.9557   52.4823  C     
22   C        52.2401  -26.7124   49.9546  C     
23   N        59.0306  -24.2316   56.5276  N     
24   C        62.1030  -23.4126   54.4584  C     
25   F        63.4290  -23.7300   54.6755  F     
26   F        61.8002  -24.0625   53.2832  F     
27   F        62.1034  -22.0410   54.3366  F     
28   C        58.3589  -21.1908   53.4391  C     
29   C        58.8043  -20.4172   54.7178  C     
30   C        56.5298  -22.5664   54.3684  C     
31   H        53.2435  -22.1118   51.9587  H     
32   H        57.2874  -24.3392   53.3506  H     
33   H        57.1251  -24.5148   55.0669  H     
34   H        60.2086  -22.1492   53.1818  H     
35   H        58.9737  -22.9757   52.3143  H     
36   H        58.9362  -24.9356   58.4739  H     
37   H        62.7297  -24.2283   56.9161  H     
38   H        61.3676  -24.9324   58.7412  H     
39   H        52.2032  -24.2129   51.6339  H     
40   H        55.9491  -25.9141   50.6992  H     
41   H        56.9824  -23.8001   50.9942  H     
42   H        54.7804  -27.8113   49.9754  H     
43   H        53.7059  -28.8467   50.9115  H     
44   H        54.9800  -27.9414   51.7352  H     
45   H        53.1885  -26.8591   53.3367  H     
46   H        52.0819  -27.9602   52.5089  H     
47   H        51.6831  -26.2560   52.6223  H     
48   H        51.5161  -25.8973   50.0323  H     
49   H        51.6735  -27.6499   49.9479  H     
50   H        52.7539  -26.6240   48.9930  H     
51   H        58.5990  -20.5329   52.6030  H     
52   H        58.4475  -20.9034   55.6170  H     
53   H        58.4200  -19.4005   54.6947  H     
54   H        59.9010  -20.3988   54.7978  H     
55   H        55.4969  -22.8776   54.2174  H     
56   H        56.5663  -22.1545   55.3786  H     
@<TRIPOS>BOND
     1    1    2 1
     2    1   15 2
     3    2    7 1
     4    2   18 2
     5    3    6 1
     6    3   30 1
     7    4    6 1
     8    4   28 1
     9    5    7 1
    10    5   28 1
    11    5   30 1
    12    6   10 1
    13    7    8 2
    14    7    9 2
    15   10   12 1
    16   10   23 2
    17   11   14 2
    18   11   23 1
    19   12   13 2
    20   12   24 1
    21   13   14 1
    22   15   16 1
    23   16   17 2
    24   16   19 1
    25   17   18 1
    26   19   20 1
    27   19   21 1
    28   19   22 1
    29   24   25 1
    30   24   26 1
    31   24   27 1
    32   28   29 1
    33    1   31 1
    34    3   32 1
    35    3   33 1
    36    4   34 1
    37    4   35 1
    38   11   36 1
    39   13   37 1
    40   14   38 1
    41   15   39 1
    42   17   40 1
    43   18   41 1
    44   20   42 1
    45   20   43 1
    46   20   44 1
    47   21   45 1
    48   21   46 1
    49   21   47 1
    50   22   48 1
    51   22   49 1
    52   22   50 1
    53   28   51 1
    54   29   52 1
    55   29   53 1
    56   29   54 1
    57   30   55 1
    58   30   56 1
@<TRIPOS>PROPERTY_DATA
  Total_Score	| 5.7074
  Crash		| -1.2851
  Polar		| 0.3090
  FragIndex	| 1
  FragRMSD	| 1.452

