@<TRIPOS>MOLECULE
BindingDB_32565
 55 57 0 0 0
SMALL
NO_CHARGES


@<TRIPOS>ATOM
1    C        55.5935  -23.8069   50.6929  C     
2    C        55.1763  -22.9063   51.6894  C     
3    C        58.9697  -21.4387   54.5644  C     
4    C        57.5263  -21.3488   54.0135  C     
5    C        58.6222  -21.8030   51.7880  C     
6    C        59.6081  -22.7446   52.5375  C     
7    N        57.4471  -21.5099   52.5837  N     
8    N        59.7175  -22.5371   53.9771  N     
9    S        55.9434  -21.3518   51.8218  S     
10   O        56.1057  -20.6977   50.3758  O     
11   O        55.0082  -20.3129   52.5854  O     
12   C        60.5272  -23.3294   54.7441  C     
13   C        60.8868  -24.8629   56.6382  C     
14   C        61.9226  -23.4025   54.4945  C     
15   C        62.7723  -24.1764   55.2861  C     
16   C        62.2692  -24.9198   56.3693  C     
17   C        55.0252  -25.0876   50.6117  C     
18   C        54.0217  -25.5270   51.5188  C     
19   C        53.6278  -24.5978   52.5264  C     
20   C        54.1945  -23.3135   52.6106  C     
21   C        53.4256  -26.9198   51.3815  C     
22   C        52.7116  -27.0544   49.9942  C     
23   C        54.5541  -27.9936   51.4989  C     
24   C        52.3605  -27.2848   52.4783  C     
25   C        60.0376  -24.0684   55.8533  C     
26   O        63.0471  -25.7462   57.1252  O     
27   C        64.2261  -25.1616   57.7286  C     
28   H        56.3210  -23.5451   50.0231  H     
29   H        59.4945  -20.5098   54.3021  H     
30   H        58.9187  -21.4697   55.6559  H     
31   H        56.9036  -22.1182   54.4977  H     
32   H        57.1238  -20.3535   54.2736  H     
33   H        59.1276  -20.8497   51.5588  H     
34   H        58.3473  -22.2818   50.8317  H     
35   H        59.2485  -23.7711   52.3879  H     
36   H        60.5804  -22.6517   52.0435  H     
37   H        60.4891  -25.4060   57.4087  H     
38   H        62.3395  -22.8526   53.7509  H     
39   H        63.7681  -24.1984   55.0790  H     
40   H        55.3478  -25.7046   49.8630  H     
41   H        52.9098  -24.8240   53.2176  H     
42   H        53.8945  -22.6780   53.3570  H     
43   H        51.9542  -26.2768   49.8719  H     
44   H        52.2144  -28.0236   49.8958  H     
45   H        53.4155  -26.9691   49.1654  H     
46   H        55.3048  -27.8817   50.7155  H     
47   H        54.1550  -29.0053   51.4130  H     
48   H        55.0634  -27.9117   52.4587  H     
49   H        52.8058  -27.2224   53.4776  H     
50   H        51.9789  -28.2909   52.3460  H     
51   H        51.5087  -26.5964   52.4360  H     
52   H        59.0352  -24.0751   56.0573  H     
53   H        65.0160  -25.0622   56.9748  H     
54   H        64.5786  -25.8350   58.4988  H     
55   H        63.9969  -24.1881   58.1794  H     
@<TRIPOS>BOND
     1    1    2 1
     2    1   17 2
     3    2    9 1
     4    2   20 2
     5    3    4 1
     6    3    8 1
     7    4    7 1
     8    5    6 1
     9    5    7 1
    10    6    8 1
    11    7    9 1
    12    8   12 1
    13    9   10 2
    14    9   11 2
    15   12   14 1
    16   12   25 2
    17   13   16 2
    18   13   25 1
    19   14   15 2
    20   15   16 1
    21   16   26 1
    22   17   18 1
    23   18   19 2
    24   18   21 1
    25   19   20 1
    26   21   22 1
    27   21   23 1
    28   21   24 1
    29   26   27 1
    30    1   28 1
    31    3   29 1
    32    3   30 1
    33    4   31 1
    34    4   32 1
    35    5   33 1
    36    5   34 1
    37    6   35 1
    38    6   36 1
    39   13   37 1
    40   14   38 1
    41   15   39 1
    42   17   40 1
    43   19   41 1
    44   20   42 1
    45   22   43 1
    46   22   44 1
    47   22   45 1
    48   23   46 1
    49   23   47 1
    50   23   48 1
    51   24   49 1
    52   24   50 1
    53   24   51 1
    54   25   52 1
    55   27   53 1
    56   27   54 1
    57   27   55 1
@<TRIPOS>PROPERTY_DATA
  Total_Score	| 7.2483
  Crash		| -0.8133
  Polar		| 1.1647
  FragIndex	| 1
  FragRMSD	| 0.518

