@<TRIPOS>MOLECULE
BindingDB_32551
 41 43 0 0 0
SMALL
NO_CHARGES


@<TRIPOS>ATOM
1    C        53.9914  -23.2023   51.8829  C     
2    C        55.2950  -22.8902   51.4461  C     
3    C        57.8424  -23.6138   54.1667  C     
4    C        57.0720  -22.2694   54.2287  C     
5    C        58.6470  -21.2853   52.6436  C     
6    C        59.3984  -22.6425   52.5752  C     
7    N        57.2840  -21.5332   53.0078  N     
8    N        59.2387  -23.3797   53.8273  N     
9    S        56.0217  -21.3714   51.8867  S     
10   O        56.4724  -20.6596   50.5375  O     
11   O        54.9405  -20.3657   52.4787  O     
12   C        60.2727  -23.7918   54.6462  C     
13   C        60.8891  -24.9117   56.7132  C     
14   C        61.6555  -23.5872   54.3925  C     
15   C        62.6321  -24.0476   55.2974  C     
16   C        62.2530  -24.7163   56.4715  C     
17   N        59.9847  -24.4520   55.8108  N     
18   C        53.4032  -24.4344   51.5503  C     
19   C        54.1058  -25.3860   50.7784  C     
20   C        55.4186  -25.0792   50.3579  C     
21   C        56.0079  -23.8439   50.6860  C     
22   C        53.4524  -26.6677   50.4214  C     
23   H        53.4630  -22.5337   52.4512  H     
24   H        57.6918  -24.1234   55.1150  H     
25   H        57.3945  -24.2549   53.4034  H     
26   H        56.0170  -22.4629   54.4283  H     
27   H        57.4532  -21.6806   55.0671  H     
28   H        59.1115  -20.6711   53.4163  H     
29   H        58.7416  -20.7426   51.6997  H     
30   H        58.9771  -23.2259   51.7576  H     
31   H        60.4206  -22.4465   52.2754  H     
32   H        60.5721  -25.3925   57.5567  H     
33   H        61.9848  -23.1047   53.5568  H     
34   H        63.6241  -23.8895   55.0997  H     
35   H        62.9561  -25.0514   57.1362  H     
36   H        52.4561  -24.6382   51.8818  H     
37   H        55.9606  -25.7547   49.8083  H     
38   H        56.9598  -23.6443   50.3687  H     
39   H        53.1917  -27.2173   51.3278  H     
40   H        54.0972  -27.3009   49.8083  H     
41   H        52.5407  -26.4643   49.8573  H     
@<TRIPOS>BOND
     1    1    2 1
     2    1   18 2
     3    2    9 1
     4    2   21 2
     5    3    4 1
     6    3    8 1
     7    4    7 1
     8    5    6 1
     9    5    7 1
    10    6    8 1
    11    7    9 1
    12    8   12 1
    13    9   10 2
    14    9   11 2
    15   12   14 1
    16   12   17 2
    17   13   16 2
    18   13   17 1
    19   14   15 2
    20   15   16 1
    21   18   19 1
    22   19   20 2
    23   19   22 1
    24   20   21 1
    25    1   23 1
    26    3   24 1
    27    3   25 1
    28    4   26 1
    29    4   27 1
    30    5   28 1
    31    5   29 1
    32    6   30 1
    33    6   31 1
    34   13   32 1
    35   14   33 1
    36   15   34 1
    37   16   35 1
    38   18   36 1
    39   20   37 1
    40   21   38 1
    41   22   39 1
    42   22   40 1
    43   22   41 1
@<TRIPOS>PROPERTY_DATA
  Total_Score	| 5.2073
  Crash		| -0.5566
  Polar		| 1.0748
  FragIndex	| 1
  FragRMSD	| 1.089

