@<TRIPOS>MOLECULE
BindingDB_32557
 54 56 0 0 0
SMALL
NO_CHARGES


@<TRIPOS>ATOM
1    C        55.6188  -23.8802   50.7107  C     
2    C        55.2075  -22.9791   51.7108  C     
3    C        59.5964  -22.7619   52.4976  C     
4    C        58.6491  -21.7695   51.7693  C     
5    C        57.5944  -21.2220   53.9803  C     
6    C        59.0423  -21.3982   54.5177  C     
7    N        57.4851  -21.4781   52.5661  N     
8    N        59.6731  -22.5673   53.9308  N     
9    S        55.9548  -21.4125   51.8401  S     
10   O        56.0899  -20.7634   50.3969  O     
11   O        55.0301  -20.3627   52.6018  O     
12   C        60.4408  -23.3952   54.7104  C     
13   C        60.8018  -24.7685   56.7118  C     
14   C        61.8311  -23.4828   54.4462  C     
15   C        62.6926  -24.1772   55.3121  C     
16   C        62.1816  -24.8098   56.4529  C     
17   C        55.0231  -25.1537   50.6156  C     
18   C        53.9876  -25.5727   51.5041  C     
19   C        53.5866  -24.6357   52.5002  C     
20   C        54.1816  -23.3580   52.6029  C     
21   C        53.3566  -26.9491   51.3337  C     
22   C        54.4379  -28.0719   51.5041  C     
23   C        52.2104  -27.2731   52.3552  C     
24   C        52.7173  -27.0498   49.9101  C     
25   C        59.9131  -24.0867   55.8432  C     
26   C        58.4419  -24.2533   56.0457  C     
27   H        56.3608  -23.6218   50.0553  H     
28   H        59.2157  -23.7697   52.3114  H     
29   H        60.5773  -22.6812   52.0317  H     
30   H        59.1740  -20.8287   51.5996  H     
31   H        58.3936  -22.1820   50.7912  H     
32   H        56.9400  -21.9262   54.5025  H     
33   H        57.2469  -20.2076   54.2116  H     
34   H        59.6301  -20.5160   54.2280  H     
35   H        59.0382  -21.4262   55.6164  H     
36   H        60.4480  -25.2670   57.5341  H     
37   H        62.2432  -22.9773   53.6637  H     
38   H        63.6974  -24.2048   55.1219  H     
39   H        62.8071  -25.3132   57.0868  H     
40   H        55.3478  -25.7657   49.8684  H     
41   H        52.8400  -24.8523   53.1662  H     
42   H        53.8669  -22.7099   53.3301  H     
43   H        55.2109  -28.0163   50.7362  H     
44   H        53.9849  -29.0683   51.4340  H     
45   H        54.9240  -27.9902   52.4787  H     
46   H        52.5904  -27.2513   53.3758  H     
47   H        51.7914  -28.2711   52.1862  H     
48   H        51.3926  -26.5499   52.2725  H     
49   H        51.9872  -26.2433   49.7704  H     
50   H        52.1928  -28.0079   49.7798  H     
51   H        53.4668  -26.9729   49.1228  H     
52   H        57.9055  -23.3147   56.0617  H     
53   H        58.2112  -24.7547   56.9857  H     
54   H        58.0427  -24.8561   55.2270  H     
@<TRIPOS>BOND
     1    1    2 1
     2    1   17 2
     3    2    9 1
     4    2   20 2
     5    3    4 1
     6    3    8 1
     7    4    7 1
     8    5    6 1
     9    5    7 1
    10    6    8 1
    11    7    9 1
    12    8   12 1
    13    9   10 2
    14    9   11 2
    15   12   14 1
    16   12   25 2
    17   13   16 2
    18   13   25 1
    19   14   15 2
    20   15   16 1
    21   17   18 1
    22   18   19 2
    23   18   21 1
    24   19   20 1
    25   21   22 1
    26   21   23 1
    27   21   24 1
    28   25   26 1
    29    1   27 1
    30    3   28 1
    31    3   29 1
    32    4   30 1
    33    4   31 1
    34    5   32 1
    35    5   33 1
    36    6   34 1
    37    6   35 1
    38   13   36 1
    39   14   37 1
    40   15   38 1
    41   16   39 1
    42   17   40 1
    43   19   41 1
    44   20   42 1
    45   22   43 1
    46   22   44 1
    47   22   45 1
    48   23   46 1
    49   23   47 1
    50   23   48 1
    51   24   49 1
    52   24   50 1
    53   24   51 1
    54   26   52 1
    55   26   53 1
    56   26   54 1
@<TRIPOS>PROPERTY_DATA
  Total_Score	| 7.3687
  Crash		| -1.0036
  Polar		| 1.1434
  FragIndex	| 1
  FragRMSD	| 0.530

