@<TRIPOS>MOLECULE
BindingDB_32562
 51 53 0 0 0
SMALL
NO_CHARGES


@<TRIPOS>ATOM
1    C        55.5456  -23.9425   50.7177  C     
2    C        55.1164  -22.9990   51.6660  C     
3    C        58.9697  -21.5450   54.5197  C     
4    C        57.5178  -21.6504   54.0049  C     
5    C        58.6414  -21.9626   51.7855  C     
6    C        59.7052  -22.8170   52.5405  C     
7    N        57.4584  -21.7238   52.5707  N     
8    N        59.7762  -22.6228   53.9851  N     
9    S        55.9633  -21.4859   51.8188  S     
10   O        56.1902  -20.8460   50.3773  O     
11   O        55.1203  -20.3716   52.5791  O     
12   C        60.5872  -23.4068   54.7822  C     
13   C        60.9359  -24.8703   56.7530  C     
14   C        61.9873  -23.5027   54.5562  C     
15   C        62.8452  -24.1898   55.4311  C     
16   C        62.3256  -24.8813   56.5386  C     
17   C        54.8628  -25.1651   50.5733  C     
18   C        53.7317  -25.4948   51.3636  C     
19   C        53.3612  -24.5444   52.3549  C     
20   C        54.0348  -23.3175   52.5080  C     
21   C        52.9213  -26.7740   51.1882  C     
22   C        53.0479  -27.6579   52.4720  C     
23   C        51.4124  -26.4129   50.9700  C     
24   C        53.3311  -27.6689   49.9643  C     
25   C        60.0917  -24.1437   55.8977  C     
26   Cl       63.3582  -25.7021   57.5958  Cl    
27   H        56.3468  -23.7527   50.1166  H     
28   H        59.3961  -20.6082   54.1552  H     
29   H        58.9605  -21.4606   55.6066  H     
30   H        57.0480  -22.5421   54.4329  H     
31   H        56.9722  -20.7760   54.3628  H     
32   H        59.0672  -20.9914   51.5249  H     
33   H        58.3991  -22.4739   50.8483  H     
34   H        59.4634  -23.8681   52.3565  H     
35   H        60.6684  -22.6067   52.0746  H     
36   H        60.5418  -25.3831   57.5473  H     
37   H        62.4247  -22.9907   53.7877  H     
38   H        63.8588  -24.1673   55.2675  H     
39   H        55.2174  -25.7935   49.8605  H     
40   H        52.5741  -24.7257   52.9812  H     
41   H        53.7226  -22.6661   53.2276  H     
42   H        54.0954  -27.8969   52.6669  H     
43   H        52.4968  -28.5997   52.3625  H     
44   H        52.6472  -27.1520   53.3549  H     
45   H        50.9960  -25.8540   51.8135  H     
46   H        50.7967  -27.3166   50.8577  H     
47   H        51.2909  -25.8036   50.0683  H     
48   H        53.3062  -27.0900   49.0372  H     
49   H        52.6588  -28.5165   49.8424  H     
50   H        54.3342  -28.0861   50.0934  H     
51   H        59.0891  -24.1957   56.0914  H     
@<TRIPOS>BOND
     1    1    2 1
     2    1   17 2
     3    2    9 1
     4    2   20 2
     5    3    4 1
     6    3    8 1
     7    4    7 1
     8    5    6 1
     9    5    7 1
    10    6    8 1
    11    7    9 1
    12    8   12 1
    13    9   10 2
    14    9   11 2
    15   12   14 1
    16   12   25 2
    17   13   16 2
    18   13   25 1
    19   14   15 2
    20   15   16 1
    21   16   26 1
    22   17   18 1
    23   18   19 2
    24   18   21 1
    25   19   20 1
    26   21   22 1
    27   21   23 1
    28   21   24 1
    29    1   27 1
    30    3   28 1
    31    3   29 1
    32    4   30 1
    33    4   31 1
    34    5   32 1
    35    5   33 1
    36    6   34 1
    37    6   35 1
    38   13   36 1
    39   14   37 1
    40   15   38 1
    41   17   39 1
    42   19   40 1
    43   20   41 1
    44   22   42 1
    45   22   43 1
    46   22   44 1
    47   23   45 1
    48   23   46 1
    49   23   47 1
    50   24   48 1
    51   24   49 1
    52   24   50 1
    53   25   51 1
@<TRIPOS>PROPERTY_DATA
  Total_Score	| 6.7426
  Crash		| -0.7322
  Polar		| 1.1372
  FragIndex	| 1
  FragRMSD	| 0.789

