@<TRIPOS>MOLECULE
BindingDB_32561
 53 55 0 0 0
SMALL
NO_CHARGES


@<TRIPOS>ATOM
1    C        55.5271  -24.0101   50.5713  C     
2    C        55.0754  -23.0583   51.5042  C     
3    C        59.7014  -23.0201   52.4933  C     
4    C        58.2339  -23.0227   52.0076  C     
5    C        58.0813  -20.9540   53.4016  C     
6    C        58.9475  -21.6916   54.4522  C     
7    N        57.4849  -21.8863   52.4763  N     
8    N        59.7765  -22.7681   53.9232  N     
9    S        55.9798  -21.5902   51.7555  S     
10   O        56.2029  -20.8202   50.3769  O     
11   O        55.1129  -20.6030   52.6638  O     
12   C        60.6642  -23.4371   54.7270  C     
13   C        62.9909  -24.0388   55.2791  C     
14   C        60.2614  -24.1619   55.8832  C     
15   C        61.1840  -24.8461   56.6778  C     
16   C        62.5795  -24.7852   56.4100  C     
17   C        54.8552  -25.2318   50.4156  C     
18   C        53.6667  -25.5350   51.1323  C     
19   C        53.2035  -24.5371   52.0305  C     
20   C        53.9049  -23.3397   52.2394  C     
21   C        52.8791  -26.8238   50.9261  C     
22   C        51.5897  -26.4762   50.1101  C     
23   C        53.6408  -27.9468   50.1370  C     
24   C        52.4671  -27.4628   52.3005  C     
25   C        62.0608  -23.4118   54.4522  C     
26   N        63.4896  -25.4046   57.2062  N     
27   O        63.1708  -26.0788   58.1571  O     
28   O        64.7831  -25.3088   57.0026  O     
29   H        56.3473  -23.8212   49.9997  H     
30   H        60.1254  -23.9900   52.2125  H     
31   H        60.2584  -22.2410   51.9644  H     
32   H        58.2353  -23.0528   50.9175  H     
33   H        57.7507  -23.9314   52.3703  H     
34   H        57.3356  -20.3490   53.9300  H     
35   H        58.7144  -20.2658   52.8246  H     
36   H        59.5885  -20.9527   54.9410  H     
37   H        58.2582  -22.0936   55.1993  H     
38   H        63.9839  -23.9696   55.0413  H     
39   H        59.2716  -24.2447   56.1310  H     
40   H        60.8395  -25.3799   57.4813  H     
41   H        55.2484  -25.8787   49.7375  H     
42   H        52.3398  -24.6675   52.5569  H     
43   H        53.5413  -22.6599   52.9129  H     
44   H        50.9763  -25.7385   50.6369  H     
45   H        50.9748  -27.3660   49.9442  H     
46   H        51.8579  -26.0602   49.1337  H     
47   H        53.8341  -27.6473   49.1064  H     
48   H        53.0508  -28.8744   50.0811  H     
49   H        54.5931  -28.1873   50.6215  H     
50   H        53.3496  -27.6377   52.9184  H     
51   H        51.9542  -28.4208   52.1579  H     
52   H        51.7823  -26.8249   52.8513  H     
53   H        62.4209  -22.8794   53.6577  H     
@<TRIPOS>BOND
     1    1    2 1
     2    1   17 2
     3    2    9 1
     4    2   20 2
     5    3    4 1
     6    3    8 1
     7    4    7 1
     8    5    6 1
     9    5    7 1
    10    6    8 1
    11    7    9 1
    12    8   12 1
    13    9   10 2
    14    9   11 2
    15   12   14 1
    16   12   25 2
    17   13   16 2
    18   13   25 1
    19   14   15 2
    20   15   16 1
    21   16   26 am
    22   17   18 1
    23   18   19 2
    24   18   21 1
    25   19   20 1
    26   21   22 1
    27   21   23 1
    28   21   24 1
    29   26   27 2
    30   26   28 1
    31    1   29 1
    32    3   30 1
    33    3   31 1
    34    4   32 1
    35    4   33 1
    36    5   34 1
    37    5   35 1
    38    6   36 1
    39    6   37 1
    40   13   38 1
    41   14   39 1
    42   15   40 1
    43   17   41 1
    44   19   42 1
    45   20   43 1
    46   22   44 1
    47   22   45 1
    48   22   46 1
    49   23   47 1
    50   23   48 1
    51   23   49 1
    52   24   50 1
    53   24   51 1
    54   24   52 1
    55   25   53 1
@<TRIPOS>PROPERTY_DATA
  Total_Score	| 6.6405
  Crash		| -1.0334
  Polar		| 1.1547
  FragIndex	| 1
  FragRMSD	| 0.764

