@<TRIPOS>MOLECULE
BindingDB_32563
 54 56 0 0 0
SMALL
NO_CHARGES


@<TRIPOS>ATOM
1    C        54.2083  -23.3288   52.5880  C     
2    C        55.1820  -22.9386   51.6532  C     
3    C        58.9458  -21.4798   54.5894  C     
4    C        57.4940  -21.5468   54.0551  C     
5    C        58.6446  -21.8495   51.8395  C     
6    C        59.6855  -22.7330   52.5842  C     
7    N        57.4517  -21.6140   52.6150  N     
8    N        59.7498  -22.5513   54.0310  N     
9    S        55.9694  -21.4004   51.8317  S     
10   O        56.1675  -20.7010   50.4166  O     
11   O        55.0721  -20.3594   52.6369  O     
12   C        60.5435  -23.3615   54.8118  C     
13   C        60.8277  -24.8962   56.7286  C     
14   C        61.9390  -23.5096   54.5766  C     
15   C        62.7605  -24.2756   55.4157  C     
16   C        62.2162  -24.9838   56.5079  C     
17   C        53.5981  -24.5903   52.4853  C     
18   C        53.9394  -25.5099   51.4602  C     
19   C        54.9475  -25.0947   50.5455  C     
20   C        55.5619  -23.8333   50.6362  C     
21   C        53.2817  -26.8762   51.3199  C     
22   C        54.3835  -27.9883   51.3350  C     
23   C        52.2875  -27.0942   52.5075  C     
24   C        52.4602  -27.0852   50.0035  C     
25   C        60.0137  -24.1044   55.9070  C     
26   C        63.0664  -25.7851   57.4128  C     
27   H        53.9402  -22.7110   53.3576  H     
28   H        59.3874  -20.5325   54.2578  H     
29   H        58.9252  -21.4357   55.6798  H     
30   H        57.0007  -22.4344   54.4671  H     
31   H        56.9597  -20.6603   54.4129  H     
32   H        59.0880  -20.8722   51.6217  H     
33   H        58.4093  -22.3302   50.8843  H     
34   H        59.4243  -23.7810   52.3911  H     
35   H        60.6556  -22.5370   52.1249  H     
36   H        60.3949  -25.4152   57.5020  H     
37   H        62.3928  -22.9923   53.8235  H     
38   H        63.7675  -24.3107   55.2302  H     
39   H        52.9035  -24.8124   53.1961  H     
40   H        55.2506  -25.7150   49.7884  H     
41   H        56.2929  -23.5817   49.9648  H     
42   H        55.1070  -27.8143   50.5330  H     
43   H        53.9436  -28.9758   51.1930  H     
44   H        54.9272  -28.0119   52.2812  H     
45   H        52.7927  -27.0429   53.4739  H     
46   H        51.8054  -28.0731   52.4456  H     
47   H        51.5044  -26.3300   52.4963  H     
48   H        51.6330  -26.3796   49.9469  H     
49   H        52.0209  -28.0910   49.9586  H     
50   H        53.0867  -26.9615   49.1234  H     
51   H        59.0073  -24.1088   56.0884  H     
52   H        62.9597  -25.4203   58.4396  H     
53   H        64.1258  -25.7272   57.1419  H     
54   H        62.7601  -26.8355   57.3763  H     
@<TRIPOS>BOND
     1    1    2 1
     2    1   17 2
     3    2    9 1
     4    2   20 2
     5    3    4 1
     6    3    8 1
     7    4    7 1
     8    5    6 1
     9    5    7 1
    10    6    8 1
    11    7    9 1
    12    8   12 1
    13    9   10 2
    14    9   11 2
    15   12   14 1
    16   12   25 2
    17   13   16 2
    18   13   25 1
    19   14   15 2
    20   15   16 1
    21   16   26 1
    22   17   18 1
    23   18   19 2
    24   18   21 1
    25   19   20 1
    26   21   22 1
    27   21   23 1
    28   21   24 1
    29    1   27 1
    30    3   28 1
    31    3   29 1
    32    4   30 1
    33    4   31 1
    34    5   32 1
    35    5   33 1
    36    6   34 1
    37    6   35 1
    38   13   36 1
    39   14   37 1
    40   15   38 1
    41   17   39 1
    42   19   40 1
    43   20   41 1
    44   22   42 1
    45   22   43 1
    46   22   44 1
    47   23   45 1
    48   23   46 1
    49   23   47 1
    50   24   48 1
    51   24   49 1
    52   24   50 1
    53   25   51 1
    54   26   52 1
    55   26   53 1
    56   26   54 1
@<TRIPOS>PROPERTY_DATA
  Total_Score	| 7.0308
  Crash		| -1.0135
  Polar		| 1.1608
  FragIndex	| 1
  FragRMSD	| 0.538

