@<TRIPOS>MOLECULE
BindingDB_32559
 51 53 0 0 0
SMALL
NO_CHARGES


@<TRIPOS>ATOM
1    C        55.4888  -23.7449   50.5629  C     
2    C        55.0860  -22.8532   51.5692  C     
3    C        58.8123  -21.5130   54.3518  C     
4    C        58.0977  -20.6889   53.2419  C     
5    C        58.0932  -22.7818   51.8703  C     
6    C        59.5241  -22.9451   52.4348  C     
7    N        57.4241  -21.5965   52.3470  N     
8    N        59.5522  -22.6755   53.8622  N     
9    S        55.8617  -21.2995   51.7762  S     
10   O        55.9172  -20.4434   50.4304  O     
11   O        54.9951  -20.4909   52.8478  O     
12   C        60.3728  -23.4014   54.7028  C     
13   C        60.7934  -24.8630   56.6491  C     
14   C        61.7717  -23.4275   54.4540  C     
15   C        62.6539  -24.1533   55.2753  C     
16   C        62.1698  -24.8626   56.3759  C     
17   C        54.9728  -25.0557   50.5281  C     
18   C        54.0423  -25.5314   51.4964  C     
19   C        53.6452  -24.6005   52.4964  C     
20   C        54.1517  -23.2918   52.5374  C     
21   C        53.5497  -26.9653   51.4362  C     
22   C        54.7547  -27.9510   51.6357  C     
23   C        52.4803  -27.3437   52.5328  C     
24   C        52.8823  -27.2314   50.0488  C     
25   C        59.8965  -24.1490   55.8227  C     
26   F        58.6230  -24.2925   56.0839  F     
27   H        56.1920  -23.4634   49.8735  H     
28   H        59.5126  -20.8239   54.8550  H     
29   H        58.0333  -21.8028   55.0703  H     
30   H        57.4146  -19.9816   53.7165  H     
31   H        58.8357  -20.1140   52.6689  H     
32   H        58.1473  -22.7707   50.7807  H     
33   H        57.5190  -23.6599   52.1751  H     
34   H        59.8498  -23.9526   52.1942  H     
35   H        60.1904  -22.2438   51.9339  H     
36   H        60.4360  -25.4101   57.4334  H     
37   H        62.1768  -22.8879   53.6882  H     
38   H        63.6562  -24.1357   55.0868  H     
39   H        62.8046  -25.3952   56.9679  H     
40   H        55.2967  -25.6732   49.7819  H     
41   H        52.9713  -24.8716   53.2214  H     
42   H        53.8641  -22.6738   53.2996  H     
43   H        55.4718  -27.8860   50.8162  H     
44   H        54.4174  -28.9944   51.6845  H     
45   H        55.2835  -27.7201   52.5670  H     
46   H        52.8916  -27.1941   53.5413  H     
47   H        52.1697  -28.3805   52.4445  H     
48   H        51.5859  -26.7150   52.4327  H     
49   H        52.0085  -26.5868   49.9149  H     
50   H        52.5495  -28.2734   49.9580  H     
51   H        53.5781  -27.0365   49.2275  H     
@<TRIPOS>BOND
     1    1    2 1
     2    1   17 2
     3    2    9 1
     4    2   20 2
     5    3    4 1
     6    3    8 1
     7    4    7 1
     8    5    6 1
     9    5    7 1
    10    6    8 1
    11    7    9 1
    12    8   12 1
    13    9   10 2
    14    9   11 2
    15   12   14 1
    16   12   25 2
    17   13   16 2
    18   13   25 1
    19   14   15 2
    20   15   16 1
    21   17   18 1
    22   18   19 2
    23   18   21 1
    24   19   20 1
    25   21   22 1
    26   21   23 1
    27   21   24 1
    28   25   26 1
    29    1   27 1
    30    3   28 1
    31    3   29 1
    32    4   30 1
    33    4   31 1
    34    5   32 1
    35    5   33 1
    36    6   34 1
    37    6   35 1
    38   13   36 1
    39   14   37 1
    40   15   38 1
    41   16   39 1
    42   17   40 1
    43   19   41 1
    44   20   42 1
    45   22   43 1
    46   22   44 1
    47   22   45 1
    48   23   46 1
    49   23   47 1
    50   23   48 1
    51   24   49 1
    52   24   50 1
    53   24   51 1
@<TRIPOS>PROPERTY_DATA
  Total_Score	| 7.3457
  Crash		| -0.8428
  Polar		| 1.1520
  FragIndex	| 1
  FragRMSD	| 0.585

