@<TRIPOS>MOLECULE
BindingDB_32574
 56 58 0 0 0
SMALL
NO_CHARGES


@<TRIPOS>ATOM
1    C        53.8536  -23.2703   52.1330  C     
2    C        55.0592  -23.0421   51.4411  C     
3    C        59.5755  -23.0549   52.7016  C     
4    C        58.6722  -22.1020   54.7959  C     
5    N        57.3358  -21.9492   52.6725  N     
6    N        59.6832  -22.9186   54.1410  N     
7    S        55.9767  -21.5861   51.7172  S     
8    O        56.4373  -20.9634   50.3245  O     
9    O        55.0371  -20.4168   52.2872  O     
10   C        60.6888  -23.5303   54.8678  C     
11   C        61.4465  -24.9683   56.7385  C     
12   C        62.0624  -23.3660   54.5443  C     
13   C        63.0921  -23.9853   55.2738  C     
14   C        62.8082  -24.8156   56.3827  C     
15   C        53.1582  -24.4787   51.9611  C     
16   C        53.6326  -25.5184   51.1135  C     
17   C        54.8597  -25.2727   50.4504  C     
18   C        55.5474  -24.0498   50.5941  C     
19   C        52.8152  -26.7849   50.8969  C     
20   C        51.4367  -26.3737   50.2843  C     
21   C        53.4248  -27.8532   49.9205  C     
22   C        52.6132  -27.5072   52.2676  C     
23   C        57.7490  -21.2222   53.8740  C     
24   C        56.6092  -20.6371   54.7735  C     
25   C        58.1085  -23.0836   52.2198  C     
26   C        60.4241  -24.3374   56.0084  C     
27   N        63.7997  -25.4242   57.0941  N     
28   O        64.9630  -25.3237   56.8040  O     
29   O        63.5530  -26.1639   58.1414  O     
30   H        53.4768  -22.5634   52.7709  H     
31   H        60.0958  -22.2171   52.2305  H     
32   H        60.0143  -23.9859   52.3357  H     
33   H        58.0310  -22.7758   55.3744  H     
34   H        59.1709  -21.4167   55.4893  H     
35   H        61.1851  -25.5445   57.5430  H     
36   H        62.3498  -22.7408   53.7942  H     
37   H        64.0597  -23.8054   55.0013  H     
38   H        52.2823  -24.5875   52.4726  H     
39   H        55.2752  -25.9667   49.8356  H     
40   H        56.4196  -23.9088   50.0829  H     
41   H        50.8386  -25.7950   50.9916  H     
42   H        50.8477  -27.2513   49.9990  H     
43   H        51.5877  -25.7651   49.3879  H     
44   H        53.5549  -27.4406   48.9174  H     
45   H        52.7622  -28.7233   49.8257  H     
46   H        54.3906  -28.2187   50.2793  H     
47   H        53.5775  -27.7572   52.7147  H     
48   H        52.0419  -28.4303   52.1559  H     
49   H        52.0701  -26.8870   52.9792  H     
50   H        58.3531  -20.3748   53.5178  H     
51   H        55.8888  -21.4275   55.0401  H     
52   H        56.0785  -19.8230   54.2605  H     
53   H        57.0322  -20.2107   55.6985  H     
54   H        58.1308  -23.1418   51.1275  H     
55   H        57.6332  -23.9924   52.6018  H     
56   H        59.4680  -24.5057   56.3250  H     
@<TRIPOS>BOND
     1    1    2 1
     2    1   15 2
     3    2    7 1
     4    2   18 2
     5    3    6 1
     6    3   25 1
     7    4    6 1
     8    4   23 1
     9    5    7 1
    10    5   23 1
    11    5   25 1
    12    6   10 1
    13    7    8 2
    14    7    9 2
    15   10   12 1
    16   10   26 2
    17   11   14 2
    18   11   26 1
    19   12   13 2
    20   13   14 1
    21   14   27 am
    22   15   16 1
    23   16   17 2
    24   16   19 1
    25   17   18 1
    26   19   20 1
    27   19   21 1
    28   19   22 1
    29   23   24 1
    30   27   28 2
    31   27   29 1
    32    1   30 1
    33    3   31 1
    34    3   32 1
    35    4   33 1
    36    4   34 1
    37   11   35 1
    38   12   36 1
    39   13   37 1
    40   15   38 1
    41   17   39 1
    42   18   40 1
    43   20   41 1
    44   20   42 1
    45   20   43 1
    46   21   44 1
    47   21   45 1
    48   21   46 1
    49   22   47 1
    50   22   48 1
    51   22   49 1
    52   23   50 1
    53   24   51 1
    54   24   52 1
    55   24   53 1
    56   25   54 1
    57   25   55 1
    58   26   56 1
@<TRIPOS>PROPERTY_DATA
  Total_Score	| 6.7197
  Crash		| -0.9934
  Polar		| 1.0791
  FragIndex	| 1
  FragRMSD	| 0.994

