@<TRIPOS>MOLECULE
BindingDB_32573
 56 58 0 0 0
SMALL
NO_CHARGES


@<TRIPOS>ATOM
1    C        55.5989  -23.6991   50.6504  C     
2    C        55.2937  -22.8358   51.7178  C     
3    C        59.0258  -23.3399   52.5989  C     
4    C        57.8624  -22.8416   54.6922  C     
5    N        57.5350  -21.4028   52.7212  N     
6    N        59.0741  -23.3360   54.0536  N     
7    S        56.0845  -21.2897   51.8498  S     
8    O        56.3652  -20.6702   50.4117  O     
9    O        55.1253  -20.2125   52.5230  O     
10   C        60.1703  -23.7673   54.7689  C     
11   C        62.6120  -24.0189   55.0321  C     
12   C        60.0313  -24.4301   56.0151  C     
13   C        61.1450  -24.8954   56.7375  C     
14   C        62.4631  -24.7001   56.2621  C     
15   C        55.0077  -24.9726   50.5788  C     
16   C        54.0936  -25.4397   51.5621  C     
17   C        53.8095  -24.5449   52.6310  C     
18   C        54.3979  -23.2695   52.7117  C     
19   C        53.4778  -26.8276   51.4355  C     
20   C        52.6433  -26.9114   50.1129  C     
21   C        54.6085  -27.9097   51.4101  C     
22   C        52.5099  -27.2193   52.6073  C     
23   C        57.4975  -21.4160   54.1712  C     
24   C        58.4045  -20.3030   54.7665  C     
25   C        58.7106  -21.9225   52.0612  C     
26   C        61.4951  -23.5775   54.2997  C     
27   N        63.5495  -25.1503   56.9547  N     
28   O        63.4547  -25.7322   58.0038  O     
29   O        64.7708  -24.9895   56.5209  O     
30   H        56.2621  -23.4146   49.9255  H     
31   H        59.9337  -23.7121   52.1199  H     
32   H        58.2267  -24.0186   52.2854  H     
33   H        57.0422  -23.5284   54.4656  H     
34   H        57.9339  -22.7820   55.7801  H     
35   H        63.5437  -23.8335   54.6539  H     
36   H        59.1056  -24.6435   56.3893  H     
37   H        60.9800  -25.3930   57.6154  H     
38   H        55.2611  -25.5631   49.7863  H     
39   H        53.1693  -24.8025   53.3816  H     
40   H        54.1740  -22.6665   53.5085  H     
41   H        51.8642  -26.1456   50.1054  H     
42   H        52.1610  -27.8867   50.0133  H     
43   H        53.2672  -26.7672   49.2290  H     
44   H        55.2587  -27.7940   50.5424  H     
45   H        54.1886  -28.9176   51.3658  H     
46   H        55.2262  -27.8381   52.3078  H     
47   H        53.0342  -27.2030   53.5654  H     
48   H        52.1016  -28.2242   52.4728  H     
49   H        51.6676  -26.5270   52.6607  H     
50   H        56.4874  -21.1989   54.5359  H     
51   H        58.2911  -20.2659   55.8521  H     
52   H        58.1145  -19.3309   54.3602  H     
53   H        59.4583  -20.4772   54.5370  H     
54   H        59.5605  -21.2670   52.2588  H     
55   H        58.5960  -21.9750   50.9760  H     
56   H        61.6716  -23.0595   53.4379  H     
@<TRIPOS>BOND
     1    1    2 1
     2    1   15 2
     3    2    7 1
     4    2   18 2
     5    3    6 1
     6    3   25 1
     7    4    6 1
     8    4   23 1
     9    5    7 1
    10    5   23 1
    11    5   25 1
    12    6   10 1
    13    7    8 2
    14    7    9 2
    15   10   12 1
    16   10   26 2
    17   11   14 2
    18   11   26 1
    19   12   13 2
    20   13   14 1
    21   14   27 am
    22   15   16 1
    23   16   17 2
    24   16   19 1
    25   17   18 1
    26   19   20 1
    27   19   21 1
    28   19   22 1
    29   23   24 1
    30   27   28 2
    31   27   29 1
    32    1   30 1
    33    3   31 1
    34    3   32 1
    35    4   33 1
    36    4   34 1
    37   11   35 1
    38   12   36 1
    39   13   37 1
    40   15   38 1
    41   17   39 1
    42   18   40 1
    43   20   41 1
    44   20   42 1
    45   20   43 1
    46   21   44 1
    47   21   45 1
    48   21   46 1
    49   22   47 1
    50   22   48 1
    51   22   49 1
    52   23   50 1
    53   24   51 1
    54   24   52 1
    55   24   53 1
    56   25   54 1
    57   25   55 1
    58   26   56 1
@<TRIPOS>PROPERTY_DATA
  Total_Score	| 6.9478
  Crash		| -0.8251
  Polar		| 1.1290
  FragIndex	| 1
  FragRMSD	| 0.095

