@<TRIPOS>MOLECULE
BindingDB_32558
 51 53 0 0 0
SMALL
NO_CHARGES


@<TRIPOS>ATOM
1    C        54.0145  -23.3268   52.4627  C     
2    C        55.0570  -22.9434   51.6008  C     
3    C        59.0436  -21.3571   54.1732  C     
4    C        58.1841  -20.6896   53.0640  C     
5    C        58.1878  -22.8569   51.8474  C     
6    C        59.6454  -22.9575   52.3629  C     
7    N        57.4745  -21.6983   52.3268  N     
8    N        59.6640  -22.6177   53.7635  N     
9    S        55.8918  -21.4249   51.7902  S     
10   O        55.9278  -20.6111   50.4192  O     
11   O        55.0621  -20.5612   52.8401  O     
12   C        60.3596  -23.3760   54.6701  C     
13   C        60.5086  -24.7136   56.7264  C     
14   C        61.7653  -23.5394   54.5127  C     
15   C        62.5300  -24.2584   55.4571  C     
16   C        61.8992  -24.8299   56.5764  C     
17   C        53.4597  -24.6161   52.3854  C     
18   C        53.9380  -25.5933   51.4653  C     
19   C        54.9925  -25.1724   50.6109  C     
20   C        55.5221  -23.8729   50.6525  C     
21   C        53.3962  -27.0132   51.3713  C     
22   C        52.3264  -27.3653   52.4585  C     
23   C        52.7086  -27.2185   49.9828  C     
24   C        54.5724  -28.0296   51.5547  C     
25   C        59.7280  -24.0158   55.7738  C     
26   Cl       58.0410  -24.1619   55.9237  Cl    
27   H        53.6561  -22.6786   53.1693  H     
28   H        59.8250  -20.6541   54.4735  H     
29   H        58.4004  -21.4993   55.0390  H     
30   H        57.5163  -19.9556   53.5203  H     
31   H        58.8295  -20.1484   52.3711  H     
32   H        58.1959  -22.8577   50.7561  H     
33   H        57.6624  -23.7557   52.1928  H     
34   H        60.0101  -23.9691   52.1567  H     
35   H        60.2713  -22.2528   51.8160  H     
36   H        60.0590  -25.1751   57.5225  H     
37   H        62.2550  -23.0970   53.7295  H     
38   H        63.5436  -24.3546   55.3361  H     
39   H        62.4409  -25.3462   57.2717  H     
40   H        52.7102  -24.8291   53.0405  H     
41   H        55.4054  -25.8245   49.9438  H     
42   H        56.2998  -23.6339   50.0293  H     
43   H        52.7391  -27.2585   53.4597  H     
44   H        51.9958  -28.4007   52.3532  H     
45   H        51.4574  -26.7126   52.3668  H     
46   H        51.9184  -26.4796   49.8561  H     
47   H        52.2665  -28.2124   49.9037  H     
48   H        53.3931  -27.1004   49.1434  H     
49   H        55.3093  -27.9555   50.7598  H     
50   H        54.2065  -29.0571   51.5456  H     
51   H        55.0874  -27.8603   52.5023  H     
@<TRIPOS>BOND
     1    1    2 1
     2    1   17 2
     3    2    9 1
     4    2   20 2
     5    3    4 1
     6    3    8 1
     7    4    7 1
     8    5    6 1
     9    5    7 1
    10    6    8 1
    11    7    9 1
    12    8   12 1
    13    9   10 2
    14    9   11 2
    15   12   14 1
    16   12   25 2
    17   13   16 2
    18   13   25 1
    19   14   15 2
    20   15   16 1
    21   17   18 1
    22   18   19 2
    23   18   21 1
    24   19   20 1
    25   21   22 1
    26   21   23 1
    27   21   24 1
    28   25   26 1
    29    1   27 1
    30    3   28 1
    31    3   29 1
    32    4   30 1
    33    4   31 1
    34    5   32 1
    35    5   33 1
    36    6   34 1
    37    6   35 1
    38   13   36 1
    39   14   37 1
    40   15   38 1
    41   16   39 1
    42   17   40 1
    43   19   41 1
    44   20   42 1
    45   22   43 1
    46   22   44 1
    47   22   45 1
    48   23   46 1
    49   23   47 1
    50   23   48 1
    51   24   49 1
    52   24   50 1
    53   24   51 1
@<TRIPOS>PROPERTY_DATA
  Total_Score	| 7.1057
  Crash		| -0.8081
  Polar		| 1.1455
  FragIndex	| 1
  FragRMSD	| 0.686

