@<TRIPOS>MOLECULE
BindingDB_32571
 56 58 0 0 0
SMALL
NO_CHARGES


@<TRIPOS>ATOM
1    C        55.6371  -23.6746   50.8009  C     
2    C        55.2479  -22.8246   51.8526  C     
3    C        59.3438  -22.5946   52.6145  C     
4    C        58.8482  -21.3554   54.7222  C     
5    N        57.3875  -21.1078   52.7034  N     
6    N        59.3195  -22.5582   54.0682  N     
7    S        55.8844  -21.2089   51.9382  S     
8    O        56.0010  -20.5879   50.4781  O     
9    O        54.7988  -20.2680   52.6146  O     
10   C        60.1392  -23.3850   54.7806  C     
11   C        62.4265  -24.0603   55.0662  C     
12   C        59.7420  -24.1140   55.9438  C     
13   C        60.7596  -24.8128   56.6422  C     
14   C        62.1006  -24.7841   56.2221  C     
15   C        55.1388  -24.9824   50.7326  C     
16   C        54.2206  -25.4934   51.6946  C     
17   C        53.8478  -24.6143   52.7454  C     
18   C        54.3561  -23.3080   52.8338  C     
19   C        53.6813  -26.9150   51.5631  C     
20   C        52.9642  -27.0792   50.1798  C     
21   C        54.8596  -27.9504   51.6697  C     
22   C        52.6253  -27.3256   52.6501  C     
23   N        61.4497  -23.3946   54.4122  N     
24   C        58.3095  -24.3343   56.3420  C     
25   F        58.1635  -24.5967   57.6960  F     
26   F        57.4456  -23.2932   56.1051  F     
27   F        57.8161  -25.4100   55.6328  F     
28   C        57.4832  -20.8666   54.1375  C     
29   C        57.2449  -19.3849   54.5354  C     
30   C        58.5749  -21.4212   51.9470  C     
31   H        56.2925  -23.3498   50.0809  H     
32   H        60.3675  -22.5729   52.2326  H     
33   H        58.8786  -23.5351   52.3010  H     
34   H        58.7567  -21.4858   55.8117  H     
35   H        59.6077  -20.5827   54.5588  H     
36   H        63.3873  -24.0151   54.7213  H     
37   H        60.5292  -25.3765   57.4639  H     
38   H        62.8186  -25.2859   56.7421  H     
39   H        55.4569  -25.5669   49.9566  H     
40   H        53.1874  -24.9056   53.4701  H     
41   H        54.0620  -22.7170   53.6163  H     
42   H        52.1432  -26.3559   50.0928  H     
43   H        52.5480  -28.0881   50.0696  H     
44   H        53.6531  -26.9250   49.3425  H     
45   H        55.5906  -27.8169   50.8642  H     
46   H        54.4853  -28.9813   51.6152  H     
47   H        55.3806  -27.8334   52.6289  H     
48   H        53.0521  -27.2433   53.6553  H     
49   H        52.3062  -28.3626   52.5173  H     
50   H        51.7363  -26.6953   52.5792  H     
51   H        56.6979  -21.4504   54.6235  H     
52   H        57.4517  -19.2352   55.5970  H     
53   H        56.2071  -19.1075   54.3747  H     
54   H        57.8865  -18.7192   53.9572  H     
55   H        59.2117  -20.5339   51.9355  H     
56   H        58.3683  -21.6814   50.9059  H     
@<TRIPOS>BOND
     1    1    2 1
     2    1   15 2
     3    2    7 1
     4    2   18 2
     5    3    6 1
     6    3   30 1
     7    4    6 1
     8    4   28 1
     9    5    7 1
    10    5   28 1
    11    5   30 1
    12    6   10 1
    13    7    8 2
    14    7    9 2
    15   10   12 1
    16   10   23 2
    17   11   14 2
    18   11   23 1
    19   12   13 2
    20   12   24 1
    21   13   14 1
    22   15   16 1
    23   16   17 2
    24   16   19 1
    25   17   18 1
    26   19   20 1
    27   19   21 1
    28   19   22 1
    29   24   25 1
    30   24   26 1
    31   24   27 1
    32   28   29 1
    33    1   31 1
    34    3   32 1
    35    3   33 1
    36    4   34 1
    37    4   35 1
    38   11   36 1
    39   13   37 1
    40   14   38 1
    41   15   39 1
    42   17   40 1
    43   18   41 1
    44   20   42 1
    45   20   43 1
    46   20   44 1
    47   21   45 1
    48   21   46 1
    49   21   47 1
    50   22   48 1
    51   22   49 1
    52   22   50 1
    53   28   51 1
    54   29   52 1
    55   29   53 1
    56   29   54 1
    57   30   55 1
    58   30   56 1
@<TRIPOS>PROPERTY_DATA
  Total_Score	| 6.8901
  Crash		| -1.6921
  Polar		| 1.1391
  FragIndex	| 1
  FragRMSD	| 0.597

