@<TRIPOS>MOLECULE
BindingDB_32560
 53 55 0 0 0
SMALL
NO_CHARGES


@<TRIPOS>ATOM
1    C        54.3251  -23.3164   52.7826  C     
2    C        55.2006  -22.8349   51.7939  C     
3    C        59.0884  -21.3167   54.5222  C     
4    C        57.6466  -21.0492   54.0170  C     
5    C        58.6093  -21.6425   51.7748  C     
6    C        59.5596  -22.6583   52.4591  C     
7    N        57.4721  -21.3542   52.6158  N     
8    N        59.6825  -22.4795   53.8932  N     
9    S        55.9281  -21.2562   51.9262  S     
10   O        56.0632  -20.5774   50.4916  O     
11   O        55.0051  -20.2460   52.7365  O     
12   C        60.4019  -23.3719   54.6407  C     
13   C        60.7096  -24.7028   56.6751  C     
14   C        61.7847  -23.5223   54.3738  C     
15   C        62.6248  -24.2402   55.2476  C     
16   C        62.0852  -24.8135   56.4108  C     
17   C        53.7689  -24.6093   52.6758  C     
18   C        54.0681  -25.4731   51.5847  C     
19   C        54.9640  -24.9554   50.6094  C     
20   C        55.5163  -23.6668   50.7037  C     
21   C        53.4980  -26.8795   51.4377  C     
22   C        52.7092  -26.9907   50.0897  C     
23   C        54.6636  -27.9227   51.4588  C     
24   C        52.4996  -27.2959   52.5742  C     
25   C        59.8360  -24.0250   55.7805  C     
26   N        58.4818  -24.0866   55.9751  N     
27   O        57.9872  -24.5018   56.9935  O     
28   O        57.6344  -23.9109   54.9916  O     
29   H        54.0931  -22.7282   53.5888  H     
30   H        59.7077  -20.4562   54.2619  H     
31   H        59.0815  -21.3672   55.6131  H     
32   H        56.9461  -21.6527   54.6090  H     
33   H        57.4133  -19.9923   54.1831  H     
34   H        59.1519  -20.7092   51.5859  H     
35   H        58.3035  -22.0585   50.8088  H     
36   H        59.1551  -23.6624   52.2815  H     
37   H        60.5368  -22.6126   51.9706  H     
38   H        60.3452  -25.1694   57.5104  H     
39   H        62.2093  -23.0408   53.5792  H     
40   H        63.6285  -24.3128   55.0505  H     
41   H        62.6928  -25.3252   57.0527  H     
42   H        53.1350  -24.9038   53.4166  H     
43   H        55.2328  -25.5200   49.8003  H     
44   H        56.1545  -23.3486   49.9708  H     
45   H        53.3499  -26.8229   49.2257  H     
46   H        51.9063  -26.2545   50.0616  H     
47   H        52.2656  -27.9810   49.9743  H     
48   H        55.3538  -27.7766   50.6276  H     
49   H        54.2792  -28.9426   51.3834  H     
50   H        55.2312  -27.8447   52.3873  H     
51   H        52.9839  -27.2703   53.5517  H     
52   H        52.1226  -28.3097   52.4180  H     
53   H        51.6388  -26.6254   52.5999  H     
@<TRIPOS>BOND
     1    1    2 1
     2    1   17 2
     3    2    9 1
     4    2   20 2
     5    3    4 1
     6    3    8 1
     7    4    7 1
     8    5    6 1
     9    5    7 1
    10    6    8 1
    11    7    9 1
    12    8   12 1
    13    9   10 2
    14    9   11 2
    15   12   14 1
    16   12   25 2
    17   13   16 2
    18   13   25 1
    19   14   15 2
    20   15   16 1
    21   17   18 1
    22   18   19 2
    23   18   21 1
    24   19   20 1
    25   21   22 1
    26   21   23 1
    27   21   24 1
    28   25   26 am
    29   26   27 2
    30   26   28 1
    31    1   29 1
    32    3   30 1
    33    3   31 1
    34    4   32 1
    35    4   33 1
    36    5   34 1
    37    5   35 1
    38    6   36 1
    39    6   37 1
    40   13   38 1
    41   14   39 1
    42   15   40 1
    43   16   41 1
    44   17   42 1
    45   19   43 1
    46   20   44 1
    47   22   45 1
    48   22   46 1
    49   22   47 1
    50   23   48 1
    51   23   49 1
    52   23   50 1
    53   24   51 1
    54   24   52 1
    55   24   53 1
@<TRIPOS>PROPERTY_DATA
  Total_Score	| 6.8036
  Crash		| -1.2919
  Polar		| 1.1464
  FragIndex	| 1
  FragRMSD	| 0.558

