@<TRIPOS>MOLECULE
BindingDB_32556
 54 56 0 0 0
SMALL
NO_CHARGES


@<TRIPOS>ATOM
1    C        55.5554  -23.7124   50.6657  C     
2    C        55.1764  -22.8539   51.7133  C     
3    C        58.9961  -21.2719   54.4359  C     
4    C        57.6535  -20.8016   53.8179  C     
5    C        58.5233  -21.7006   51.6662  C     
6    C        59.4877  -22.6585   52.4181  C     
7    N        57.4109  -21.3351   52.5026  N     
8    N        59.4318  -22.5265   53.8595  N     
9    S        55.8666  -21.2588   51.8192  S     
10   O        55.9645  -20.5839   50.3794  O     
11   O        54.9144  -20.2976   52.6580  O     
12   C        60.1414  -23.3753   54.6500  C     
13   C        60.3699  -24.8649   56.5617  C     
14   C        61.5471  -23.4290   54.4743  C     
15   C        62.3491  -24.2117   55.3176  C     
16   C        61.7616  -24.9186   56.3752  C     
17   C        55.0541  -25.0233   50.6044  C     
18   C        54.1471  -25.5273   51.5706  C     
19   C        53.7820  -24.6402   52.6214  C     
20   C        54.2908  -23.3315   52.6977  C     
21   C        53.6279  -26.9535   51.4482  C     
22   C        52.6114  -27.3712   52.5665  C     
23   C        52.8944  -27.1463   50.0735  C     
24   C        54.8312  -27.9497   51.5439  C     
25   C        59.5201  -24.1255   55.6943  C     
26   C        58.0320  -24.2738   55.8757  C     
27   F        57.6814  -24.0300   57.1880  F     
28   F        57.2028  -23.4842   55.1018  F     
29   F        57.6660  -25.5635   55.5603  F     
30   H        56.1951  -23.3919   49.9350  H     
31   H        59.7721  -20.5273   54.2308  H     
32   H        58.8850  -21.3284   55.5278  H     
33   H        56.8551  -21.1192   54.4918  H     
34   H        57.6291  -19.7187   53.7799  H     
35   H        59.0527  -20.7891   51.3736  H     
36   H        58.2006  -22.1981   50.7434  H     
37   H        59.2106  -23.6898   52.1617  H     
38   H        60.5093  -22.4992   52.0534  H     
39   H        59.9766  -25.3969   57.3401  H     
40   H        62.0042  -22.8728   53.7475  H     
41   H        63.3647  -24.2308   55.1787  H     
42   H        62.3421  -25.4804   57.0077  H     
43   H        55.3687  -25.6061   49.8256  H     
44   H        53.1381  -24.9238   53.3609  H     
45   H        54.0043  -22.7306   53.4785  H     
46   H        51.7374  -26.7158   52.5522  H     
47   H        53.0723  -27.3189   53.5560  H     
48   H        52.2590  -28.3966   52.4270  H     
49   H        52.1010  -26.4070   49.9490  H     
50   H        52.4379  -28.1387   50.0090  H     
51   H        53.5801  -27.0488   49.2300  H     
52   H        55.5560  -27.8023   50.7426  H     
53   H        54.4858  -28.9827   51.4806  H     
54   H        55.3570  -27.8267   52.4933  H     
@<TRIPOS>BOND
     1    1    2 1
     2    1   17 2
     3    2    9 1
     4    2   20 2
     5    3    4 1
     6    3    8 1
     7    4    7 1
     8    5    6 1
     9    5    7 1
    10    6    8 1
    11    7    9 1
    12    8   12 1
    13    9   10 2
    14    9   11 2
    15   12   14 1
    16   12   25 2
    17   13   16 2
    18   13   25 1
    19   14   15 2
    20   15   16 1
    21   17   18 1
    22   18   19 2
    23   18   21 1
    24   19   20 1
    25   21   22 1
    26   21   23 1
    27   21   24 1
    28   25   26 1
    29   26   27 1
    30   26   28 1
    31   26   29 1
    32    1   30 1
    33    3   31 1
    34    3   32 1
    35    4   33 1
    36    4   34 1
    37    5   35 1
    38    5   36 1
    39    6   37 1
    40    6   38 1
    41   13   39 1
    42   14   40 1
    43   15   41 1
    44   16   42 1
    45   17   43 1
    46   19   44 1
    47   20   45 1
    48   22   46 1
    49   22   47 1
    50   22   48 1
    51   23   49 1
    52   23   50 1
    53   23   51 1
    54   24   52 1
    55   24   53 1
    56   24   54 1
@<TRIPOS>PROPERTY_DATA
  Total_Score	| 7.0201
  Crash		| -1.5484
  Polar		| 1.1661
  FragIndex	| 1
  FragRMSD	| 0.588

