@<TRIPOS>MOLECULE
BindingDB_32564
 51 53 0 0 0
SMALL
NO_CHARGES


@<TRIPOS>ATOM
1    C        55.5527  -23.8088   50.6479  C     
2    C        55.1681  -22.9122   51.6655  C     
3    C        58.9407  -21.4675   54.5655  C     
4    C        57.5044  -21.2672   54.0013  C     
5    C        58.6048  -21.7565   51.8079  C     
6    C        59.5514  -22.7584   52.5210  C     
7    N        57.4135  -21.5273   52.5893  N     
8    N        59.6523  -22.5923   53.9670  N     
9    S        55.9270  -21.3537   51.7987  S     
10   O        56.1713  -20.6705   50.3799  O     
11   O        54.9780  -20.3629   52.6109  O     
12   C        60.4898  -23.3714   54.7340  C     
13   C        62.7615  -24.1623   55.2961  C     
14   C        60.0157  -24.0825   55.8670  C     
15   C        60.8777  -24.8273   56.6911  C     
16   C        62.2590  -24.8591   56.4098  C     
17   C        54.9880  -25.0936   50.5832  C     
18   C        54.0110  -25.5389   51.5199  C     
19   C        53.6504  -24.6127   52.5387  C     
20   C        54.2134  -23.3278   52.6163  C     
21   C        53.4128  -26.9317   51.3900  C     
22   C        54.5506  -28.0008   51.5098  C     
23   C        52.3521  -27.2942   52.4841  C     
24   C        52.6911  -27.0476   50.0045  C     
25   C        61.8880  -23.4606   54.4503  C     
26   F        63.0745  -25.5114   57.1962  F     
27   H        56.2551  -23.5420   49.9573  H     
28   H        59.5232  -20.5736   54.3144  H     
29   H        58.8727  -21.4869   55.6588  H     
30   H        56.8162  -21.9355   54.5421  H     
31   H        57.2035  -20.2290   54.1930  H     
32   H        59.1314  -20.8035   51.6675  H     
33   H        58.3606  -22.1597   50.8148  H     
34   H        59.1677  -23.7777   52.3411  H     
35   H        60.5300  -22.6789   52.0262  H     
36   H        63.7695  -24.1529   55.1033  H     
37   H        59.0172  -24.1024   56.0806  H     
38   H        60.4991  -25.3402   57.4937  H     
39   H        55.3184  -25.7101   49.8333  H     
40   H        52.9700  -24.8624   53.2572  H     
41   H        53.9398  -22.7086   53.3819  H     
42   H        55.2643  -27.9306   50.6919  H     
43   H        54.1452  -29.0130   51.4861  H     
44   H        55.0959  -27.8781   52.4449  H     
45   H        52.7933  -27.2664   53.4802  H     
46   H        51.9500  -28.2982   52.3318  H     
47   H        51.5128  -26.6036   52.4611  H     
48   H        51.9302  -26.2701   49.9042  H     
49   H        52.1991  -28.0153   49.8976  H     
50   H        53.3865  -26.9397   49.1710  H     
51   H        62.3046  -22.9327   53.6791  H     
@<TRIPOS>BOND
     1    1    2 1
     2    1   17 2
     3    2    9 1
     4    2   20 2
     5    3    4 1
     6    3    8 1
     7    4    7 1
     8    5    6 1
     9    5    7 1
    10    6    8 1
    11    7    9 1
    12    8   12 1
    13    9   10 2
    14    9   11 2
    15   12   14 1
    16   12   25 2
    17   13   16 2
    18   13   25 1
    19   14   15 2
    20   15   16 1
    21   16   26 1
    22   17   18 1
    23   18   19 2
    24   18   21 1
    25   19   20 1
    26   21   22 1
    27   21   23 1
    28   21   24 1
    29    1   27 1
    30    3   28 1
    31    3   29 1
    32    4   30 1
    33    4   31 1
    34    5   32 1
    35    5   33 1
    36    6   34 1
    37    6   35 1
    38   13   36 1
    39   14   37 1
    40   15   38 1
    41   17   39 1
    42   19   40 1
    43   20   41 1
    44   22   42 1
    45   22   43 1
    46   22   44 1
    47   23   45 1
    48   23   46 1
    49   23   47 1
    50   24   48 1
    51   24   49 1
    52   24   50 1
    53   25   51 1
@<TRIPOS>PROPERTY_DATA
  Total_Score	| 7.0803
  Crash		| -0.7417
  Polar		| 1.1671
  FragIndex	| 1
  FragRMSD	| 0.498

