@<TRIPOS>MOLECULE
BindingDB_50243334
 42 43 0 0 0
SMALL
NO_CHARGES


@<TRIPOS>ATOM
1    C         2.0113   -5.4740   19.0463  C     
2    C         3.4079   -5.2945   18.8835  C     
3    C         3.8624   -4.0440   19.3646  C     
4    S         2.4831   -3.2456   20.0237  S     
5    C         1.2930   -4.4287   19.6630  C     
6    C         4.2200   -6.2656   18.2935  C     
7    O         5.3869   -6.0361   17.9885  O     
8    N         3.8154   -7.4944   18.0495  N     
9    N         5.1370   -3.5518   19.3265  N     
10   C         5.5483   -2.3338   19.6508  C     
11   N         6.8194   -2.0332   19.5184  N     
12   O         4.8069   -1.4519   20.0558  O     
13   C        -0.1143   -4.2936   19.8714  C     
14   C        -1.0411   -5.1473   19.2193  C     
15   C        -2.4246   -4.9445   19.3476  C     
16   C        -2.9325   -3.9004   20.1460  C     
17   C        -2.0167   -3.0809   20.8430  C     
18   C        -0.6326   -3.2757   20.7118  C     
19   O        -4.3033   -3.8130   20.2478  O     
20   C        -4.9481   -2.5439   19.9955  C     
21   C        -6.1420   -2.7492   19.0201  C     
22   N        -5.7712   -2.4659   17.6044  N     
23   C        -6.9066   -2.2268   16.6911  C     
24   H         1.5431   -6.3218   18.7258  H     
25   H         4.4241   -8.1349   17.6489  H     
26   H         2.9149   -7.7736   18.2819  H     
27   H         5.8201   -4.1510   18.9954  H     
28   H         7.1267   -1.1361   19.7372  H     
29   H         7.4528   -2.6972   19.1960  H     
30   H        -0.7115   -5.9079   18.6252  H     
31   H        -3.0618   -5.5791   18.8557  H     
32   H        -2.3760   -2.3531   21.4558  H     
33   H        -0.0178   -2.6539   21.2408  H     
34   H        -5.3219   -2.1608   20.9504  H     
35   H        -4.2842   -1.7766   19.5929  H     
36   H        -6.5217   -3.7859   19.0878  H     
37   H        -6.9637   -2.0821   19.3147  H     
38   H        -5.1617   -1.6421   17.5832  H     
39   H        -5.2341   -3.2646   17.2373  H     
40   H        -7.5255   -3.1278   16.6199  H     
41   H        -6.5180   -1.9856   15.7039  H     
42   H        -7.5146   -1.3900   17.0426  H     
@<TRIPOS>BOND
     1    1    2 1
     2    1    5 2
     3    2    3 2
     4    2    6 1
     5    3    4 1
     6    3    9 1
     7    4    5 1
     8    5   13 1
     9    6    7 2
    10    6    8 am
    11    9   10 am
    12   10   11 am
    13   10   12 2
    14   13   14 2
    15   13   18 1
    16   14   15 1
    17   15   16 2
    18   16   17 1
    19   16   19 1
    20   17   18 2
    21   19   20 1
    22   20   21 1
    23   21   22 1
    24   22   23 1
    25    1   24 1
    26    8   25 1
    27    8   26 1
    28    9   27 1
    29   11   28 1
    30   11   29 1
    31   14   30 1
    32   15   31 1
    33   17   32 1
    34   18   33 1
    35   20   34 1
    36   20   35 1
    37   21   36 1
    38   21   37 1
    39   22   38 1
    40   22   39 1
    41   23   40 1
    42   23   41 1
    43   23   42 1
@<TRIPOS>PROPERTY_DATA
  Total_Score	| 5.2251
  Crash		| -0.5170
  Polar		| 3.3203
  FragIndex	| 1
  FragRMSD	| 0.296

