@<TRIPOS>MOLECULE
BindingDB_50243531
 67 69 0 0 0
SMALL
NO_CHARGES


@<TRIPOS>ATOM
1    C         1.9448   -5.1758   18.5063  C     
2    C         3.3327   -4.9553   18.2939  C     
3    C         3.8463   -3.9414   19.1328  C     
4    S         2.5397   -3.3634   20.0926  S     
5    C         1.2978   -4.3751   19.4664  C     
6    C         4.0771   -5.6110   17.2956  C     
7    O         5.2031   -5.2175   17.0302  O     
8    N         3.5785   -6.6432   16.6159  N     
9    N         5.1317   -3.4745   19.1618  N     
10   C         5.5774   -2.3311   19.6643  C     
11   N         6.8435   -2.0334   19.5235  N     
12   O         4.8598   -1.5043   20.2167  O     
13   C        -0.0902   -4.2814   19.7955  C     
14   C        -0.5615   -3.3193   20.7252  C     
15   C        -1.9344   -3.1253   20.9588  C     
16   C        -2.8966   -3.8815   20.2564  C     
17   C        -2.4390   -4.8894   19.3881  C     
18   C        -1.0658   -5.0925   19.1625  C     
19   O        -4.2585   -3.7185   20.3662  O     
20   C        -4.7719   -2.3678   20.3008  C     
21   C        -6.1248   -2.3132   19.5361  C     
22   N        -6.0068   -2.3174   18.0351  N     
23   C        -5.3645   -3.5501   17.4580  C     
24   C        -7.2854   -1.9562   17.3222  C     
25   C        -7.9129   -0.6132   17.7663  C     
26   C        -6.2044   -4.8561   17.4673  C     
27   C         4.1847   -7.4073   15.5523  C     
28   C         4.3996   -6.5834   14.2436  C     
29   N         4.9933   -7.4197   13.1650  N     
30   C         6.2702   -8.0772   13.5344  C     
31   C         6.1137   -8.9350   14.8130  C     
32   C         5.5184   -8.0985   15.9747  C     
33   H         1.4250   -5.8542   17.9484  H     
34   H         2.6895   -6.9315   16.8787  H     
35   H         5.8005   -4.0263   18.7228  H     
36   H         7.1770   -1.1770   19.8426  H     
37   H         7.4459   -2.6514   19.0731  H     
38   H         0.0929   -2.7207   21.2280  H     
39   H        -2.2311   -2.4063   21.6202  H     
40   H        -3.1169   -5.4735   18.8957  H     
41   H        -0.7992   -5.8175   18.4964  H     
42   H        -4.9289   -2.0156   21.3234  H     
43   H        -4.0682   -1.6814   19.8233  H     
44   H        -6.7775   -3.1192   19.8825  H     
45   H        -6.5974   -1.3760   19.8382  H     
46   H        -5.3402   -1.5694   17.8184  H     
47   H        -5.0785   -3.3412   16.4210  H     
48   H        -4.4238   -3.7474   17.9770  H     
49   H        -7.0891   -1.8624   16.2490  H     
50   H        -8.0250   -2.7515   17.4486  H     
51   H        -8.4609   -0.7379   18.7030  H     
52   H        -8.6167   -0.2676   17.0049  H     
53   H        -7.1337    0.1438   17.9040  H     
54   H        -6.4940   -5.1208   18.4897  H     
55   H        -5.6091   -5.6738   17.0507  H     
56   H        -7.1015   -4.7361   16.8552  H     
57   H         3.4622   -8.1983   15.3143  H     
58   H         3.4348   -6.2057   13.8920  H     
59   H         5.0502   -5.7210   14.4247  H     
60   H         4.3158   -8.1471   12.9176  H     
61   H         5.1551   -6.8317   12.3387  H     
62   H         6.5840   -8.7122   12.7039  H     
63   H         7.0399   -7.3160   13.6855  H     
64   H         5.4590   -9.7846   14.6018  H     
65   H         7.0892   -9.3254   15.1105  H     
66   H         6.2520   -7.3462   16.2743  H     
67   H         5.3349   -8.7481   16.8324  H     
@<TRIPOS>BOND
     1    1    2 1
     2    1    5 2
     3    2    3 2
     4    2    6 1
     5    3    4 1
     6    3    9 1
     7    4    5 1
     8    5   13 1
     9    6    7 2
    10    6    8 am
    11    8   27 1
    12    9   10 am
    13   10   11 am
    14   10   12 2
    15   13   14 2
    16   13   18 1
    17   14   15 1
    18   15   16 2
    19   16   17 1
    20   16   19 1
    21   17   18 2
    22   19   20 1
    23   20   21 1
    24   21   22 1
    25   22   23 1
    26   22   24 1
    27   23   26 1
    28   24   25 1
    29   27   28 1
    30   27   32 1
    31   28   29 1
    32   29   30 1
    33   30   31 1
    34   31   32 1
    35    1   33 1
    36    8   34 1
    37    9   35 1
    38   11   36 1
    39   11   37 1
    40   14   38 1
    41   15   39 1
    42   17   40 1
    43   18   41 1
    44   20   42 1
    45   20   43 1
    46   21   44 1
    47   21   45 1
    48   22   46 1
    49   23   47 1
    50   23   48 1
    51   24   49 1
    52   24   50 1
    53   25   51 1
    54   25   52 1
    55   25   53 1
    56   26   54 1
    57   26   55 1
    58   26   56 1
    59   27   57 1
    60   28   58 1
    61   28   59 1
    62   29   60 1
    63   29   61 1
    64   30   62 1
    65   30   63 1
    66   31   64 1
    67   31   65 1
    68   32   66 1
    69   32   67 1
@<TRIPOS>PROPERTY_DATA
  Total_Score	| 7.3330
  Crash		| -0.7422
  Polar		| 4.6598
  FragIndex	| 1
  FragRMSD	| 0.867

