@<TRIPOS>MOLECULE
BindingDB_50243368
 48 49 0 0 0
SMALL
NO_CHARGES


@<TRIPOS>ATOM
1    C         1.9871   -5.4132   19.0145  C     
2    C         3.3908   -5.2660   18.8425  C     
3    C         3.8668   -4.0035   19.2639  C     
4    S         2.5011   -3.1455   19.8623  S     
5    C         1.2927   -4.3356   19.5878  C     
6    C         4.1962   -6.2824   18.3216  C     
7    O         5.3988   -6.1360   18.1522  O     
8    N         3.7323   -7.4700   17.9910  N     
9    N         5.1562   -3.5392   19.2242  N     
10   C         5.6173   -2.3617   19.6184  C     
11   N         6.9022   -2.1116   19.5096  N     
12   O         4.9202   -1.4726   20.0858  O     
13   C        -0.0983   -4.1817   19.8814  C     
14   C        -0.5664   -3.0942   20.6609  C     
15   C        -1.9411   -2.8996   20.9019  C     
16   C        -2.8984   -3.7813   20.3586  C     
17   C        -2.4412   -4.9004   19.6373  C     
18   C        -1.0663   -5.0937   19.3939  C     
19   O        -4.2562   -3.6053   20.5165  O     
20   C        -4.7463   -2.2437   20.5051  C     
21   C        -6.1516   -2.1437   19.8525  C     
22   C        -6.4161   -3.1432   18.6962  C     
23   N        -5.8108   -2.6859   17.3938  N     
24   C        -4.8648   -3.6822   16.8162  C     
25   C        -6.8110   -2.2062   16.3959  C     
26   H         1.5022   -6.2721   18.7564  H     
27   H         4.3365   -8.1474   17.6479  H     
28   H         2.7906   -7.6765   18.0940  H     
29   H         5.8184   -4.1441   18.8580  H     
30   H         7.2481   -1.2448   19.7797  H     
31   H         7.5051   -2.7881   19.1620  H     
32   H         0.0859   -2.4208   21.0691  H     
33   H        -2.2410   -2.1015   21.4617  H     
34   H        -3.1143   -5.5748   19.2608  H     
35   H        -0.7873   -5.9048   18.8371  H     
36   H        -4.8233   -1.8964   21.5419  H     
37   H        -4.0621   -1.5709   19.9780  H     
38   H        -6.9055   -2.3114   20.6261  H     
39   H        -6.2848   -1.1271   19.4684  H     
40   H        -6.0388   -4.1249   19.0036  H     
41   H        -7.5012   -3.2642   18.6013  H     
42   H        -5.2389   -1.8633   17.5995  H     
43   H        -4.0669   -3.8941   17.5274  H     
44   H        -4.3941   -3.2948   15.9112  H     
45   H        -5.3773   -4.6175   16.5811  H     
46   H        -7.5076   -2.9987   16.1161  H     
47   H        -6.3131   -1.8466   15.4918  H     
48   H        -7.3774   -1.3687   16.8096  H     
@<TRIPOS>BOND
     1    1    2 1
     2    1    5 2
     3    2    3 2
     4    2    6 1
     5    3    4 1
     6    3    9 1
     7    4    5 1
     8    5   13 1
     9    6    7 2
    10    6    8 am
    11    9   10 am
    12   10   11 am
    13   10   12 2
    14   13   14 2
    15   13   18 1
    16   14   15 1
    17   15   16 2
    18   16   17 1
    19   16   19 1
    20   17   18 2
    21   19   20 1
    22   20   21 1
    23   21   22 1
    24   22   23 1
    25   23   24 1
    26   23   25 1
    27    1   26 1
    28    8   27 1
    29    8   28 1
    30    9   29 1
    31   11   30 1
    32   11   31 1
    33   14   32 1
    34   15   33 1
    35   17   34 1
    36   18   35 1
    37   20   36 1
    38   20   37 1
    39   21   38 1
    40   21   39 1
    41   22   40 1
    42   22   41 1
    43   23   42 1
    44   24   43 1
    45   24   44 1
    46   24   45 1
    47   25   46 1
    48   25   47 1
    49   25   48 1
@<TRIPOS>PROPERTY_DATA
  Total_Score	| 5.6681
  Crash		| -1.3572
  Polar		| 3.2356
  FragIndex	| 1
  FragRMSD	| 0.299

