@<TRIPOS>MOLECULE
BindingDB_50243419
 33 34 0 0 0
SMALL
NO_CHARGES


@<TRIPOS>ATOM
1    C         1.9849   -5.4050   19.0061  C     
2    C         3.3880   -5.2644   18.8500  C     
3    C         3.8721   -4.0219   19.3206  C     
4    S         2.5138   -3.1796   19.9611  S     
5    C         1.2984   -4.3422   19.6156  C     
6    C         4.1853   -6.2699   18.2858  C     
7    O         5.3738   -6.0922   18.0537  O     
8    N         3.7320   -7.4650   17.9733  N     
9    N         5.1616   -3.5588   19.2843  N     
10   C         5.6061   -2.3672   19.6535  C     
11   N         6.8858   -2.0934   19.5407  N     
12   O         4.8924   -1.4778   20.0982  O     
13   C        -0.0932   -4.1809   19.8832  C     
14   C        -1.0570   -5.0460   19.3116  C     
15   C        -2.4308   -4.8758   19.5615  C     
16   C        -2.8776   -3.8246   20.3815  C     
17   C        -1.9339   -2.9540   20.9639  C     
18   C        -0.5620   -3.1257   20.7086  C     
19   O        -4.2093   -3.7143   20.6736  O     
20   C        -4.8480   -2.5808   20.0558  C     
21   H         1.4953   -6.2441   18.7059  H     
22   H         4.3361   -8.1233   17.5921  H     
23   H         2.8037   -7.7004   18.1310  H     
24   H         5.8306   -4.1630   18.9227  H     
25   H         7.2165   -1.2125   19.7867  H     
26   H         7.5034   -2.7642   19.2087  H     
27   H        -0.7782   -5.8124   18.6947  H     
28   H        -3.1075   -5.5243   19.1530  H     
29   H        -2.2452   -2.1936   21.5717  H     
30   H         0.0860   -2.4653   21.1450  H     
31   H        -4.4350   -1.6424   20.4443  H     
32   H        -5.9134   -2.6200   20.3017  H     
33   H        -4.7434   -2.6085   18.9650  H     
@<TRIPOS>BOND
     1    1    2 1
     2    1    5 2
     3    2    3 2
     4    2    6 1
     5    3    4 1
     6    3    9 1
     7    4    5 1
     8    5   13 1
     9    6    7 2
    10    6    8 am
    11    9   10 am
    12   10   11 am
    13   10   12 2
    14   13   14 2
    15   13   18 1
    16   14   15 1
    17   15   16 2
    18   16   17 1
    19   16   19 1
    20   17   18 2
    21   19   20 1
    22    1   21 1
    23    8   22 1
    24    8   23 1
    25    9   24 1
    26   11   25 1
    27   11   26 1
    28   14   27 1
    29   15   28 1
    30   17   29 1
    31   18   30 1
    32   20   31 1
    33   20   32 1
    34   20   33 1
@<TRIPOS>PROPERTY_DATA
  Total_Score	| 3.8503
  Crash		| -0.3592
  Polar		| 2.1148
  FragIndex	| 1
  FragRMSD	| 0.089

