@<TRIPOS>MOLECULE
BindingDB_50243332
 65 67 0 0 0
SMALL
NO_CHARGES


@<TRIPOS>ATOM
1    C         1.9138   -5.2362   18.6901  C     
2    C         3.3136   -5.0665   18.5627  C     
3    C         3.8174   -3.9752   19.2912  C     
4    S         2.4844   -3.2831   20.1190  S     
5    C         1.2470   -4.3418   19.5572  C     
6    C         4.1196   -5.8819   17.8078  C     
7    O         4.8868   -6.6242   18.4261  O     
8    N         4.0087   -5.9653   16.4839  N     
9    N         5.1128   -3.5504   19.2449  N     
10   C         5.5760   -2.3817   19.6578  C     
11   N         6.8400   -2.0957   19.4399  N     
12   O         4.8924   -1.5261   20.1944  O     
13   C        -0.1423   -4.2364   19.8667  C     
14   C        -1.0896   -5.0913   19.2650  C     
15   C        -2.4747   -4.9087   19.4756  C     
16   C        -2.9499   -3.8775   20.2936  C     
17   C        -2.0190   -3.0573   20.9625  C     
18   C        -0.6340   -3.2327   20.7497  C     
19   O        -4.3169   -3.7590   20.4192  O     
20   C        -4.9108   -2.4479   20.2749  C     
21   C        -6.2828   -2.5319   19.5351  C     
22   N        -6.2029   -2.1720   18.0756  N     
23   C        -5.5335   -3.2286   17.2366  C     
24   C        -7.5278   -1.7353   17.4935  C     
25   C        -8.0157   -0.3653   18.0310  C     
26   C        -4.7836   -2.6086   16.0325  C     
27   C         4.8516   -6.5937   15.6016  C     
28   C         6.2541   -6.6752   15.7967  C     
29   C         7.0908   -7.3777   14.8977  C     
30   C         6.5137   -7.9632   13.7556  C     
31   C         5.1335   -7.8386   13.5137  C     
32   C         4.3097   -7.1570   14.4307  C     
33   C         8.5472   -7.4639   15.1652  C     
34   O         8.8072   -7.6714   16.5537  O     
35   H         1.4238   -5.9839   18.1900  H     
36   H         3.2551   -5.4852   16.0940  H     
37   H         5.7419   -4.1299   18.7895  H     
38   H         7.1859   -1.2232   19.7006  H     
39   H         7.4236   -2.7338   18.9937  H     
40   H        -0.8038   -5.8555   18.6588  H     
41   H        -3.1352   -5.5402   19.0150  H     
42   H        -2.3341   -2.3171   21.5927  H     
43   H         0.0072   -2.5975   21.2332  H     
44   H        -5.0684   -2.0423   21.2811  H     
45   H        -4.2542   -1.7478   19.7372  H     
46   H        -6.7176   -3.5340   19.6558  H     
47   H        -6.9525   -1.8269   20.0416  H     
48   H        -5.5817   -1.3574   18.0202  H     
49   H        -4.7777   -3.7752   17.8066  H     
50   H        -6.2566   -3.9708   16.8812  H     
51   H        -7.4476   -1.6190   16.4089  H     
52   H        -8.2969   -2.4989   17.6775  H     
53   H        -8.3321   -0.4525   19.0764  H     
54   H        -8.8764   -0.0329   17.4365  H     
55   H        -7.2104    0.3756   17.9525  H     
56   H        -5.4793   -2.0997   15.3561  H     
57   H        -4.2642   -3.3989   15.4790  H     
58   H        -4.0442   -1.8845   16.3857  H     
59   H         6.6869   -6.2063   16.5971  H     
60   H         7.0873   -8.4799   13.0888  H     
61   H         4.7226   -8.2566   12.6720  H     
62   H         3.3074   -7.0878   14.2417  H     
63   H         9.0158   -8.2813   14.6108  H     
64   H         9.0354   -6.5325   14.8669  H     
65   H         8.7117   -8.6403   16.7061  H     
@<TRIPOS>BOND
     1    1    2 1
     2    1    5 2
     3    2    3 2
     4    2    6 1
     5    3    4 1
     6    3    9 1
     7    4    5 1
     8    5   13 1
     9    6    7 2
    10    6    8 am
    11    8   27 1
    12    9   10 am
    13   10   11 am
    14   10   12 2
    15   13   14 2
    16   13   18 1
    17   14   15 1
    18   15   16 2
    19   16   17 1
    20   16   19 1
    21   17   18 2
    22   19   20 1
    23   20   21 1
    24   21   22 1
    25   22   23 1
    26   22   24 1
    27   23   26 1
    28   24   25 1
    29   27   28 2
    30   27   32 1
    31   28   29 1
    32   29   30 2
    33   29   33 1
    34   30   31 1
    35   31   32 2
    36   33   34 1
    37    1   35 1
    38    8   36 1
    39    9   37 1
    40   11   38 1
    41   11   39 1
    42   14   40 1
    43   15   41 1
    44   17   42 1
    45   18   43 1
    46   20   44 1
    47   20   45 1
    48   21   46 1
    49   21   47 1
    50   22   48 1
    51   23   49 1
    52   23   50 1
    53   24   51 1
    54   24   52 1
    55   25   53 1
    56   25   54 1
    57   25   55 1
    58   26   56 1
    59   26   57 1
    60   26   58 1
    61   28   59 1
    62   30   60 1
    63   31   61 1
    64   32   62 1
    65   33   63 1
    66   33   64 1
    67   34   65 1
@<TRIPOS>PROPERTY_DATA
  Total_Score	| 6.5711
  Crash		| -1.7519
  Polar		| 3.1518
  FragIndex	| 1
  FragRMSD	| 0.779

