@<TRIPOS>MOLECULE
BindingDB_50243372
 40 41 0 0 0
SMALL
NO_CHARGES


@<TRIPOS>ATOM
1    C         2.0344   -5.4608   19.0117  C     
2    C         3.4358   -5.2845   18.8561  C     
3    C         3.8859   -4.0229   19.2974  C     
4    S         2.5050   -3.2044   19.9174  S     
5    C         1.3176   -4.4119   19.6092  C     
6    C         4.2565   -6.2623   18.3006  C     
7    O         5.4205   -6.0370   17.9919  O     
8    N         3.8611   -7.5032   18.1019  N     
9    N         5.1691   -3.5397   19.2799  N     
10   C         5.5810   -2.3226   19.6104  C     
11   N         6.8602   -2.0290   19.5350  N     
12   O         4.8410   -1.4265   19.9947  O     
13   C        -0.0752   -4.2774   19.8891  C     
14   C        -0.5624   -3.1552   20.6107  C     
15   C        -1.9306   -2.9747   20.8656  C     
16   C        -2.8745   -3.9001   20.3666  C     
17   C        -2.4115   -5.0394   19.6799  C     
18   C        -1.0403   -5.2209   19.4418  C     
19   O        -4.2004   -3.7551   20.6632  O     
20   C        -4.8886   -2.6903   19.9645  C     
21   C        -5.5289   -3.1738   18.6373  C     
22   O        -6.4170   -2.1394   18.1608  O     
23   C        -6.7640   -2.2484   16.7648  C     
24   H         1.5629   -6.3106   18.7127  H     
25   H         4.4734   -8.1539   17.7300  H     
26   H         2.9617   -7.7745   18.3439  H     
27   H         5.8597   -4.1480   18.9769  H     
28   H         7.1615   -1.1323   19.7619  H     
29   H         7.5016   -2.6987   19.2503  H     
30   H         0.0809   -2.4422   20.9813  H     
31   H        -2.2466   -2.1650   21.4129  H     
32   H        -3.0860   -5.7289   19.3367  H     
33   H        -0.7428   -6.0573   18.9314  H     
34   H        -5.6910   -2.3427   20.6353  H     
35   H        -4.2248   -1.8324   19.7665  H     
36   H        -4.7250   -3.3836   17.9234  H     
37   H        -6.1001   -4.0943   18.8216  H     
38   H        -5.8628   -2.0820   16.1609  H     
39   H        -7.4974   -1.4771   16.5262  H     
40   H        -7.2102   -3.2244   16.5350  H     
@<TRIPOS>BOND
     1    1    2 1
     2    1    5 2
     3    2    3 2
     4    2    6 1
     5    3    4 1
     6    3    9 1
     7    4    5 1
     8    5   13 1
     9    6    7 2
    10    6    8 am
    11    9   10 am
    12   10   11 am
    13   10   12 2
    14   13   14 2
    15   13   18 1
    16   14   15 1
    17   15   16 2
    18   16   17 1
    19   16   19 1
    20   17   18 2
    21   19   20 1
    22   20   21 1
    23   21   22 1
    24   22   23 1
    25    1   24 1
    26    8   25 1
    27    8   26 1
    28    9   27 1
    29   11   28 1
    30   11   29 1
    31   14   30 1
    32   15   31 1
    33   17   32 1
    34   18   33 1
    35   20   34 1
    36   20   35 1
    37   21   36 1
    38   21   37 1
    39   23   38 1
    40   23   39 1
    41   23   40 1
@<TRIPOS>PROPERTY_DATA
  Total_Score	| 4.3381
  Crash		| -0.4839
  Polar		| 2.1714
  FragIndex	| 1
  FragRMSD	| 0.202

