@<TRIPOS>MOLECULE
BindingDB_50243424
 52 54 0 0 0
SMALL
NO_CHARGES


@<TRIPOS>ATOM
1    C         2.0397   -5.3674   19.0319  C     
2    C         3.4501   -5.2569   18.8753  C     
3    C         3.9613   -4.0184   19.3273  C     
4    S         2.6232   -3.1335   19.9359  S     
5    C         1.3754   -4.2747   19.6234  C     
6    C         4.2342   -6.2731   18.3255  C     
7    O         5.4270   -6.1141   18.0895  O     
8    N         3.7651   -7.4728   18.0500  N     
9    N         5.2604   -3.5807   19.3107  N     
10   C         5.7205   -2.3727   19.6237  C     
11   N         7.0072   -2.1178   19.5244  N     
12   O         5.0147   -1.4470   20.0034  O     
13   C        -0.0043   -4.0699   19.9141  C     
14   C        -1.0229   -4.9351   19.4187  C     
15   C        -2.3790   -4.6984   19.6996  C     
16   C        -2.7776   -3.5816   20.4824  C     
17   C        -1.7689   -2.7175   20.9794  C     
18   C        -0.4186   -2.9636   20.7137  C     
19   C        -4.1916   -3.3548   20.8571  C     
20   N        -4.6609   -2.0012   20.4744  N     
21   C        -5.9903   -1.6219   21.0100  C     
22   C        -6.1369   -0.1429   21.0132  C     
23   C        -5.7535    0.6216   22.1421  C     
24   C        -5.8739    2.0253   22.1231  C     
25   C        -6.3671    2.6806   20.9780  C     
26   C        -6.7511    1.9252   19.8545  C     
27   C        -6.6327    0.5181   19.8639  C     
28   O        -6.4905    4.0480   20.9805  O     
29   C        -5.4243    4.7004   20.2682  C     
30   H         1.5286   -6.2021   18.7409  H     
31   H         4.3553   -8.1384   17.6646  H     
32   H         2.8409   -7.7136   18.2344  H     
33   H         5.9269   -4.2212   19.0207  H     
34   H         7.3391   -1.2291   19.7370  H     
35   H         7.6385   -2.7973   19.2390  H     
36   H        -0.7739   -5.7628   18.8600  H     
37   H        -3.0924   -5.3504   19.3315  H     
38   H        -2.0242   -1.9176   21.5758  H     
39   H         0.2719   -2.3154   21.1106  H     
40   H        -4.8581   -4.0980   20.4136  H     
41   H        -4.2741   -3.4591   21.9368  H     
42   H        -3.9815   -1.3077   20.8014  H     
43   H        -4.7034   -1.9574   19.4532  H     
44   H        -6.7858   -2.0688   20.4055  H     
45   H        -6.1035   -2.0186   22.0250  H     
46   H        -5.3969    0.1659   22.9869  H     
47   H        -5.5933    2.5675   22.9410  H     
48   H        -7.1302    2.3930   19.0290  H     
49   H        -6.9130   -0.0155   19.0308  H     
50   H        -4.4427    4.4643   20.6967  H     
51   H        -5.5855    5.7726   20.3574  H     
52   H        -5.4355    4.4369   19.2054  H     
@<TRIPOS>BOND
     1    1    2 1
     2    1    5 2
     3    2    3 2
     4    2    6 1
     5    3    4 1
     6    3    9 1
     7    4    5 1
     8    5   13 1
     9    6    7 2
    10    6    8 am
    11    9   10 am
    12   10   11 am
    13   10   12 2
    14   13   14 2
    15   13   18 1
    16   14   15 1
    17   15   16 2
    18   16   17 1
    19   16   19 1
    20   17   18 2
    21   19   20 1
    22   20   21 1
    23   21   22 1
    24   22   23 2
    25   22   27 1
    26   23   24 1
    27   24   25 2
    28   25   26 1
    29   25   28 1
    30   26   27 2
    31   28   29 1
    32    1   30 1
    33    8   31 1
    34    8   32 1
    35    9   33 1
    36   11   34 1
    37   11   35 1
    38   14   36 1
    39   15   37 1
    40   17   38 1
    41   18   39 1
    42   19   40 1
    43   19   41 1
    44   20   42 1
    45   20   43 1
    46   21   44 1
    47   21   45 1
    48   23   46 1
    49   24   47 1
    50   26   48 1
    51   27   49 1
    52   29   50 1
    53   29   51 1
    54   29   52 1
@<TRIPOS>PROPERTY_DATA
  Total_Score	| 5.5662
  Crash		| -0.9304
  Polar		| 3.2666
  FragIndex	| 1
  FragRMSD	| 0.218

