@<TRIPOS>MOLECULE
BindingDB_50243420
 33 34 0 0 0
SMALL
NO_CHARGES


@<TRIPOS>ATOM
1    C         1.9909   -5.4323   19.0308  C     
2    C         3.3901   -5.2765   18.8524  C     
3    C         3.8733   -4.0404   19.3331  C     
4    S         2.5204   -3.2102   19.9931  S     
5    C         1.3060   -4.3790   19.6613  C     
6    C         4.1865   -6.2560   18.2522  C     
7    O         5.3558   -6.0490   17.9517  O     
8    N         3.7532   -7.4672   17.9709  N     
9    N         5.1599   -3.5656   19.2787  N     
10   C         5.5992   -2.3615   19.6110  C     
11   N         6.8727   -2.0773   19.4634  N     
12   O         4.8879   -1.4701   20.0461  O     
13   C        -0.0881   -4.2112   19.9236  C     
14   C        -1.0509   -5.1427   19.4438  C     
15   C        -2.4220   -4.9701   19.6950  C     
16   C        -2.8757   -3.8624   20.4395  C     
17   C        -1.9449   -2.9268   20.9208  C     
18   C        -0.5723   -3.1045   20.6703  C     
19   O        -4.2068   -3.7373   20.7265  O     
20   C        -4.9290   -2.7589   19.9580  C     
21   F        -6.2577   -2.8886   20.2876  F     
22   F        -4.5411   -1.4761   20.2898  F     
23   F        -4.8155   -2.9345   18.5913  F     
24   H         1.5020   -6.2749   18.7285  H     
25   H         4.3543   -8.1160   17.5670  H     
26   H         2.8436   -7.7298   18.1847  H     
27   H         5.8272   -4.1771   18.9266  H     
28   H         7.1952   -1.1930   19.6983  H     
29   H         7.4862   -2.7408   19.1115  H     
30   H        -0.7652   -5.9545   18.8889  H     
31   H        -3.0916   -5.6604   19.3488  H     
32   H        -2.2679   -2.1264   21.4663  H     
33   H         0.0721   -2.4033   21.0430  H     
@<TRIPOS>BOND
     1    1    2 1
     2    1    5 2
     3    2    3 2
     4    2    6 1
     5    3    4 1
     6    3    9 1
     7    4    5 1
     8    5   13 1
     9    6    7 2
    10    6    8 am
    11    9   10 am
    12   10   11 am
    13   10   12 2
    14   13   14 2
    15   13   18 1
    16   14   15 1
    17   15   16 2
    18   16   17 1
    19   16   19 1
    20   17   18 2
    21   19   20 1
    22   20   21 1
    23   20   22 1
    24   20   23 1
    25    1   24 1
    26    8   25 1
    27    8   26 1
    28    9   27 1
    29   11   28 1
    30   11   29 1
    31   14   30 1
    32   15   31 1
    33   17   32 1
    34   18   33 1
@<TRIPOS>PROPERTY_DATA
  Total_Score	| 3.7723
  Crash		| -0.4169
  Polar		| 2.1520
  FragIndex	| 1
  FragRMSD	| 0.138

