@<TRIPOS>MOLECULE
BindingDB_50243472
 60 62 0 0 0
SMALL
NO_CHARGES


@<TRIPOS>ATOM
1    C         1.9436   -5.3004   18.7645  C     
2    C         3.3458   -5.1654   18.5375  C     
3    C         3.8837   -4.0119   19.1695  C     
4    S         2.5688   -3.2495   19.9872  S     
5    C         1.3050   -4.3192   19.5416  C     
6    C         4.0213   -6.1082   17.7375  C     
7    O         3.3964   -7.0800   17.3273  O     
8    N         5.2806   -5.9422   17.3295  N     
9    N         5.1747   -3.5377   19.1878  N     
10   C         5.5989   -2.3344   19.5633  C     
11   N         6.8782   -2.0499   19.4758  N     
12   O         4.8649   -1.4406   19.9691  O     
13   C        -0.0810   -4.1695   19.8705  C     
14   C        -0.5247   -3.1773   20.7827  C     
15   C        -1.8938   -2.9948   21.0575  C     
16   C        -2.8633   -3.7900   20.4097  C     
17   C        -2.4335   -4.7970   19.5314  C     
18   C        -1.0699   -4.9772   19.2595  C     
19   O        -4.2174   -3.6831   20.6008  O     
20   C        -4.8410   -2.4156   20.3064  C     
21   C        -6.2063   -2.6265   19.5873  C     
22   N        -6.2024   -2.1980   18.1411  N     
23   C        -5.6378   -3.2443   17.2196  C     
24   C        -7.5300   -1.6666   17.6683  C     
25   C        -7.9114   -0.2989   18.2807  C     
26   C        -4.8373   -2.6232   16.0522  C     
27   C         6.0991   -6.7127   16.5297  C     
28   C         5.9625   -8.1020   16.2746  C     
29   N         6.8763   -8.7579   15.5138  N     
30   C         7.9456   -8.1394   14.9602  C     
31   C         8.1491   -6.7683   15.1750  C     
32   C         7.2266   -6.0629   15.9712  C     
33   H         1.4061   -6.0771   18.3632  H     
34   H         5.6735   -5.0978   17.5790  H     
35   H         5.8769   -4.1339   18.8819  H     
36   H         7.1842   -1.1634   19.7305  H     
37   H         7.5186   -2.7036   19.1451  H     
38   H         0.1401   -2.5633   21.2576  H     
39   H        -2.1818   -2.2736   21.7214  H     
40   H        -3.1174   -5.3973   19.0671  H     
41   H        -0.8235   -5.6963   18.5807  H     
42   H        -5.0064   -1.9138   21.2628  H     
43   H        -4.2123   -1.7562   19.6995  H     
44   H        -6.5218   -3.6714   19.6729  H     
45   H        -6.9429   -2.0459   20.1466  H     
46   H        -5.5506   -1.4144   18.0802  H     
47   H        -4.9398   -3.8983   17.7468  H     
48   H        -6.4301   -3.8845   16.8186  H     
49   H        -7.5140   -1.5147   16.5861  H     
50   H        -8.3247   -2.3898   17.8763  H     
51   H        -8.1687   -0.3945   19.3353  H     
52   H        -8.7774    0.1104   17.7571  H     
53   H        -7.0814    0.4009   18.1810  H     
54   H        -5.4828   -2.0350   15.3984  H     
55   H        -4.3712   -3.4141   15.4616  H     
56   H        -4.0521   -1.9753   16.4384  H     
57   H         5.2138   -8.6546   16.6875  H     
58   H         8.6154   -8.6860   14.4229  H     
59   H         8.9636   -6.2981   14.7779  H     
60   H         7.3804   -5.0634   16.1293  H     
@<TRIPOS>BOND
     1    1    2 1
     2    1    5 2
     3    2    3 2
     4    2    6 1
     5    3    4 1
     6    3    9 1
     7    4    5 1
     8    5   13 1
     9    6    7 2
    10    6    8 am
    11    8   27 1
    12    9   10 am
    13   10   11 am
    14   10   12 2
    15   13   14 2
    16   13   18 1
    17   14   15 1
    18   15   16 2
    19   16   17 1
    20   16   19 1
    21   17   18 2
    22   19   20 1
    23   20   21 1
    24   21   22 1
    25   22   23 1
    26   22   24 1
    27   23   26 1
    28   24   25 1
    29   27   28 2
    30   27   32 1
    31   28   29 1
    32   29   30 2
    33   30   31 1
    34   31   32 2
    35    1   33 1
    36    8   34 1
    37    9   35 1
    38   11   36 1
    39   11   37 1
    40   14   38 1
    41   15   39 1
    42   17   40 1
    43   18   41 1
    44   20   42 1
    45   20   43 1
    46   21   44 1
    47   21   45 1
    48   22   46 1
    49   23   47 1
    50   23   48 1
    51   24   49 1
    52   24   50 1
    53   25   51 1
    54   25   52 1
    55   25   53 1
    56   26   54 1
    57   26   55 1
    58   26   56 1
    59   28   57 1
    60   30   58 1
    61   31   59 1
    62   32   60 1
@<TRIPOS>PROPERTY_DATA
  Total_Score	| 5.4153
  Crash		| -2.1761
  Polar		| 3.1135
  FragIndex	| 1
  FragRMSD	| 0.882

