@<TRIPOS>MOLECULE
BindingDB_50243369
 52 54 0 0 0
SMALL
NO_CHARGES


@<TRIPOS>ATOM
1    C         1.9896   -5.4130   19.0790  C     
2    C         3.3890   -5.2454   18.9022  C     
3    C         3.8591   -3.9916   19.3511  C     
4    S         2.4902   -3.1643   19.9908  S     
5    C         1.2913   -4.3540   19.6801  C     
6    C         4.1915   -6.2295   18.3261  C     
7    O         5.3553   -6.0067   18.0019  O     
8    N         3.7924   -7.4657   18.1254  N     
9    N         5.1454   -3.5257   19.3120  N     
10   C         5.5893   -2.3178   19.6254  C     
11   N         6.8696   -2.0528   19.5010  N     
12   O         4.8753   -1.4091   20.0187  O     
13   C        -0.1047   -4.2131   19.9549  C     
14   C        -0.5679   -3.1640   20.7870  C     
15   C        -1.9391   -2.9701   21.0314  C     
16   C        -2.8965   -3.8106   20.4328  C     
17   C        -2.4548   -4.8805   19.6293  C     
18   C        -1.0785   -5.0769   19.3926  C     
19   O        -4.2302   -3.6413   20.6982  O     
20   C        -4.8644   -2.4963   20.0881  C     
21   C        -5.8482   -2.9415   18.9739  C     
22   N        -6.2984   -1.8495   18.0403  N     
23   C        -7.0804   -0.7318   18.6637  C     
24   C        -6.9818   -2.3765   16.8102  C     
25   C        -8.5581   -1.1016   18.9662  C     
26   C        -9.2629   -1.6152   17.6887  C     
27   C        -8.4684   -2.7743   17.0336  C     
28   H         1.5056   -6.2638   18.7877  H     
29   H         4.3993   -8.1107   17.7311  H     
30   H         2.8993   -7.7430   18.3862  H     
31   H         5.8212   -4.1510   19.0054  H     
32   H         7.2004   -1.1618   19.6999  H     
33   H         7.4834   -2.7341   19.1893  H     
34   H         0.0875   -2.5197   21.2357  H     
35   H        -2.2371   -2.2047   21.6376  H     
36   H        -3.1394   -5.5135   19.2055  H     
37   H        -0.8021   -5.8539   18.7906  H     
38   H        -5.4271   -1.9994   20.8821  H     
39   H        -4.1537   -1.7708   19.6811  H     
40   H        -5.3205   -3.7020   18.3892  H     
41   H        -6.7106   -3.4309   19.4395  H     
42   H        -5.4316   -1.4183   17.7124  H     
43   H        -6.6077   -0.3767   19.5812  H     
44   H        -7.0682    0.1161   17.9754  H     
45   H        -6.9451   -1.6057   16.0377  H     
46   H        -6.4490   -3.2390   16.4102  H     
47   H        -8.5941   -1.8730   19.7404  H     
48   H        -9.0842   -0.2235   19.3472  H     
49   H       -10.2701   -1.9608   17.9373  H     
50   H        -9.3579   -0.7951   16.9713  H     
51   H        -8.9256   -3.0362   16.0729  H     
52   H        -8.5217   -3.6585   17.6746  H     
@<TRIPOS>BOND
     1    1    2 1
     2    1    5 2
     3    2    3 2
     4    2    6 1
     5    3    4 1
     6    3    9 1
     7    4    5 1
     8    5   13 1
     9    6    7 2
    10    6    8 am
    11    9   10 am
    12   10   11 am
    13   10   12 2
    14   13   14 2
    15   13   18 1
    16   14   15 1
    17   15   16 2
    18   16   17 1
    19   16   19 1
    20   17   18 2
    21   19   20 1
    22   20   21 1
    23   21   22 1
    24   22   23 1
    25   22   24 1
    26   23   25 1
    27   24   27 1
    28   25   26 1
    29   26   27 1
    30    1   28 1
    31    8   29 1
    32    8   30 1
    33    9   31 1
    34   11   32 1
    35   11   33 1
    36   14   34 1
    37   15   35 1
    38   17   36 1
    39   18   37 1
    40   20   38 1
    41   20   39 1
    42   21   40 1
    43   21   41 1
    44   22   42 1
    45   23   43 1
    46   23   44 1
    47   24   45 1
    48   24   46 1
    49   25   47 1
    50   25   48 1
    51   26   49 1
    52   26   50 1
    53   27   51 1
    54   27   52 1
@<TRIPOS>PROPERTY_DATA
  Total_Score	| 5.5841
  Crash		| -0.6817
  Polar		| 3.4217
  FragIndex	| 1
  FragRMSD	| 0.147

