@<TRIPOS>MOLECULE
BindingDB_50243333
 45 46 0 0 0
SMALL
NO_CHARGES


@<TRIPOS>ATOM
1    C         2.0106   -5.3543   19.0805  C     
2    C         3.4113   -5.2159   18.9138  C     
3    C         3.8862   -3.9531   19.3400  C     
4    S         2.5240   -3.0922   19.9529  S     
5    C         1.3147   -4.2728   19.6441  C     
6    C         4.2033   -6.2403   18.3883  C     
7    O         5.3918   -6.0798   18.1545  O     
8    N         3.7455   -7.4450   18.1277  N     
9    N         5.1761   -3.5000   19.2858  N     
10   C         5.6382   -2.3071   19.6266  C     
11   N         6.9213   -2.0578   19.4982  N     
12   O         4.9401   -1.4014   20.0558  O     
13   C        -0.0807   -4.1458   19.9071  C     
14   C        -1.0258   -4.9728   19.2446  C     
15   C        -2.4040   -4.8441   19.4883  C     
16   C        -2.8807   -3.8636   20.3789  C     
17   C        -1.9570   -3.0414   21.0551  C     
18   C        -0.5768   -3.1695   20.8077  C     
19   O        -4.2298   -3.7341   20.5998  O     
20   C        -4.8323   -2.5204   20.0850  C     
21   C        -5.8225   -2.8806   18.9490  C     
22   N        -6.2837   -1.7320   18.1033  N     
23   C        -7.2465   -2.1813   17.0507  C     
24   C        -6.8247   -0.5782   18.8774  C     
25   H         1.5204   -6.2123   18.8177  H     
26   H         4.3439   -8.1272   17.7808  H     
27   H         2.8159   -7.6677   18.2914  H     
28   H         5.8378   -4.1200   18.9459  H     
29   H         7.2713   -1.1848   19.7426  H     
30   H         7.5207   -2.7420   19.1608  H     
31   H        -0.7206   -5.6688   18.5635  H     
32   H        -3.0612   -5.4668   19.0102  H     
33   H        -2.2953   -2.3483   21.7251  H     
34   H         0.0563   -2.5428   21.3115  H     
35   H        -5.3714   -2.0369   20.9029  H     
36   H        -4.0994   -1.8059   19.6943  H     
37   H        -5.3039   -3.5848   18.2948  H     
38   H        -6.6786   -3.4071   19.3834  H     
39   H        -5.4570   -1.3856   17.6115  H     
40   H        -6.8030   -2.9704   16.4393  H     
41   H        -7.4978   -1.3601   16.3769  H     
42   H        -8.1679   -2.5663   17.4941  H     
43   H        -7.6604   -0.8864   19.5079  H     
44   H        -7.1733    0.2155   18.2093  H     
45   H        -6.0491   -0.1478   19.5087  H     
@<TRIPOS>BOND
     1    1    2 1
     2    1    5 2
     3    2    3 2
     4    2    6 1
     5    3    4 1
     6    3    9 1
     7    4    5 1
     8    5   13 1
     9    6    7 2
    10    6    8 am
    11    9   10 am
    12   10   11 am
    13   10   12 2
    14   13   14 2
    15   13   18 1
    16   14   15 1
    17   15   16 2
    18   16   17 1
    19   16   19 1
    20   17   18 2
    21   19   20 1
    22   20   21 1
    23   21   22 1
    24   22   23 1
    25   22   24 1
    26    1   25 1
    27    8   26 1
    28    8   27 1
    29    9   28 1
    30   11   29 1
    31   11   30 1
    32   14   31 1
    33   15   32 1
    34   17   33 1
    35   18   34 1
    36   20   35 1
    37   20   36 1
    38   21   37 1
    39   21   38 1
    40   22   39 1
    41   23   40 1
    42   23   41 1
    43   23   42 1
    44   24   43 1
    45   24   44 1
    46   24   45 1
@<TRIPOS>PROPERTY_DATA
  Total_Score	| 5.4423
  Crash		| -0.5536
  Polar		| 3.1644
  FragIndex	| 1
  FragRMSD	| 0.108

