@<TRIPOS>MOLECULE
BindingDB_50243530
 67 69 0 0 0
SMALL
NO_CHARGES


@<TRIPOS>ATOM
1    C         1.6637   -5.3456   18.9274  C     
2    C         3.0397   -5.2121   18.6005  C     
3    C         3.6485   -4.0786   19.1970  C     
4    S         2.3869   -3.3007   20.0942  S     
5    C         1.0809   -4.3526   19.7350  C     
6    C         3.6288   -6.1475   17.7302  C     
7    O         3.0183   -7.1774   17.4223  O     
8    N         4.8377   -5.9668   17.1959  N     
9    N         4.9428   -3.6280   19.0945  N     
10   C         5.4451   -2.4847   19.5764  C     
11   N         6.7119   -2.1929   19.3381  N     
12   O         4.8042   -1.6487   20.2082  O     
13   C        -0.2847   -4.1650   20.0932  C     
14   C        -1.3204   -4.9303   19.4970  C     
15   C        -2.6828   -4.6977   19.7804  C     
16   C        -3.0540   -3.6737   20.6708  C     
17   C        -2.0446   -2.9210   21.3004  C     
18   C        -0.6856   -3.1541   21.0134  C     
19   O        -4.3800   -3.4361   20.9309  O     
20   C        -4.9791   -2.3542   20.1748  C     
21   C        -6.0006   -2.8749   19.1269  C     
22   N        -6.4015   -1.8266   18.1271  N     
23   C        -7.0521   -2.3773   16.8871  C     
24   C        -7.0613   -0.5772   18.6619  C     
25   C        -8.2492   -0.7251   19.6578  C     
26   C        -8.5868   -2.6049   16.9402  C     
27   C         5.5790   -6.8419   16.3367  C     
28   C         4.8425   -7.2794   15.0256  C     
29   C         5.7730   -8.1248   14.1250  C     
30   N         6.9763   -7.3262   13.7858  N     
31   C         7.7758   -6.9247   14.9728  C     
32   C         6.9099   -6.1055   15.9564  C     
33   H         1.0984   -6.1114   18.5649  H     
34   H         5.2926   -5.1273   17.4088  H     
35   H         5.5617   -4.1918   18.5972  H     
36   H         7.0410   -1.3315   19.6304  H     
37   H         7.2947   -2.7951   18.8502  H     
38   H        -1.1030   -5.6614   18.8202  H     
39   H        -3.4028   -5.2548   19.3200  H     
40   H        -2.3099   -2.1874   21.9574  H     
41   H         0.0044   -2.5563   21.4811  H     
42   H        -5.5038   -1.7107   20.8845  H     
43   H        -4.2320   -1.7275   19.6675  H     
44   H        -5.5006   -3.7022   18.6143  H     
45   H        -6.8752   -3.2986   19.6358  H     
46   H        -5.5005   -1.4931   17.7763  H     
47   H        -6.8398   -1.6817   16.0703  H     
48   H        -6.5695   -3.3192   16.6091  H     
49   H        -6.2926    0.0196   19.1645  H     
50   H        -7.4008    0.0292   17.8166  H     
51   H        -9.0515   -1.3393   19.2484  H     
52   H        -8.6733    0.2656   19.8779  H     
53   H        -7.8983   -1.1839   20.5862  H     
54   H        -8.8667   -3.1196   17.8668  H     
55   H        -8.9100   -3.2213   16.1030  H     
56   H        -9.1042   -1.6385   16.8693  H     
57   H         5.8329   -7.7518   16.8972  H     
58   H         3.9671   -7.8842   15.2508  H     
59   H         4.5053   -6.3921   14.4768  H     
60   H         6.0606   -9.0524   14.6336  H     
61   H         5.2566   -8.3857   13.1991  H     
62   H         7.5705   -7.8620   13.1448  H     
63   H         6.6589   -6.4867   13.2955  H     
64   H         8.1668   -7.8156   15.4797  H     
65   H         8.6287   -6.3234   14.6328  H     
66   H         6.6630   -5.1500   15.4766  H     
67   H         7.4922   -5.8927   16.8557  H     
@<TRIPOS>BOND
     1    1    2 1
     2    1    5 2
     3    2    3 2
     4    2    6 1
     5    3    4 1
     6    3    9 1
     7    4    5 1
     8    5   13 1
     9    6    7 2
    10    6    8 am
    11    8   27 1
    12    9   10 am
    13   10   11 am
    14   10   12 2
    15   13   14 2
    16   13   18 1
    17   14   15 1
    18   15   16 2
    19   16   17 1
    20   16   19 1
    21   17   18 2
    22   19   20 1
    23   20   21 1
    24   21   22 1
    25   22   23 1
    26   22   24 1
    27   23   26 1
    28   24   25 1
    29   27   28 1
    30   27   32 1
    31   28   29 1
    32   29   30 1
    33   30   31 1
    34   31   32 1
    35    1   33 1
    36    8   34 1
    37    9   35 1
    38   11   36 1
    39   11   37 1
    40   14   38 1
    41   15   39 1
    42   17   40 1
    43   18   41 1
    44   20   42 1
    45   20   43 1
    46   21   44 1
    47   21   45 1
    48   22   46 1
    49   23   47 1
    50   23   48 1
    51   24   49 1
    52   24   50 1
    53   25   51 1
    54   25   52 1
    55   25   53 1
    56   26   54 1
    57   26   55 1
    58   26   56 1
    59   27   57 1
    60   28   58 1
    61   28   59 1
    62   29   60 1
    63   29   61 1
    64   30   62 1
    65   30   63 1
    66   31   64 1
    67   31   65 1
    68   32   66 1
    69   32   67 1
@<TRIPOS>PROPERTY_DATA
  Total_Score	| 6.6506
  Crash		| -1.0503
  Polar		| 4.7014
  FragIndex	| 1
  FragRMSD	| 0.744

