@<TRIPOS>MOLECULE
BindingDB_50243473
 64 66 0 0 0
SMALL
NO_CHARGES


@<TRIPOS>ATOM
1    C         1.8466   -5.2450   18.5486  C     
2    C         3.2473   -5.0802   18.4167  C     
3    C         3.7633   -4.0042   19.1598  C     
4    S         2.4318   -3.3125   19.9954  S     
5    C         1.1869   -4.3496   19.4158  C     
6    C         4.0336   -5.9135   17.6351  C     
7    O         5.0548   -6.3750   18.1401  O     
8    N         3.7099   -6.1725   16.3734  N     
9    N         5.0522   -3.5623   19.1506  N     
10   C         5.5117   -2.4069   19.6097  C     
11   N         6.7716   -2.1043   19.4118  N     
12   O         4.8261   -1.5690   20.1877  O     
13   C        -0.1956   -4.2296   19.7548  C     
14   C        -1.2024   -4.9434   19.0557  C     
15   C        -2.5690   -4.7660   19.3608  C     
16   C        -2.9621   -3.8667   20.3656  C     
17   C        -1.9751   -3.1775   21.0949  C     
18   C        -0.6176   -3.3516   20.7908  C     
19   O        -4.2890   -3.6957   20.6482  O     
20   C        -4.8518   -2.4253   20.2682  C     
21   C        -5.9463   -2.6257   19.1907  C     
22   N        -6.3993   -1.3736   18.4855  N     
23   C        -7.5074   -1.6105   17.4992  C     
24   C        -6.6976   -0.2088   19.3883  C     
25   C        -7.7813   -0.4309   20.4736  C     
26   C        -7.0986   -2.4251   16.2537  C     
27   C         4.4297   -7.0312   15.4683  C     
28   C         4.0272   -6.7872   13.9996  C     
29   N         5.1282   -7.3138   13.1799  N     
30   C         6.3315   -7.4061   14.0208  C     
31   C         5.9572   -6.8352   15.3996  C     
32   H         1.3480   -5.9941   18.0658  H     
33   H         2.9145   -5.7398   16.0281  H     
34   H         5.6932   -4.1268   18.6972  H     
35   H         7.1116   -1.2407   19.6989  H     
36   H         7.3520   -2.7263   18.9471  H     
37   H        -0.9605   -5.5881   18.3000  H     
38   H        -3.2792   -5.2902   18.8387  H     
39   H        -2.2503   -2.5354   21.8453  H     
40   H         0.0618   -2.8201   21.3404  H     
41   H        -5.3055   -1.9947   21.1692  H     
42   H        -4.1097   -1.6973   19.9004  H     
43   H        -5.5144   -3.3024   18.4569  H     
44   H        -6.7945   -3.1388   19.6482  H     
45   H        -5.5937   -1.0835   17.9258  H     
46   H        -8.3510   -2.1163   17.9854  H     
47   H        -7.8816   -0.6508   17.1223  H     
48   H        -5.7797    0.1086   19.8871  H     
49   H        -6.9935    0.6522   18.7864  H     
50   H        -8.7502   -0.6255   20.0111  H     
51   H        -7.8730    0.4623   21.0907  H     
52   H        -7.5253   -1.2665   21.1198  H     
53   H        -6.1929   -2.0062   15.8112  H     
54   H        -7.9002   -2.3917   15.5102  H     
55   H        -6.9250   -3.4683   16.5148  H     
56   H         4.2148   -8.0686   15.7324  H     
57   H         3.0876   -7.2823   13.7487  H     
58   H         3.9230   -5.7125   13.7968  H     
59   H         4.8836   -8.2496   12.8456  H     
60   H         5.3045   -6.7029   12.3745  H     
61   H         6.6211   -8.4592   14.1087  H     
62   H         7.1599   -6.8499   13.5715  H     
63   H         6.2155   -5.7709   15.4499  H     
64   H         6.4691   -7.3678   16.2021  H     
@<TRIPOS>BOND
     1    1    2 1
     2    1    5 2
     3    2    3 2
     4    2    6 1
     5    3    4 1
     6    3    9 1
     7    4    5 1
     8    5   13 1
     9    6    7 2
    10    6    8 am
    11    8   27 1
    12    9   10 am
    13   10   11 am
    14   10   12 2
    15   13   14 2
    16   13   18 1
    17   14   15 1
    18   15   16 2
    19   16   17 1
    20   16   19 1
    21   17   18 2
    22   19   20 1
    23   20   21 1
    24   21   22 1
    25   22   23 1
    26   22   24 1
    27   23   26 1
    28   24   25 1
    29   27   28 1
    30   27   31 1
    31   28   29 1
    32   29   30 1
    33   30   31 1
    34    1   32 1
    35    8   33 1
    36    9   34 1
    37   11   35 1
    38   11   36 1
    39   14   37 1
    40   15   38 1
    41   17   39 1
    42   18   40 1
    43   20   41 1
    44   20   42 1
    45   21   43 1
    46   21   44 1
    47   22   45 1
    48   23   46 1
    49   23   47 1
    50   24   48 1
    51   24   49 1
    52   25   50 1
    53   25   51 1
    54   25   52 1
    55   26   53 1
    56   26   54 1
    57   26   55 1
    58   27   56 1
    59   28   57 1
    60   28   58 1
    61   29   59 1
    62   29   60 1
    63   30   61 1
    64   30   62 1
    65   31   63 1
    66   31   64 1
@<TRIPOS>PROPERTY_DATA
  Total_Score	| 7.2256
  Crash		| -0.7749
  Polar		| 4.5573
  FragIndex	| 1
  FragRMSD	| 0.545

