@<TRIPOS>MOLECULE
BindingDB_50243370
 47 49 0 0 0
SMALL
NO_CHARGES


@<TRIPOS>ATOM
1    C         2.0400   -5.4533   19.0372  C     
2    C         3.4408   -5.2791   18.8685  C     
3    C         3.8925   -4.0096   19.2931  C     
4    S         2.5192   -3.1800   19.9101  S     
5    C         1.3271   -4.3803   19.6088  C     
6    C         4.2632   -6.2739   18.3336  C     
7    O         5.4366   -6.0641   18.0583  O     
8    N         3.8424   -7.4990   18.0902  N     
9    N         5.1705   -3.5232   19.2675  N     
10   C         5.5876   -2.3085   19.5924  C     
11   N         6.8659   -2.0251   19.5161  N     
12   O         4.8524   -1.4093   19.9693  O     
13   C        -0.0636   -4.2400   19.8764  C     
14   C        -0.5293   -3.2337   20.7687  C     
15   C        -1.8944   -3.0531   21.0260  C     
16   C        -2.8591   -3.8565   20.3690  C     
17   C        -2.4108   -4.8801   19.5105  C     
18   C        -1.0407   -5.0744   19.2694  C     
19   O        -4.1949   -3.6803   20.6116  O     
20   C        -4.7279   -2.3906   20.2136  C     
21   C        -5.7035   -2.5144   19.0128  C     
22   O        -6.7837   -3.4182   19.3442  O     
23   C        -8.0761   -3.1819   18.7385  C     
24   C        -8.0339   -3.4371   17.2231  C     
25   C        -9.2774   -3.1316   16.3611  C     
26   C        -8.0271   -2.2335   16.2550  C     
27   H         1.5609   -6.3158   18.7696  H     
28   H         4.4607   -8.1577   17.7390  H     
29   H         2.9308   -7.7567   18.2947  H     
30   H         5.8560   -4.1314   18.9644  H     
31   H         7.1724   -1.1299   19.7430  H     
32   H         7.4988   -2.7028   19.2179  H     
33   H         0.1371   -2.6293   21.2638  H     
34   H        -2.1924   -2.3351   21.6902  H     
35   H        -3.0973   -5.4820   19.0429  H     
36   H        -0.7588   -5.8125   18.6225  H     
37   H        -5.2690   -2.0020   21.0921  H     
38   H        -3.9468   -1.6617   19.9842  H     
39   H        -6.0432   -1.5114   18.7418  H     
40   H        -5.1577   -2.9416   18.1592  H     
41   H        -8.7679   -3.9096   19.1870  H     
42   H        -8.4565   -2.1865   18.9764  H     
43   H        -7.4456   -4.2829   16.8687  H     
44   H        -9.4451   -3.8203   15.5338  H     
45   H       -10.1386   -2.7026   16.8730  H     
46   H        -8.1572   -1.2429   16.6697  H     
47   H        -7.4786   -2.3606   15.3270  H     
@<TRIPOS>BOND
     1    1    2 1
     2    1    5 2
     3    2    3 2
     4    2    6 1
     5    3    4 1
     6    3    9 1
     7    4    5 1
     8    5   13 1
     9    6    7 2
    10    6    8 am
    11    9   10 am
    12   10   11 am
    13   10   12 2
    14   13   14 2
    15   13   18 1
    16   14   15 1
    17   15   16 2
    18   16   17 1
    19   16   19 1
    20   17   18 2
    21   19   20 1
    22   20   21 1
    23   21   22 1
    24   22   23 1
    25   23   24 1
    26   24   25 1
    27   24   26 1
    28   25   26 1
    29    1   27 1
    30    8   28 1
    31    8   29 1
    32    9   30 1
    33   11   31 1
    34   11   32 1
    35   14   33 1
    36   15   34 1
    37   17   35 1
    38   18   36 1
    39   20   37 1
    40   20   38 1
    41   21   39 1
    42   21   40 1
    43   23   41 1
    44   23   42 1
    45   24   43 1
    46   25   44 1
    47   25   45 1
    48   26   46 1
    49   26   47 1
@<TRIPOS>PROPERTY_DATA
  Total_Score	| 4.6539
  Crash		| -0.5402
  Polar		| 2.1663
  FragIndex	| 1
  FragRMSD	| 0.136

