@<TRIPOS>MOLECULE
BindingDB_50243371
 47 48 0 0 0
SMALL
NO_CHARGES


@<TRIPOS>ATOM
1    C         2.0305   -5.3683   19.0973  C     
2    C         3.4318   -5.2148   18.9039  C     
3    C         3.9087   -3.9507   19.3205  C     
4    S         2.5531   -3.0921   19.9412  S     
5    C         1.3461   -4.2818   19.6704  C     
6    C         4.2377   -6.2189   18.3610  C     
7    O         5.3947   -6.0138   18.0300  O     
8    N         3.8259   -7.4569   18.2024  N     
9    N         5.2044   -3.4984   19.2716  N     
10   C         5.6606   -2.2945   19.5844  C     
11   N         6.9442   -2.0422   19.4900  N     
12   O         4.9480   -1.3798   19.9697  O     
13   C        -0.0373   -4.1242   19.9822  C     
14   C        -0.4710   -3.1158   20.8757  C     
15   C        -1.8362   -2.9379   21.1656  C     
16   C        -2.8013   -3.7642   20.5645  C     
17   C        -2.3894   -4.7813   19.6907  C     
18   C        -1.0206   -4.9520   19.3920  C     
19   O        -4.1220   -3.6628   20.9127  O     
20   C        -4.8795   -2.6600   20.2031  C     
21   C        -5.6247   -3.2404   18.9826  C     
22   O        -6.1464   -2.1650   18.1876  O     
23   C        -6.3427   -2.4867   16.7979  C     
24   C        -7.8058   -2.1572   16.4083  C     
25   O        -8.8398   -2.8175   17.1621  O     
26   C        -9.3492   -4.0595   16.6303  C     
27   H         1.5396   -6.2344   18.8535  H     
28   H         4.4317   -8.1261   17.8464  H     
29   H         2.9331   -7.7134   18.4721  H     
30   H         5.8711   -4.1348   18.9676  H     
31   H         7.2724   -1.1558   19.7167  H     
32   H         7.5637   -2.7323   19.2097  H     
33   H         0.1997   -2.5049   21.3547  H     
34   H        -2.1215   -2.2261   21.8408  H     
35   H        -3.0799   -5.4117   19.2754  H     
36   H        -0.7623   -5.6934   18.7383  H     
37   H        -5.6273   -2.2956   20.9113  H     
38   H        -4.2734   -1.7969   19.9035  H     
39   H        -4.9359   -3.8480   18.3855  H     
40   H        -6.4504   -3.8654   19.3374  H     
41   H        -5.6616   -1.8957   16.1786  H     
42   H        -6.1569   -3.5470   16.5918  H     
43   H        -7.9568   -1.0875   16.5635  H     
44   H        -7.9536   -2.3628   15.3435  H     
45   H        -9.5763   -3.9867   15.5540  H     
46   H       -10.2617   -4.3111   17.1645  H     
47   H        -8.6086   -4.8584   16.8049  H     
@<TRIPOS>BOND
     1    1    2 1
     2    1    5 2
     3    2    3 2
     4    2    6 1
     5    3    4 1
     6    3    9 1
     7    4    5 1
     8    5   13 1
     9    6    7 2
    10    6    8 am
    11    9   10 am
    12   10   11 am
    13   10   12 2
    14   13   14 2
    15   13   18 1
    16   14   15 1
    17   15   16 2
    18   16   17 1
    19   16   19 1
    20   17   18 2
    21   19   20 1
    22   20   21 1
    23   21   22 1
    24   22   23 1
    25   23   24 1
    26   24   25 1
    27   25   26 1
    28    1   27 1
    29    8   28 1
    30    8   29 1
    31    9   30 1
    32   11   31 1
    33   11   32 1
    34   14   33 1
    35   15   34 1
    36   17   35 1
    37   18   36 1
    38   20   37 1
    39   20   38 1
    40   21   39 1
    41   21   40 1
    42   23   41 1
    43   23   42 1
    44   24   43 1
    45   24   44 1
    46   26   45 1
    47   26   46 1
    48   26   47 1
@<TRIPOS>PROPERTY_DATA
  Total_Score	| 4.6810
  Crash		| -0.6448
  Polar		| 2.1093
  FragIndex	| 1
  FragRMSD	| 0.199

