@<TRIPOS>MOLECULE
BindingDB_28452
 43 45 0 0 0
SMALL
NO_CHARGES


@<TRIPOS>ATOM
1    O       -16.0173   -7.3393    5.4510  O     
2    O       -12.8606   -6.9225    5.3745  O     
3    O       -13.9368   -4.3711    5.0614  O     
4    N       -16.9509   -5.2930    4.6341  N     
5    N       -16.6236   -8.9283    7.9430  N     
6    N       -18.4183   -3.8276    3.8178  N     
7    N       -18.4254   -6.1607    6.4195  N     
8    N       -20.5439   -5.1271    6.5071  N     
9    N       -21.1433   -3.4120    5.0242  N     
10   C       -14.9648   -7.6800    6.3624  C     
11   C       -13.9010   -6.5547    6.2910  C     
12   C       -14.7052   -5.3585    5.7544  C     
13   C       -15.7422   -6.0576    4.8433  C     
14   C       -15.5610   -7.8720    7.7913  C     
15   C       -18.0880   -5.3823    5.3563  C     
16   C       -17.1734   -4.3377    3.6917  C     
17   C       -16.1714  -10.3145    7.6128  C     
18   C       -18.9959   -4.4612    4.8400  C     
19   C       -20.2545   -4.3269    5.4466  C     
20   C       -19.6551   -6.0384    6.9874  C     
21   C       -17.2383   -8.8795    9.3029  C     
22   C       -16.2484   -3.8546    2.6447  C     
23   H       -12.1012   -6.3056    5.5546  H     
24   H       -12.9997   -4.6075    5.1304  H     
25   H       -17.3684   -8.6965    7.2782  H     
26   H       -20.9342   -2.8446    4.2681  H     
27   H       -21.9819   -3.2774    5.5064  H     
28   H       -14.5198   -8.6241    6.0396  H     
29   H       -13.4518   -6.3324    7.2657  H     
30   H       -15.2153   -4.8684    6.5896  H     
31   H       -15.2836   -6.2725    3.8782  H     
32   H       -15.9860   -6.9085    8.0846  H     
33   H       -14.7408   -8.0871    8.4842  H     
34   H       -15.9446  -10.3945    6.5523  H     
35   H       -16.9546  -11.0438    7.8304  H     
36   H       -15.2850  -10.5881    8.1860  H     
37   H       -19.9062   -6.6236    7.7857  H     
38   H       -16.5000   -9.0996   10.0770  H     
39   H       -18.0558   -9.6046    9.3860  H     
40   H       -17.6665   -7.8934    9.4996  H     
41   H       -15.3462   -3.4536    3.1034  H     
42   H       -16.7192   -3.0679    2.0571  H     
43   H       -15.9827   -4.6775    1.9788  H     
@<TRIPOS>BOND
     1    1   10 1
     2    1   13 1
     3   11    2 1
     4   12    3 1
     5   13    4 1
     6    4   15 1
     7    4   16 1
     8    5   14 1
     9    5   17 1
    10    5   21 1
    11    6   16 2
    12    6   18 1
    13    7   15 1
    14    7   20 2
    15    8   19 2
    16    8   20 1
    17    9   19 1
    18   10   11 1
    19   10   14 1
    20   11   12 1
    21   12   13 1
    22   15   18 2
    23   16   22 1
    24   18   19 1
    25    2   23 1
    26    3   24 1
    27    5   25 1
    28    9   26 1
    29    9   27 1
    30   10   28 1
    31   11   29 1
    32   12   30 1
    33   13   31 1
    34   14   32 1
    35   14   33 1
    36   17   34 1
    37   17   35 1
    38   17   36 1
    39   20   37 1
    40   21   38 1
    41   21   39 1
    42   21   40 1
    43   22   41 1
    44   22   42 1
    45   22   43 1
@<TRIPOS>PROPERTY_DATA
  Total_Score	| 10.1732
  Crash		| -0.8981
  Polar		| 5.0572
  FragIndex	| 1
  FragRMSD	| 0.146

