@<TRIPOS>MOLECULE
BindingDB_28421
 50 52 0 0 0
SMALL
NO_CHARGES


@<TRIPOS>ATOM
1    O       -15.9482   -7.2669    5.3604  O     
2    O       -12.8356   -6.8128    5.3038  O     
3    O       -13.9541   -4.2840    4.9666  O     
4    O       -19.4147   -9.1435    9.2254  O     
5    N       -16.9676   -5.2399    4.5857  N     
6    N       -16.2364   -9.0054    8.0952  N     
7    N       -18.4590   -3.7858    3.8045  N     
8    N       -18.4345   -6.1754    6.3359  N     
9    N       -20.5603   -5.1834    6.4697  N     
10   N       -21.1754   -3.4092    5.0739  N     
11   N       -20.4433  -10.0188    9.1011  N     
12   C       -14.9205   -7.5777    6.3195  C     
13   C       -13.8724   -6.4384    6.2201  C     
14   C       -14.7133   -5.2593    5.6941  C     
15   C       -15.7377   -5.9709    4.7864  C     
16   C       -15.5487   -7.7092    7.7384  C     
17   C       -18.1019   -5.3689    5.3003  C     
18   C       -17.2055   -4.2646    3.6694  C     
19   C       -17.0079   -8.8424    9.3837  C     
20   C       -19.0260   -4.4508    4.8135  C     
21   C       -16.9923   -9.6825    6.9845  C     
22   C       -18.1996   -9.8138    9.6347  C     
23   C       -20.2810   -4.3454    5.4360  C     
24   C       -19.6633   -6.1042    6.9117  C     
25   C       -16.2870   -3.7427    2.6440  C     
26   H       -12.0825   -6.2172    5.5015  H     
27   H       -13.0065   -4.5285    5.0612  H     
28   H       -15.4739   -9.6588    8.3097  H     
29   H       -20.9681   -2.7949    4.3555  H     
30   H       -22.0014   -3.2952    5.5707  H     
31   H       -20.2188  -10.6870    8.3609  H     
32   H       -21.2885   -9.5018    8.8443  H     
33   H       -20.5965  -10.5111    9.9842  H     
34   H       -14.4586   -8.5342    6.0700  H     
35   H       -13.4093   -6.1892    7.1851  H     
36   H       -15.2184   -4.7651    6.5350  H     
37   H       -15.2738   -6.1625    3.8187  H     
38   H       -16.2349   -6.8623    7.8700  H     
39   H       -14.7463   -7.5668    8.4707  H     
40   H       -16.2861   -8.9862   10.1978  H     
41   H       -17.3952   -7.8221    9.4805  H     
42   H       -17.8514   -9.0818    6.6637  H     
43   H       -17.3613  -10.6623    7.3191  H     
44   H       -16.3284   -9.8760    6.1272  H     
45   H       -18.2528  -10.0725   10.7099  H     
46   H       -18.0082  -10.7369    9.0520  H     
47   H       -19.9049   -6.7243    7.6835  H     
48   H       -15.3934   -3.3389    3.1169  H     
49   H       -16.7639   -2.9458    2.0721  H     
50   H       -16.0018   -4.5389    1.9559  H     
@<TRIPOS>BOND
     1    1   12 1
     2    1   15 1
     3   13    2 1
     4   14    3 1
     5    4   11 1
     6    4   22 1
     7   15    5 1
     8    5   17 1
     9    5   18 1
    10    6   16 1
    11    6   19 1
    12    6   21 1
    13    7   18 2
    14    7   20 1
    15    8   17 2
    16    8   24 1
    17    9   23 1
    18    9   24 2
    19   10   23 1
    20   12   13 1
    21   12   16 1
    22   13   14 1
    23   14   15 1
    24   17   20 1
    25   18   25 1
    26   19   22 1
    27   20   23 2
    28    2   26 1
    29    3   27 1
    30    6   28 1
    31   10   29 1
    32   10   30 1
    33   11   31 1
    34   11   32 1
    35   11   33 1
    36   12   34 1
    37   13   35 1
    38   14   36 1
    39   15   37 1
    40   16   38 1
    41   16   39 1
    42   19   40 1
    43   19   41 1
    44   21   42 1
    45   21   43 1
    46   21   44 1
    47   22   45 1
    48   22   46 1
    49   24   47 1
    50   25   48 1
    51   25   49 1
    52   25   50 1
@<TRIPOS>PROPERTY_DATA
  Total_Score	| 11.3235
  Crash		| -1.7418
  Polar		| 7.1514
  FragIndex	| 1
  FragRMSD	| 0.503

