@<TRIPOS>MOLECULE
BindingDB_28448
 52 54 0 0 0
SMALL
NO_CHARGES


@<TRIPOS>ATOM
1    O       -15.9001   -7.3000    5.3696  O     
2    O       -12.8151   -6.7964    5.4230  O     
3    O       -13.9476   -4.2399    5.1643  O     
4    C       -19.5369   -9.0729    9.0015  C     
5    N       -16.8924   -5.2715    4.5533  N     
6    N       -16.1427   -9.0665    8.1727  N     
7    N       -18.3413   -3.7895    3.7416  N     
8    N       -18.3608   -6.1108    6.3520  N     
9    N       -20.4647   -5.0492    6.4579  N     
10   N       -21.0658   -3.3435    4.9717  N     
11   C       -14.9033   -7.5912    6.3727  C     
12   C       -13.8737   -6.4366    6.3144  C     
13   C       -14.7207   -5.2716    5.7763  C     
14   C       -15.6708   -5.9977    4.8027  C     
15   C       -15.5918   -7.7221    7.7622  C     
16   C       -18.0256   -5.3474    5.2800  C     
17   C       -17.1029   -4.3100    3.6141  C     
18   C       -16.9835   -8.9192    9.4263  C     
19   C       -18.9242   -4.4157    4.7680  C     
20   C       -18.2825   -9.7629    9.5977  C     
21   C       -20.1780   -4.2616    5.3860  C     
22   C       -19.5804   -5.9665    6.9361  C     
23   N       -20.6829   -9.9863    8.9646  N     
24   C       -16.1583   -3.8175    2.5953  C     
25   C       -16.7223   -9.8839    7.0633  C     
26   H       -12.0797   -6.1812    5.6065  H     
27   H       -13.1803   -4.6863    4.7544  H     
28   H       -19.8109   -8.2064    9.6034  H     
29   H       -19.3646   -8.7394    7.9809  H     
30   H       -15.3270   -9.6120    8.4645  H     
31   H       -20.8559   -2.7710    4.2183  H     
32   H       -21.9002   -3.2136    5.4523  H     
33   H       -14.4122   -8.5362    6.1361  H     
34   H       -13.4420   -6.1961    7.2922  H     
35   H       -15.2895   -4.8235    6.5982  H     
36   H       -15.1450   -6.1672    3.8600  H     
37   H       -16.3784   -6.9640    7.7949  H     
38   H       -14.8570   -7.4512    8.5224  H     
39   H       -16.3210   -9.1929   10.2574  H     
40   H       -17.2626   -7.8672    9.6043  H     
41   H       -18.4632   -9.9103   10.6716  H     
42   H       -18.1322  -10.7455    9.1515  H     
43   H       -19.8272   -6.5319    7.7477  H     
44   H       -20.4620  -10.7717    8.3465  H     
45   H       -21.5006   -9.4863    8.6040  H     
46   H       -20.8765  -10.3341    9.9103  H     
47   H       -15.2688   -3.4144    3.0787  H     
48   H       -16.6204   -3.0253    2.0044  H     
49   H       -15.8708   -4.6298    1.9271  H     
50   H       -17.5698   -9.3751    6.5970  H     
51   H       -17.0427  -10.8626    7.4215  H     
52   H       -15.9623  -10.0823    6.3000  H     
@<TRIPOS>BOND
     1    1   11 1
     2    1   14 1
     3   12    2 1
     4   13    3 1
     5    4   20 1
     6    4   23 1
     7   14    5 1
     8    5   16 1
     9    5   17 1
    10    6   15 1
    11    6   18 1
    12    6   25 1
    13    7   17 2
    14    7   19 1
    15    8   16 1
    16    8   22 2
    17    9   21 2
    18    9   22 1
    19   10   21 1
    20   11   12 1
    21   11   15 1
    22   12   13 1
    23   13   14 1
    24   16   19 2
    25   17   24 1
    26   18   20 1
    27   19   21 1
    28    2   26 1
    29    3   27 1
    30    4   28 1
    31    4   29 1
    32    6   30 1
    33   10   31 1
    34   10   32 1
    35   11   33 1
    36   12   34 1
    37   13   35 1
    38   14   36 1
    39   15   37 1
    40   15   38 1
    41   18   39 1
    42   18   40 1
    43   20   41 1
    44   20   42 1
    45   22   43 1
    46   23   44 1
    47   23   45 1
    48   23   46 1
    49   24   47 1
    50   24   48 1
    51   24   49 1
    52   25   50 1
    53   25   51 1
    54   25   52 1
@<TRIPOS>PROPERTY_DATA
  Total_Score	| 10.9427
  Crash		| -1.5001
  Polar		| 6.4886
  FragIndex	| 1
  FragRMSD	| 0.391

