@<TRIPOS>MOLECULE
BindingDB_28438
 49 51 0 0 0
SMALL
NO_CHARGES


@<TRIPOS>ATOM
1    O       -15.9933   -7.3880    5.4988  O     
2    O       -12.9178   -6.8478    5.2557  O     
3    O       -14.0812   -4.2937    5.0897  O     
4    N       -18.5769  -10.1764   10.7161  N     
5    N       -16.9872   -5.3755    4.6170  N     
6    N       -15.9519   -9.2033    8.2178  N     
7    N       -18.3898   -3.8314    3.8378  N     
8    N       -18.5267   -6.2853    6.3328  N     
9    N       -20.6018   -5.1620    6.4378  N     
10   N       -21.0993   -3.3353    5.0684  N     
11   C       -14.9128   -7.6606    6.4199  C     
12   C       -13.8916   -6.4986    6.2534  C     
13   C       -14.7809   -5.3495    5.7558  C     
14   C       -15.7758   -6.1172    4.8634  C     
15   C       -15.4961   -7.8147    7.8578  C     
16   C       -18.1355   -5.4681    5.3191  C     
17   C       -17.1682   -4.3824    3.7023  C     
18   C       -16.5359   -9.3133    9.6069  C     
19   C       -18.9980   -4.4862    4.8332  C     
20   C       -16.7782   -9.9134    7.1932  C     
21   C       -17.9828   -9.4949    9.7478  C     
22   C       -20.2591   -4.3196    5.4274  C     
23   C       -19.7630   -6.1421    6.8822  C     
24   C       -16.2217   -3.9094    2.6759  C     
25   O       -18.7423   -8.9805    8.9274  O     
26   N       -18.0101  -10.7521   11.6932  N     
27   H       -12.1258   -6.2954    5.4091  H     
28   H       -13.1336   -4.5629    5.0482  H     
29   H       -19.5411  -10.2557   10.6712  H     
30   H       -15.0838   -9.7442    8.2567  H     
31   H       -20.8385   -2.7177    4.3651  H     
32   H       -21.9334   -3.1995    5.5505  H     
33   H       -14.4129   -8.5920    6.1480  H     
34   H       -13.3649   -6.2483    7.1794  H     
35   H       -15.3072   -4.9049    6.6122  H     
36   H       -15.2986   -6.3513    3.9090  H     
37   H       -16.3110   -7.0928    7.9888  H     
38   H       -14.7160   -7.5457    8.5692  H     
39   H       -16.0343  -10.1663   10.0753  H     
40   H       -16.2488   -8.4290   10.1828  H     
41   H       -17.6654   -9.3335    6.9290  H     
42   H       -17.0825  -10.8919    7.5606  H     
43   H       -16.1866  -10.0860    6.2857  H     
44   H       -20.0542   -6.7633    7.6419  H     
45   H       -15.3116   -3.5379    3.1414  H     
46   H       -16.6635   -3.0988    2.0917  H     
47   H       -15.9777   -4.7271    2.0012  H     
48   H       -18.5242  -11.2666   12.2904  H     
49   H       -17.0857  -10.6688   11.8243  H     
@<TRIPOS>BOND
     1    1   11 1
     2    1   14 1
     3   12    2 1
     4   13    3 1
     5    4   21 am
     6    4   26 1
     7   14    5 1
     8    5   16 1
     9    5   17 1
    10    6   15 1
    11    6   18 1
    12    6   20 1
    13    7   17 2
    14    7   19 1
    15    8   16 1
    16    8   23 2
    17    9   22 2
    18    9   23 1
    19   10   22 1
    20   11   12 1
    21   11   15 1
    22   12   13 1
    23   13   14 1
    24   16   19 2
    25   17   24 1
    26   18   21 1
    27   19   22 1
    28   21   25 2
    29    2   27 1
    30    3   28 1
    31    4   29 1
    32    6   30 1
    33   10   31 1
    34   10   32 1
    35   11   33 1
    36   12   34 1
    37   13   35 1
    38   14   36 1
    39   15   37 1
    40   15   38 1
    41   18   39 1
    42   18   40 1
    43   20   41 1
    44   20   42 1
    45   20   43 1
    46   23   44 1
    47   24   45 1
    48   24   46 1
    49   24   47 1
    50   26   48 1
    51   26   49 1
@<TRIPOS>PROPERTY_DATA
  Total_Score	| 10.1499
  Crash		| -1.5333
  Polar		| 4.9899
  FragIndex	| 1
  FragRMSD	| 0.575

