@<TRIPOS>MOLECULE
BindingDB_28449
 55 57 0 0 0
SMALL
NO_CHARGES


@<TRIPOS>ATOM
1    O       -15.8822   -7.1479    5.4801  O     
2    O       -12.8089   -6.7855    5.6823  O     
3    O       -13.8208   -4.1135    5.6934  O     
4    C       -19.3863   -9.6238    9.1879  C     
5    N       -16.7787   -5.0661    4.7820  N     
6    N       -16.6773   -8.9450    7.9603  N     
7    N       -18.4041   -3.9052    3.7878  N     
8    N       -18.0116   -5.4735    6.8797  N     
9    N       -20.1877   -4.5777    6.9189  N     
10   N       -21.0738   -3.4068    5.0961  N     
11   C       -14.9541   -7.5587    6.5095  C     
12   C       -13.8746   -6.4509    6.5860  C     
13   C       -14.6519   -5.2003    6.1287  C     
14   C       -15.5588   -5.7980    5.0343  C     
15   C       -15.6954   -7.8175    7.8689  C     
16   C       -17.8285   -4.9953    5.6206  C     
17   C       -17.1427   -4.3725    3.6665  C     
18   C       -17.9330   -8.8357    7.1272  C     
19   C       -18.8460   -4.2870    4.9870  C     
20   C       -19.2442   -8.7209    7.9293  C     
21   C       -20.0595   -4.0823    5.6613  C     
22   C       -19.1795   -5.2679    7.5370  C     
23   N       -20.7125  -10.2615    9.2638  N     
24   C       -16.3317   -4.0398    2.4682  C     
25   C       -16.0407  -10.2892    7.8916  C     
26   C       -15.3343   -2.8962    2.7484  C     
27   H       -12.0967   -6.1233    5.8184  H     
28   H       -13.0609   -4.5082    5.2093  H     
29   H       -18.6406  -10.4278    9.1809  H     
30   H       -19.2325   -9.0345   10.1004  H     
31   H       -17.0080   -8.8843    8.9377  H     
32   H       -20.9677   -3.0365    4.2062  H     
33   H       -21.8954   -3.2495    5.5910  H     
34   H       -14.4881   -8.4860    6.1870  H     
35   H       -13.4588   -6.3175    7.5928  H     
36   H       -15.2627   -4.8377    6.9664  H     
37   H       -14.9748   -5.8967    4.1177  H     
38   H       -16.1887   -6.9038    8.1870  H     
39   H       -14.9239   -8.0035    8.6356  H     
40   H       -17.8892   -7.9605    6.4569  H     
41   H       -18.0270   -9.7066    6.4530  H     
42   H       -20.0676   -8.9122    7.2507  H     
43   H       -19.3806   -7.6507    8.2727  H     
44   H       -19.3048   -5.6353    8.4742  H     
45   H       -21.4546   -9.5730    9.1010  H     
46   H       -20.8228  -10.6832   10.1971  H     
47   H       -20.7698  -10.9946    8.5542  H     
48   H       -15.8025   -4.9242    2.1096  H     
49   H       -17.0021   -3.7196    1.6670  H     
50   H       -15.6428  -10.4940    6.8947  H     
51   H       -16.7604  -11.0749    8.1101  H     
52   H       -15.2285  -10.3844    8.6301  H     
53   H       -15.8588   -2.0064    3.1055  H     
54   H       -14.8065   -2.6461    1.8295  H     
55   H       -14.5948   -3.1967    3.4934  H     
@<TRIPOS>BOND
     1    1   11 1
     2    1   14 1
     3   12    2 1
     4   13    3 1
     5    4   20 1
     6    4   23 1
     7   14    5 1
     8    5   16 1
     9    5   17 1
    10    6   15 1
    11    6   18 1
    12    6   25 1
    13    7   17 2
    14    7   19 1
    15    8   16 1
    16    8   22 2
    17    9   21 2
    18    9   22 1
    19   10   21 1
    20   11   12 1
    21   11   15 1
    22   12   13 1
    23   13   14 1
    24   16   19 2
    25   17   24 1
    26   18   20 1
    27   19   21 1
    28   24   26 1
    29    2   27 1
    30    3   28 1
    31    4   29 1
    32    4   30 1
    33    6   31 1
    34   10   32 1
    35   10   33 1
    36   11   34 1
    37   12   35 1
    38   13   36 1
    39   14   37 1
    40   15   38 1
    41   15   39 1
    42   18   40 1
    43   18   41 1
    44   20   42 1
    45   20   43 1
    46   22   44 1
    47   23   45 1
    48   23   46 1
    49   23   47 1
    50   24   48 1
    51   24   49 1
    52   25   50 1
    53   25   51 1
    54   25   52 1
    55   26   53 1
    56   26   54 1
    57   26   55 1
@<TRIPOS>PROPERTY_DATA
  Total_Score	| 10.5838
  Crash		| -1.8516
  Polar		| 6.0307
  FragIndex	| 1
  FragRMSD	| 0.635

