@<TRIPOS>MOLECULE
BindingDB_28431
 47 49 0 0 0
SMALL
NO_CHARGES


@<TRIPOS>ATOM
1    O       -15.9047   -7.3192    5.2854  O     
2    O       -12.7944   -6.8551    5.2441  O     
3    O       -13.8948   -4.3842    4.7502  O     
4    O       -19.4457   -9.0672    9.1316  O     
5    N       -16.9424   -5.2693    4.5666  N     
6    N       -16.2845   -8.9574    8.0401  N     
7    N       -18.3465   -3.6821    3.8762  N     
8    N       -18.4694   -6.2572    6.2340  N     
9    N       -20.5399   -5.1547    6.4339  N     
10   N       -21.0806   -3.2969    5.1226  N     
11   C       -14.8936   -7.5835    6.2748  C     
12   C       -13.8396   -6.4555    6.1339  C     
13   C       -14.6549   -5.2917    5.5512  C     
14   C       -15.7212   -6.0192    4.7051  C     
15   C       -15.5778   -7.6736    7.6750  C     
16   C       -18.0915   -5.3972    5.2565  C     
17   C       -17.1237   -4.2256    3.7265  C     
18   C       -17.0242   -8.8033    9.3517  C     
19   C       -18.9595   -4.3953    4.8294  C     
20   C       -17.0776   -9.5890    6.9440  C     
21   C       -18.2602   -9.6971    9.6522  C     
22   C       -20.2187   -4.2732    5.4488  C     
23   C       -19.6913   -6.1443    6.8203  C     
24   N       -20.5028   -9.9211    9.0920  N     
25   H       -12.0582   -6.2190    5.3864  H     
26   H       -12.9625   -4.4536    5.0449  H     
27   H       -15.5372   -9.6317    8.2257  H     
28   H       -20.8483   -2.6570    4.4292  H     
29   H       -21.9164   -3.1936    5.6122  H     
30   H       -14.4244   -8.5469    6.0631  H     
31   H       -13.3861   -6.1830    7.0913  H     
32   H       -15.1248   -4.7365    6.3698  H     
33   H       -15.3198   -6.2037    3.7063  H     
34   H       -16.2686   -6.8293    7.7560  H     
35   H       -14.8009   -7.5230    8.4296  H     
36   H       -16.4252   -3.8715    3.0678  H     
37   H       -16.2896   -8.9984   10.1372  H     
38   H       -17.3595   -7.7709    9.4888  H     
39   H       -17.9662   -9.0045    6.7158  H     
40   H       -17.3815  -10.5926    7.2338  H     
41   H       -16.4939   -9.7252    6.0331  H     
42   H       -18.3790   -9.8044   10.7338  H     
43   H       -18.1032  -10.6936    9.2353  H     
44   H       -19.9666   -6.7928    7.5579  H     
45   H       -20.6330  -10.3742   10.0021  H     
46   H       -20.3243  -10.6315    8.3750  H     
47   H       -21.3482   -9.3946    8.8443  H     
@<TRIPOS>BOND
     1    1   11 1
     2    1   14 1
     3   12    2 1
     4   13    3 1
     5    4   21 1
     6    4   24 1
     7   14    5 1
     8    5   16 1
     9    5   17 1
    10    6   15 1
    11    6   18 1
    12    6   20 1
    13    7   17 2
    14    7   19 1
    15    8   16 1
    16    8   23 2
    17    9   22 2
    18    9   23 1
    19   10   22 1
    20   11   12 1
    21   11   15 1
    22   12   13 1
    23   13   14 1
    24   16   19 2
    25   18   21 1
    26   19   22 1
    27    2   25 1
    28    3   26 1
    29    6   27 1
    30   10   28 1
    31   10   29 1
    32   11   30 1
    33   12   31 1
    34   13   32 1
    35   14   33 1
    36   15   34 1
    37   15   35 1
    38   17   36 1
    39   18   37 1
    40   18   38 1
    41   20   39 1
    42   20   40 1
    43   20   41 1
    44   21   42 1
    45   21   43 1
    46   23   44 1
    47   24   45 1
    48   24   46 1
    49   24   47 1
@<TRIPOS>PROPERTY_DATA
  Total_Score	| 10.5783
  Crash		| -1.3666
  Polar		| 7.1794
  FragIndex	| 1
  FragRMSD	| 0.531

