@<TRIPOS>MOLECULE
BindingDB_28432
 50 52 0 0 0
SMALL
NO_CHARGES


@<TRIPOS>ATOM
1    O       -16.0085   -7.3406    5.4321  O     
2    O       -12.8529   -6.8894    5.3330  O     
3    O       -13.9697   -4.3178    5.1196  O     
4    C       -17.3752  -10.1212   10.8116  C     
5    N       -16.9633   -5.2984    4.6078  N     
6    N       -16.4054   -9.0151    8.1842  N     
7    N       -18.4138   -3.8124    3.7936  N     
8    N       -18.4647   -6.1718    6.3723  N     
9    N       -20.5731   -5.1037    6.4590  N     
10   N       -21.1409   -3.3692    4.9953  N     
11   C       -14.9446   -7.6781    6.3541  C     
12   C       -13.8904   -6.5342    6.2574  C     
13   C       -14.7339   -5.3525    5.7494  C     
14   C       -15.7526   -6.0582    4.8269  C     
15   C       -15.5264   -7.8405    7.7966  C     
16   C       -18.1053   -5.3843    5.3232  C     
17   C       -17.1748   -4.3337    3.6692  C     
18   C       -17.7231   -8.6024    8.7878  C     
19   C       -18.9998   -4.4473    4.8117  C     
20   C       -16.5489  -10.1035    7.1642  C     
21   C       -18.3233   -9.5563    9.8665  C     
22   C       -20.2634   -4.2983    5.4087  C     
23   C       -19.7007   -6.0357    6.9343  C     
24   C       -16.2511   -3.8520    2.6246  C     
25   N       -17.7896  -10.8407   11.8313  N     
26   O       -16.1731   -9.9431   10.6872  O     
27   H       -12.1222   -6.2644    5.4827  H     
28   H       -13.0209   -4.5997    5.1402  H     
29   H       -15.9127   -9.4657    8.9607  H     
30   H       -20.9110   -2.7860    4.2523  H     
31   H       -21.9805   -3.2405    5.4698  H     
32   H       -14.4801   -8.6171    6.0405  H     
33   H       -13.4233   -6.2958    7.2195  H     
34   H       -15.2670   -4.8959    6.5912  H     
35   H       -15.2806   -6.2642    3.8608  H     
36   H       -16.0284   -6.8970    8.0148  H     
37   H       -14.6775   -7.8982    8.4782  H     
38   H       -17.6200   -7.6261    9.2743  H     
39   H       -18.4597   -8.4830    7.9848  H     
40   H       -17.0311   -9.7382    6.2539  H     
41   H       -17.1421  -10.9369    7.5591  H     
42   H       -15.5713  -10.5155    6.9158  H     
43   H       -18.8550  -10.3701    9.3740  H     
44   H       -19.0656   -8.9827   10.4333  H     
45   H       -19.9752   -6.6233    7.7218  H     
46   H       -15.3679   -3.4098    3.0859  H     
47   H       -16.7359   -3.0911    2.0083  H     
48   H       -15.9520   -4.6818    1.9810  H     
49   H       -17.1342  -11.2467   12.4320  H     
50   H       -18.7393  -11.0016   11.9679  H     
@<TRIPOS>BOND
     1    1   11 1
     2    1   14 1
     3   12    2 1
     4   13    3 1
     5    4   21 1
     6    4   25 am
     7    4   26 2
     8   14    5 1
     9    5   16 1
    10    5   17 1
    11    6   15 1
    12    6   18 1
    13    6   20 1
    14    7   17 2
    15    7   19 1
    16    8   16 1
    17    8   23 2
    18    9   22 2
    19    9   23 1
    20   10   22 1
    21   11   12 1
    22   11   15 1
    23   12   13 1
    24   13   14 1
    25   16   19 2
    26   17   24 1
    27   18   21 1
    28   19   22 1
    29    2   27 1
    30    3   28 1
    31    6   29 1
    32   10   30 1
    33   10   31 1
    34   11   32 1
    35   12   33 1
    36   13   34 1
    37   14   35 1
    38   15   36 1
    39   15   37 1
    40   18   38 1
    41   18   39 1
    42   20   40 1
    43   20   41 1
    44   20   42 1
    45   21   43 1
    46   21   44 1
    47   23   45 1
    48   24   46 1
    49   24   47 1
    50   24   48 1
    51   25   49 1
    52   25   50 1
@<TRIPOS>PROPERTY_DATA
  Total_Score	| 10.7854
  Crash		| -2.1423
  Polar		| 6.4661
  FragIndex	| 1
  FragRMSD	| 0.321

