@<TRIPOS>MOLECULE
BindingDB_28436
 52 54 0 0 0
SMALL
NO_CHARGES


@<TRIPOS>ATOM
1    O       -16.2211   -7.0906    5.9000  O     
2    O       -12.6933   -6.9173    5.7736  O     
3    O       -13.8156   -4.9717    4.3195  O     
4    C       -18.7779   -9.7543   10.2742  C     
5    N       -17.0937   -5.2155    4.6916  N     
6    N       -16.2760   -9.1156    8.1407  N     
7    N       -18.4535   -3.6447    3.8621  N     
8    N       -18.7417   -6.1440    6.2758  N     
9    N       -20.8023   -5.0299    6.3122  N     
10   N       -21.2531   -3.1933    4.9380  N     
11   C       -14.9792   -7.6659    6.3154  C     
12   C       -13.9693   -6.4846    6.2801  C     
13   C       -14.6496   -5.4029    5.4018  C     
14   C       -15.9490   -6.0848    4.9062  C     
15   C       -15.0466   -8.3680    7.7107  C     
16   C       -18.2885   -5.3012    5.3136  C     
17   C       -17.2279   -4.2066    3.7828  C     
18   C       -17.3304   -8.2392    8.7485  C     
19   C       -19.1204   -4.3082    4.8078  C     
20   C       -16.7999  -10.0922    7.1440  C     
21   C       -18.6966   -8.8799    9.1139  C     
22   C       -20.4158   -4.1650    5.3358  C     
23   C       -19.9940   -6.0220    6.7720  C     
24   N       -17.7134  -10.1150   10.9870  N     
25   O       -19.8987  -10.1454   10.6011  O     
26   C       -16.2428   -3.6903    2.8131  C     
27   N       -17.7672  -10.8974   11.9831  N     
28   H       -12.0765   -6.1579    5.8898  H     
29   H       -12.9743   -4.6929    4.7441  H     
30   H       -15.9425   -9.7050    8.9065  H     
31   H       -20.9797   -2.5746    4.2425  H     
32   H       -22.1177   -3.0873    5.3719  H     
33   H       -14.6929   -8.4153    5.5705  H     
34   H       -13.8016   -6.0605    7.2816  H     
35   H       -14.9112   -4.5203    6.0100  H     
36   H       -15.7551   -6.6113    3.9677  H     
37   H       -14.8232   -7.6192    8.4855  H     
38   H       -14.2161   -9.0808    7.7290  H     
39   H       -16.9230   -7.7847    9.6656  H     
40   H       -17.5539   -7.4274    8.0545  H     
41   H       -17.3618   -9.5869    6.3485  H     
42   H       -17.4575  -10.7917    7.6825  H     
43   H       -15.9913  -10.6839    6.6974  H     
44   H       -19.0556   -9.3925    8.2219  H     
45   H       -19.3834   -8.0447    9.2985  H     
46   H       -20.3211   -6.6634    7.4923  H     
47   H       -16.8407   -9.7886   10.7303  H     
48   H       -15.4170   -3.2058    3.3415  H     
49   H       -16.7036   -2.9452    2.1556  H     
50   H       -15.8579   -4.5041    2.1936  H     
51   H       -16.9834  -11.1933   12.3963  H     
52   H       -18.5899  -11.2271   12.2859  H     
@<TRIPOS>BOND
     1    1   11 1
     2    1   14 1
     3   12    2 1
     4   13    3 1
     5    4   21 1
     6    4   24 am
     7    4   25 2
     8   14    5 1
     9    5   16 1
    10    5   17 1
    11    6   15 1
    12    6   18 1
    13    6   20 1
    14    7   17 2
    15    7   19 1
    16    8   16 1
    17    8   23 2
    18    9   22 2
    19    9   23 1
    20   10   22 1
    21   11   12 1
    22   11   15 1
    23   12   13 1
    24   13   14 1
    25   16   19 2
    26   17   26 1
    27   18   21 1
    28   19   22 1
    29   24   27 1
    30    2   28 1
    31    3   29 1
    32    6   30 1
    33   10   31 1
    34   10   32 1
    35   11   33 1
    36   12   34 1
    37   13   35 1
    38   14   36 1
    39   15   37 1
    40   15   38 1
    41   18   39 1
    42   18   40 1
    43   20   41 1
    44   20   42 1
    45   20   43 1
    46   21   44 1
    47   21   45 1
    48   23   46 1
    49   24   47 1
    50   26   48 1
    51   26   49 1
    52   26   50 1
    53   27   51 1
    54   27   52 1
@<TRIPOS>PROPERTY_DATA
  Total_Score	| 10.7159
  Crash		| -1.7499
  Polar		| 6.0672
  FragIndex	| 1
  FragRMSD	| 0.479

