@<TRIPOS>MOLECULE
BindingDB_28428
 56 58 0 0 0
SMALL
NO_CHARGES


@<TRIPOS>ATOM
1    O       -16.1984   -7.2060    5.9636  O     
2    O       -12.8183   -6.9519    5.4353  O     
3    O       -13.9664   -4.5427    4.8628  O     
4    C       -19.0047   -9.7847    9.9999  C     
5    N       -17.0514   -5.2777    4.7499  N     
6    N       -16.2795   -9.1473    8.1965  N     
7    N       -18.4293   -3.8058    3.7958  N     
8    N       -18.7097   -6.1009    6.3975  N     
9    N       -20.7869   -4.9953    6.3312  N     
10   N       -21.2243   -3.2699    4.8142  N     
11   C       -20.4571   -9.9293   10.5411  C     
12   C       -14.9303   -7.7412    6.4048  C     
13   C       -13.8924   -6.5696    6.3052  C     
14   C       -14.7238   -5.3926    5.7403  C     
15   C       -15.9023   -6.1143    5.0404  C     
16   C       -15.0159   -8.4042    7.8239  C     
17   C       -18.2471   -5.3312    5.3757  C     
18   C       -17.1978   -4.3575    3.7546  C     
19   C       -17.3605   -8.2104    8.6707  C     
20   C       -19.0920   -4.3922    4.7911  C     
21   C       -16.6935  -10.1530    7.1684  C     
22   C       -16.2313   -3.9720    2.7048  C     
23   C       -18.8142   -8.7513    8.8451  C     
24   C       -20.3903   -4.2067    5.2961  C     
25   C       -19.9737   -5.9413    6.8727  C     
26   O       -21.3180  -10.9201    9.9347  O     
27   N       -21.4250  -10.8453    8.5848  N     
28   H       -12.1059   -6.2946    5.5928  H     
29   H       -13.0139   -4.6948    5.0915  H     
30   H       -18.3504   -9.4889   10.8461  H     
31   H       -18.6491  -10.7628    9.6704  H     
32   H       -16.0239   -9.6955    9.0263  H     
33   H       -20.9345   -2.6907    4.0841  H     
34   H       -22.0901   -3.1269    5.2390  H     
35   H       -20.3877  -10.2272   11.5922  H     
36   H       -20.9539   -8.9483   10.5245  H     
37   H       -14.6536   -8.5267    5.6922  H     
38   H       -13.4543   -6.2988    7.2808  H     
39   H       -15.1076   -4.7960    6.5795  H     
40   H       -15.5662   -6.5446    4.0881  H     
41   H       -14.8117   -7.6336    8.5898  H     
42   H       -14.1857   -9.1147    7.8908  H     
43   H       -17.0466   -7.8192    9.6496  H     
44   H       -17.4210   -7.3528    7.9826  H     
45   H       -17.1392   -9.6524    6.2991  H     
46   H       -17.4146  -10.8556    7.6129  H     
47   H       -15.8193  -10.7401    6.8430  H     
48   H       -15.3726   -3.4588    3.1516  H     
49   H       -16.7060   -3.2890    1.9937  H     
50   H       -15.8966   -4.8661    2.1657  H     
51   H       -19.1551   -9.1725    7.8961  H     
52   H       -19.4457   -7.8763    9.0763  H     
53   H       -20.3078   -6.5196    7.6379  H     
54   H       -21.7983   -9.9318    8.3024  H     
55   H       -22.0802  -11.5781    8.2646  H     
56   H       -20.5185  -11.0100    8.1535  H     
@<TRIPOS>BOND
     1    1   12 1
     2    1   15 1
     3   13    2 1
     4   14    3 1
     5    4   11 1
     6    4   23 1
     7   15    5 1
     8    5   17 1
     9    5   18 1
    10    6   16 1
    11    6   19 1
    12    6   21 1
    13    7   18 2
    14    7   20 1
    15    8   17 1
    16    8   25 2
    17    9   24 2
    18    9   25 1
    19   10   24 1
    20   11   26 1
    21   12   13 1
    22   12   16 1
    23   13   14 1
    24   14   15 1
    25   17   20 2
    26   18   22 1
    27   19   23 1
    28   20   24 1
    29   26   27 1
    30    2   28 1
    31    3   29 1
    32    4   30 1
    33    4   31 1
    34    6   32 1
    35   10   33 1
    36   10   34 1
    37   11   35 1
    38   11   36 1
    39   12   37 1
    40   13   38 1
    41   14   39 1
    42   15   40 1
    43   16   41 1
    44   16   42 1
    45   19   43 1
    46   19   44 1
    47   21   45 1
    48   21   46 1
    49   21   47 1
    50   22   48 1
    51   22   49 1
    52   22   50 1
    53   23   51 1
    54   23   52 1
    55   25   53 1
    56   27   54 1
    57   27   55 1
    58   27   56 1
@<TRIPOS>PROPERTY_DATA
  Total_Score	| 11.8034
  Crash		| -2.0089
  Polar		| 7.1931
  FragIndex	| 1
  FragRMSD	| 0.393

