@<TRIPOS>MOLECULE
BindingDB_28429
 59 61 0 0 0
SMALL
NO_CHARGES


@<TRIPOS>ATOM
1    O       -16.1815   -7.0753    6.0209  O     
2    O       -12.6674   -6.9784    5.9090  O     
3    O       -13.7408   -5.0604    4.4121  O     
4    C       -19.1098   -9.7053    9.9742  C     
5    N       -17.0334   -5.1902    4.8056  N     
6    N       -16.3331   -9.1191    8.1608  N     
7    N       -18.3312   -3.5012    4.1499  N     
8    N       -18.7984   -6.3232    6.1286  N     
9    N       -20.8363   -5.1510    6.2431  N     
10   N       -21.1563   -3.1209    5.1090  N     
11   C       -20.5952   -9.8150   10.4339  C     
12   C       -14.9491   -7.6518    6.4540  C     
13   C       -13.9197   -6.4953    6.4077  C     
14   C       -14.5875   -5.4315    5.5032  C     
15   C       -15.9048   -6.0849    5.0118  C     
16   C       -15.0655   -8.3707    7.8435  C     
17   C       -18.2690   -5.3567    5.3357  C     
18   C       -17.1061   -4.0558    4.0480  C     
19   C       -17.4403   -8.2086    8.6190  C     
20   C       -19.0603   -4.2828    4.9438  C     
21   C       -16.6938  -10.1081    7.1019  C     
22   C       -16.0892   -3.3848    3.2072  C     
23   C       -18.8873   -8.7665    8.7529  C     
24   C       -20.3763   -4.1696    5.4238  C     
25   C       -20.0771   -6.2294    6.5772  C     
26   O       -21.3596  -10.9015    9.8863  O     
27   N       -21.4969  -10.8785    8.5336  N     
28   C       -15.4510   -4.3147    2.1574  C     
29   H       -12.0406   -6.2284    5.9595  H     
30   H       -12.8811   -4.7836    4.8019  H     
31   H       -18.5310   -9.3186   10.8210  H     
32   H       -18.7110  -10.7050    9.7568  H     
33   H       -16.1185   -9.6855    8.9901  H     
34   H       -20.8179   -2.4199    4.5260  H     
35   H       -22.0387   -3.0263    5.4998  H     
36   H       -20.5957   -9.9846   11.5195  H     
37   H       -21.1304   -8.8717   10.2541  H     
38   H       -14.6752   -8.4082    5.7093  H     
39   H       -13.7587   -6.0578    7.3985  H     
40   H       -14.8140   -4.5329    6.0851  H     
41   H       -15.7202   -6.6173    4.0768  H     
42   H       -14.8770   -7.6561    8.6503  H     
43   H       -14.2558   -9.0985    7.9010  H     
44   H       -17.1666   -7.8071    9.6016  H     
45   H       -17.5001   -7.3484    7.9599  H     
46   H       -17.1058   -9.6164    6.2175  H     
47   H       -17.4185  -10.8251    7.4874  H     
48   H       -15.8118  -10.6805    6.8014  H     
49   H       -16.5502   -2.5518    2.6675  H     
50   H       -15.3267   -2.9382    3.8409  H     
51   H       -19.1792   -9.2765    7.8323  H     
52   H       -19.5600   -7.9036    8.8663  H     
53   H       -20.4591   -6.9536    7.1819  H     
54   H       -21.8549   -9.9680    8.2299  H     
55   H       -22.1452  -11.6193    8.2497  H     
56   H       -20.5913  -11.0596    8.1008  H     
57   H       -14.9283   -5.1509    2.6206  H     
58   H       -14.7298   -3.7468    1.5696  H     
59   H       -16.2219   -4.7130    1.4909  H     
@<TRIPOS>BOND
     1    1   12 1
     2    1   15 1
     3   13    2 1
     4   14    3 1
     5    4   11 1
     6    4   23 1
     7   15    5 1
     8    5   17 1
     9    5   18 1
    10    6   16 1
    11    6   19 1
    12    6   21 1
    13    7   18 2
    14    7   20 1
    15    8   17 1
    16    8   25 2
    17    9   24 2
    18    9   25 1
    19   10   24 1
    20   11   26 1
    21   12   13 1
    22   12   16 1
    23   13   14 1
    24   14   15 1
    25   17   20 2
    26   18   22 1
    27   19   23 1
    28   20   24 1
    29   22   28 1
    30   26   27 1
    31    2   29 1
    32    3   30 1
    33    4   31 1
    34    4   32 1
    35    6   33 1
    36   10   34 1
    37   10   35 1
    38   11   36 1
    39   11   37 1
    40   12   38 1
    41   13   39 1
    42   14   40 1
    43   15   41 1
    44   16   42 1
    45   16   43 1
    46   19   44 1
    47   19   45 1
    48   21   46 1
    49   21   47 1
    50   21   48 1
    51   22   49 1
    52   22   50 1
    53   23   51 1
    54   23   52 1
    55   25   53 1
    56   27   54 1
    57   27   55 1
    58   27   56 1
    59   28   57 1
    60   28   58 1
    61   28   59 1
@<TRIPOS>PROPERTY_DATA
  Total_Score	| 11.1081
  Crash		| -2.6971
  Polar		| 7.0336
  FragIndex	| 1
  FragRMSD	| 0.542

