@<TRIPOS>MOLECULE
BindingDB_28433
 53 55 0 0 0
SMALL
NO_CHARGES


@<TRIPOS>ATOM
1    O       -16.1398   -7.0421    5.9110  O     
2    O       -12.7160   -6.8678    5.6046  O     
3    O       -13.7948   -4.5653    4.7553  O     
4    C       -14.5237  -10.9513   10.4798  C     
5    N       -16.9988   -5.1259    4.7203  N     
6    N       -16.3605   -8.8424    8.0987  N     
7    N       -18.3250   -3.5072    3.9591  N     
8    N       -18.7329   -6.1878    6.1419  N     
9    N       -20.7868   -5.0440    6.1950  N     
10   N       -21.1507   -3.1023    4.9527  N     
11   C       -14.8999   -7.6014    6.3695  C     
12   C       -13.8688   -6.4370    6.3377  C     
13   C       -14.6355   -5.2776    5.6643  C     
14   C       -15.8446   -5.9740    4.9891  C     
15   C       -14.9922   -8.3350    7.7443  C     
16   C       -18.2260   -5.2776    5.2678  C     
17   C       -17.0897   -4.0422    3.8884  C     
18   C       -16.3520  -10.1008    8.9111  C     
19   C       -19.0355   -4.2464    4.8082  C     
20   C       -17.2405   -7.7906    8.7043  C     
21   C       -15.6263  -10.0180   10.3003  C     
22   C       -20.3479   -4.1195    5.3021  C     
23   C       -20.0072   -6.0814    6.5987  C     
24   N       -14.4594  -11.7841   11.4884  N     
25   O       -13.5715  -10.9395    9.7163  O     
26   C       -16.0685   -3.3587    3.0565  C     
27   C       -15.2675   -4.2794    2.1095  C     
28   H       -12.0445   -6.1611    5.6887  H     
29   H       -13.0502   -4.2266    5.3025  H     
30   H       -16.8000   -9.0951    7.2112  H     
31   H       -20.8389   -2.4339    4.3228  H     
32   H       -22.0151   -2.9935    5.3829  H     
33   H       -14.6273   -8.3537    5.6199  H     
34   H       -13.5468   -6.1179    7.3354  H     
35   H       -15.0094   -4.5862    6.4296  H     
36   H       -15.5321   -6.4320    4.0456  H     
37   H       -14.6344   -7.6911    8.5524  H     
38   H       -14.2824   -9.1670    7.6853  H     
39   H       -17.3908  -10.4128    9.0704  H     
40   H       -15.9159  -10.8915    8.2927  H     
41   H       -16.9329   -7.5346    9.7189  H     
42   H       -18.2707   -8.1410    8.7359  H     
43   H       -17.2160   -6.8747    8.1240  H     
44   H       -16.3665  -10.1667   11.0942  H     
45   H       -15.2122   -9.0211   10.4574  H     
46   H       -20.3788   -6.7712    7.2538  H     
47   H       -13.6870  -12.3670   11.5889  H     
48   H       -15.1640  -11.8165   12.1503  H     
49   H       -16.5550   -2.5971    2.4392  H     
50   H       -15.3783   -2.8269    3.7169  H     
51   H       -14.6064   -4.9390    2.6721  H     
52   H       -14.6407   -3.6622    1.4535  H     
53   H       -15.9359   -4.8814    1.4869  H     
@<TRIPOS>BOND
     1    1   11 1
     2    1   14 1
     3   12    2 1
     4   13    3 1
     5    4   21 1
     6    4   24 am
     7    4   25 2
     8   14    5 1
     9    5   16 1
    10    5   17 1
    11    6   15 1
    12    6   18 1
    13    6   20 1
    14    7   17 2
    15    7   19 1
    16    8   16 1
    17    8   23 2
    18    9   22 2
    19    9   23 1
    20   10   22 1
    21   11   12 1
    22   11   15 1
    23   12   13 1
    24   13   14 1
    25   16   19 2
    26   17   26 1
    27   18   21 1
    28   19   22 1
    29   26   27 1
    30    2   28 1
    31    3   29 1
    32    6   30 1
    33   10   31 1
    34   10   32 1
    35   11   33 1
    36   12   34 1
    37   13   35 1
    38   14   36 1
    39   15   37 1
    40   15   38 1
    41   18   39 1
    42   18   40 1
    43   20   41 1
    44   20   42 1
    45   20   43 1
    46   21   44 1
    47   21   45 1
    48   23   46 1
    49   24   47 1
    50   24   48 1
    51   26   49 1
    52   26   50 1
    53   27   51 1
    54   27   52 1
    55   27   53 1
@<TRIPOS>PROPERTY_DATA
  Total_Score	| 10.5338
  Crash		| -3.1881
  Polar		| 5.4142
  FragIndex	| 1
  FragRMSD	| 1.139

