@<TRIPOS>MOLECULE
BindingDB_28443
 49 51 0 0 0
SMALL
NO_CHARGES


@<TRIPOS>ATOM
1    O       -16.0224   -7.2653    5.3946  O     
2    O       -12.8724   -6.8025    5.2786  O     
3    O       -13.9815   -4.2719    4.9543  O     
4    N       -18.6867   -8.3512    9.6172  N     
5    N       -16.9822   -5.2618    4.5341  N     
6    N       -15.9530   -9.2205    8.0386  N     
7    N       -18.4310   -3.7425    3.7733  N     
8    N       -18.4629   -6.2038    6.2745  N     
9    N       -20.5544   -5.1320    6.4245  N     
10   N       -21.1389   -3.3341    5.0577  N     
11   C       -14.9425   -7.5791    6.2961  C     
12   C       -13.9114   -6.4295    6.1954  C     
13   C       -14.7493   -5.2631    5.6438  C     
14   C       -15.7640   -6.0130    4.7436  C     
15   C       -15.5313   -7.8268    7.7261  C     
16   C       -18.1205   -5.3746    5.2508  C     
17   C       -17.1946   -4.2712    3.6170  C     
18   C       -16.3989   -9.4098    9.4616  C     
19   C       -19.0097   -4.4132    4.7747  C     
20   C       -16.8830   -9.8783    7.0707  C     
21   C       -17.9281   -9.6010    9.7072  C     
22   C       -20.2549   -4.2804    5.4089  C     
23   C       -19.6876   -6.0864    6.8501  C     
24   C       -16.2557   -3.7748    2.5826  C     
25   H       -12.1186   -6.2047    5.4587  H     
26   H       -13.0372   -4.5328    5.0474  H     
27   H       -18.4230   -7.7179   10.3713  H     
28   H       -19.6945   -8.5742    9.7068  H     
29   H       -18.5371   -7.8954    8.7168  H     
30   H       -15.0822   -9.7337    7.9661  H     
31   H       -20.9180   -2.7159    4.3450  H     
32   H       -21.9652   -3.2257    5.5585  H     
33   H       -14.4672   -8.5070    5.9650  H     
34   H       -13.4607   -6.1645    7.1595  H     
35   H       -15.2804   -4.7597    6.4715  H     
36   H       -15.2986   -6.2441    3.7754  H     
37   H       -16.3160   -7.0751    7.8933  H     
38   H       -14.7161   -7.5836    8.4347  H     
39   H       -15.8926  -10.3002    9.8288  H     
40   H       -16.0334   -8.5859   10.0812  H     
41   H       -17.8535   -9.3829    7.0522  H     
42   H       -17.0123  -10.9255    7.3440  H     
43   H       -16.4762   -9.8730    6.0571  H     
44   H       -18.1029  -10.0123   10.7087  H     
45   H       -18.3619  -10.2867    8.9863  H     
46   H       -19.9521   -6.7051    7.6120  H     
47   H       -15.3374   -3.4078    3.0506  H     
48   H       -16.7114   -2.9518    2.0300  H     
49   H       -16.0079   -4.5786    1.8808  H     
@<TRIPOS>BOND
     1    1   11 1
     2    1   14 1
     3   12    2 1
     4   13    3 1
     5    4   21 1
     6   14    5 1
     7    5   16 1
     8    5   17 1
     9    6   15 1
    10    6   18 1
    11    6   20 1
    12    7   17 2
    13    7   19 1
    14    8   16 1
    15    8   23 2
    16    9   22 2
    17    9   23 1
    18   10   22 1
    19   11   12 1
    20   11   15 1
    21   12   13 1
    22   13   14 1
    23   16   19 2
    24   17   24 1
    25   18   21 1
    26   19   22 1
    27    2   25 1
    28    3   26 1
    29    4   27 1
    30    4   28 1
    31    4   29 1
    32    6   30 1
    33   10   31 1
    34   10   32 1
    35   11   33 1
    36   12   34 1
    37   13   35 1
    38   14   36 1
    39   15   37 1
    40   15   38 1
    41   18   39 1
    42   18   40 1
    43   20   41 1
    44   20   42 1
    45   20   43 1
    46   21   44 1
    47   21   45 1
    48   23   46 1
    49   24   47 1
    50   24   48 1
    51   24   49 1
@<TRIPOS>PROPERTY_DATA
  Total_Score	| 10.0623
  Crash		| -1.4613
  Polar		| 5.7472
  FragIndex	| 1
  FragRMSD	| 0.526

