@<TRIPOS>MOLECULE
BindingDB_28430
 53 55 0 0 0
SMALL
NO_CHARGES


@<TRIPOS>ATOM
1    O       -16.1544   -7.2780    5.9299  O     
2    O       -12.7407   -6.9338    5.5149  O     
3    O       -13.9919   -4.6896    4.6293  O     
4    C       -19.1128  -10.0257    9.3165  C     
5    N       -17.0576   -5.3850    4.7417  N     
6    N       -16.2960   -9.1082    8.1441  N     
7    N       -18.3626   -3.8237    3.8313  N     
8    N       -18.7040   -6.1795    6.3886  N     
9    N       -20.7530   -5.0160    6.3724  N     
10   N       -21.1862   -3.2787    4.8796  N     
11   C       -19.5613   -9.9917   10.8046  C     
12   C       -14.8751   -7.7311    6.4169  C     
13   C       -13.8768   -6.5422    6.2961  C     
14   C       -14.7087   -5.4365    5.6150  C     
15   C       -15.8985   -6.2066    4.9955  C     
16   C       -15.0068   -8.3813    7.8307  C     
17   C       -18.2520   -5.4173    5.3681  C     
18   C       -17.1541   -4.4174    3.8077  C     
19   C       -17.3684   -8.1897    8.6778  C     
20   C       -19.0654   -4.4268    4.8030  C     
21   C       -16.6843  -10.0420    7.0438  C     
22   C       -18.8585   -8.6420    8.6746  C     
23   C       -20.3534   -4.2305    5.3292  C     
24   C       -19.9532   -5.9896    6.8908  C     
25   O       -18.9156  -11.0146   11.5785  O     
26   N       -17.6647  -10.6221   11.9559  N     
27   H       -12.0430   -6.2565    5.6576  H     
28   H       -13.0534   -4.6692    4.9174  H     
29   H       -18.2079  -10.6239    9.2137  H     
30   H       -19.8994  -10.5298    8.7497  H     
31   H       -16.0695   -9.7201    8.9301  H     
32   H       -20.9250   -2.6988    4.1449  H     
33   H       -22.0414   -3.1360    5.3236  H     
34   H       -19.4069   -9.0046   11.2481  H     
35   H       -20.6371  -10.1878   10.8475  H     
36   H       -14.5565   -8.5208    5.7300  H     
37   H       -13.5242   -6.1927    7.2725  H     
38   H       -15.0763   -4.7470    6.3837  H     
39   H       -15.5928   -6.6636    4.0470  H     
40   H       -14.8327   -7.6232    8.5962  H     
41   H       -14.1924   -9.1102    7.9235  H     
42   H       -16.4093   -4.1561    3.1557  H     
43   H       -17.1014   -7.9527    9.7121  H     
44   H       -17.3327   -7.2414    8.1396  H     
45   H       -16.9260   -9.4847    6.1295  H     
46   H       -17.5336  -10.6654    7.3261  H     
47   H       -15.8570  -10.7210    6.8246  H     
48   H       -19.2199   -8.6429    7.6447  H     
49   H       -19.4595   -7.9017    9.2131  H     
50   H       -20.2838   -6.5683    7.6606  H     
51   H       -17.1333  -10.2880   11.1523  H     
52   H       -17.1681  -11.4015   12.3892  H     
53   H       -17.7453   -9.8647   12.6332  H     
@<TRIPOS>BOND
     1    1   12 1
     2    1   15 1
     3   13    2 1
     4   14    3 1
     5    4   11 1
     6    4   22 1
     7   15    5 1
     8    5   17 1
     9    5   18 1
    10    6   16 1
    11    6   19 1
    12    6   21 1
    13    7   18 2
    14    7   20 1
    15    8   17 1
    16    8   24 2
    17    9   23 2
    18    9   24 1
    19   10   23 1
    20   11   25 1
    21   12   13 1
    22   12   16 1
    23   13   14 1
    24   14   15 1
    25   17   20 2
    26   19   22 1
    27   20   23 1
    28   25   26 1
    29    2   27 1
    30    3   28 1
    31    4   29 1
    32    4   30 1
    33    6   31 1
    34   10   32 1
    35   10   33 1
    36   11   34 1
    37   11   35 1
    38   12   36 1
    39   13   37 1
    40   14   38 1
    41   15   39 1
    42   16   40 1
    43   16   41 1
    44   18   42 1
    45   19   43 1
    46   19   44 1
    47   21   45 1
    48   21   46 1
    49   21   47 1
    50   22   48 1
    51   22   49 1
    52   24   50 1
    53   26   51 1
    54   26   52 1
    55   26   53 1
@<TRIPOS>PROPERTY_DATA
  Total_Score	| 10.8847
  Crash		| -2.4714
  Polar		| 6.5047
  FragIndex	| 1
  FragRMSD	| 0.425

