@<TRIPOS>MOLECULE
BindingDB_6667
 43 46 0 0 0
SMALL
NO_CHARGES


@<TRIPOS>ATOM
1    C        -4.3799   28.6371   10.8236  C     
2    C        -3.8253   27.8552   11.8470  C     
3    C        -2.5838   28.2016   12.3996  C     
4    C        -2.4440   30.1391   10.9002  C     
5    C        -3.6922   29.7677   10.3375  C     
6    C        -1.8927   29.3400   11.9414  C     
7    Cl       -4.4065   30.6195    9.0555  Cl    
8    Cl       -0.3861   29.6665   12.6501  Cl    
9    C        -1.7539   31.2463   10.4115  C     
10   O        -2.0327   32.3098   10.9504  O     
11   C        -0.8495   31.2015    9.3715  C     
12   C         0.5183   32.3707    7.7678  C     
13   C        -0.4409   32.3687    8.7178  C     
14   C        -0.2833   30.0306    8.9727  C     
15   C         1.1016   31.1613    7.4355  C     
16   C         1.3894   29.0144    7.5304  C     
17   C         2.3152   29.5589    6.6376  C     
18   N         2.0986   30.8883    6.5812  N     
19   N         0.6732   30.0273    8.0295  N     
20   N         3.2755   28.9530    5.9020  N     
21   C         3.6162   27.6308    5.8885  C     
22   C         4.3880   25.7146    4.5272  C     
23   C         3.9912   27.0728    4.6483  C     
24   C         3.6883   26.8252    7.0472  C     
25   C         4.0595   25.4742    6.9518  C     
26   C         4.3979   24.9269    5.7041  C     
27   C         4.7534   25.1584    3.2976  C     
28   O         5.1201   23.9909    3.1990  O     
29   N         4.6926   25.8169    2.1635  N     
30   H        -5.2817   28.3709   10.4225  H     
31   H        -4.3148   27.0156   12.1738  H     
32   H        -2.1859   27.6153   13.1378  H     
33   H         0.8036   33.2079    7.3200  H     
34   H        -0.8601   33.2419    8.9474  H     
35   H        -0.5209   29.1660    9.3998  H     
36   H         1.2779   28.0254    7.7731  H     
37   H         3.7419   29.5251    5.2714  H     
38   H         3.9617   27.6751    3.8240  H     
39   H         3.4996   27.2188    7.9697  H     
40   H         4.0952   24.8882    7.7899  H     
41   H         4.6879   23.9452    5.6757  H     
42   H         4.8616   25.3502    1.3325  H     
43   H         4.3847   26.7346    2.1361  H     
@<TRIPOS>BOND
     1    1    2 2
     2    1    5 1
     3    2    3 1
     4    3    6 2
     5    4    5 2
     6    4    6 1
     7    4    9 1
     8    5    7 1
     9    6    8 1
    10    9   10 2
    11    9   11 1
    12   11   13 1
    13   11   14 2
    14   12   13 2
    15   12   15 1
    16   14   19 1
    17   15   18 2
    18   15   19 1
    19   16   17 2
    20   16   19 1
    21   17   18 1
    22   17   20 1
    23   20   21 1
    24   21   23 2
    25   21   24 1
    26   22   23 1
    27   22   26 2
    28   22   27 1
    29   24   25 2
    30   25   26 1
    31   27   28 2
    32   27   29 am
    33    1   30 1
    34    2   31 1
    35    3   32 1
    36   12   33 1
    37   13   34 1
    38   14   35 1
    39   16   36 1
    40   20   37 1
    41   23   38 1
    42   24   39 1
    43   25   40 1
    44   26   41 1
    45   29   42 1
    46   29   43 1
@<TRIPOS>PROPERTY_DATA
  Total_Score	| 5.1696
  Crash		| -1.5488
  Polar		| 2.8563
  FragIndex	| 1
  FragRMSD	| 0.262

