@<TRIPOS>MOLECULE
BindingDB_6664
 43 46 0 0 0
SMALL
NO_CHARGES


@<TRIPOS>ATOM
1    C        -2.5594   28.2467   12.3943  C     
2    C        -3.8274   27.9111   11.8870  C     
3    C        -4.3750   28.6684   10.8350  C     
4    C        -2.3931   30.1236   10.8152  C     
5    C        -1.8327   29.3325   11.8564  C     
6    C        -3.6675   29.7669   10.2995  C     
7    Cl       -0.2896   29.6366   12.5035  Cl    
8    Cl       -4.3719   30.5610    8.9740  Cl    
9    C        -1.7171   31.2362   10.3028  C     
10   O        -2.1414   32.3241   10.6853  O     
11   C        -0.7519   31.1890    9.3165  C     
12   C         0.8034   32.3489    7.8826  C     
13   C        -0.1613   32.3567    8.8272  C     
14   C        -0.3175   30.0031    8.7956  C     
15   C         1.2322   31.1223    7.4071  C     
16   C         1.3004   28.9627    7.2749  C     
17   C         2.2815   29.5021    6.4349  C     
18   N         2.1984   30.8487    6.5176  N     
19   N         0.6702   29.9875    7.8757  N     
20   N         3.2017   28.9083    5.6342  N     
21   C         3.5660   27.5914    5.5556  C     
22   C         4.4320   25.7895    4.1361  C     
23   C         3.9292   27.0942    4.2854  C     
24   C         3.7400   26.7509    6.6814  C     
25   C         4.2440   25.4454    6.5353  C     
26   C         4.5993   24.9602    5.2615  C     
27   S         5.3055   23.3734    5.1092  S     
28   C         3.8358   22.5693    4.4335  C     
29   H        -2.1629   27.6798   13.1489  H     
30   H        -4.3485   27.1221   12.2839  H     
31   H        -5.2893   28.4135   10.4597  H     
32   H         1.2147   33.1888    7.5500  H     
33   H        -0.4558   33.2437    9.1677  H     
34   H        -0.7080   29.1338    9.0760  H     
35   H         1.0847   27.9724    7.3939  H     
36   H         3.6869   29.5171    5.0555  H     
37   H         4.7065   25.4647    3.2110  H     
38   H         3.8416   27.6892    3.4544  H     
39   H         3.5592   27.0999    7.6269  H     
40   H         4.3840   24.8745    7.3682  H     
41   H         2.9884   22.6991    5.1155  H     
42   H         4.0413   21.5094    4.3132  H     
43   H         3.5927   23.0029    3.4580  H     
@<TRIPOS>BOND
     1    1    2 2
     2    1    5 1
     3    2    3 1
     4    3    6 2
     5    4    5 2
     6    4    6 1
     7    4    9 1
     8    5    7 1
     9    6    8 1
    10    9   10 2
    11    9   11 1
    12   11   13 1
    13   11   14 2
    14   12   13 2
    15   12   15 1
    16   14   19 1
    17   15   18 2
    18   15   19 1
    19   16   17 2
    20   16   19 1
    21   17   18 1
    22   17   20 1
    23   20   21 1
    24   21   23 2
    25   21   24 1
    26   22   23 1
    27   22   26 2
    28   24   25 2
    29   25   26 1
    30   26   27 1
    31   27   28 1
    32    1   29 1
    33    2   30 1
    34    3   31 1
    35   12   32 1
    36   13   33 1
    37   14   34 1
    38   16   35 1
    39   20   36 1
    40   22   37 1
    41   23   38 1
    42   24   39 1
    43   25   40 1
    44   28   41 1
    45   28   42 1
    46   28   43 1
@<TRIPOS>PROPERTY_DATA
  Total_Score	| 5.2878
  Crash		| -1.5069
  Polar		| 2.1751
  FragIndex	| 1
  FragRMSD	| 0.219

