@<TRIPOS>MOLECULE
BindingDB_6666
 43 46 0 0 0
SMALL
NO_CHARGES


@<TRIPOS>ATOM
1    C        -2.5197   28.2208   12.3543  C     
2    C        -3.7870   27.8789   11.8616  C     
3    C        -4.3631   28.6372   10.8294  C     
4    C        -2.4060   30.1105   10.7978  C     
5    C        -1.8224   29.3259   11.8309  C     
6    C        -3.6810   29.7443   10.2971  C     
7    Cl       -0.2933   29.6741   12.4645  Cl    
8    Cl       -4.3965   30.5629    9.0038  Cl    
9    C        -1.7449   31.2199   10.2799  C     
10   O        -2.0996   32.2737   10.8050  O     
11   C        -0.8276   31.1883    9.2387  C     
12   C         0.7502   32.3774    7.8388  C     
13   C        -0.2352   32.3689    8.7596  C     
14   C        -0.4161   30.0206    8.6555  C     
15   C         1.1743   31.1642    7.3507  C     
16   C         1.2113   29.0025    7.1294  C     
17   C         2.2583   29.5599    6.3899  C     
18   N         2.1904   30.9007    6.5173  N     
19   N         0.5791   30.0207    7.7484  N     
20   N         3.2226   28.9219    5.6936  N     
21   C         3.4788   27.5811    5.6253  C     
22   C         3.5491   25.2878    6.4897  C     
23   C         3.2583   26.6572    6.6826  C     
24   C         4.0866   27.1236    4.4386  C     
25   C         4.3995   25.7675    4.2639  C     
26   C         4.1099   24.8142    5.2706  C     
27   C         4.3928   23.4616    5.0719  C     
28   O         5.2251   23.0847    4.2453  O     
29   N         3.7603   22.5044    5.7251  N     
30   H        -2.1027   27.6612   13.0994  H     
31   H        -4.2776   27.0604   12.2346  H     
32   H        -5.2744   28.3745   10.4640  H     
33   H         1.1628   33.2285    7.5264  H     
34   H        -0.5393   33.2556    9.0892  H     
35   H        -0.7965   29.1394    8.9162  H     
36   H         1.0360   27.9892    7.1865  H     
37   H         3.8124   29.4966    5.1711  H     
38   H         3.3721   24.6336    7.2658  H     
39   H         2.8510   26.9825    7.5932  H     
40   H         4.3057   27.7918    3.6893  H     
41   H         4.8311   25.4788    3.3732  H     
42   H         3.9827   21.5758    5.5578  H     
43   H         3.0237   22.7231    6.3190  H     
@<TRIPOS>BOND
     1    1    2 2
     2    1    5 1
     3    2    3 1
     4    3    6 2
     5    4    5 2
     6    4    6 1
     7    4    9 1
     8    5    7 1
     9    6    8 1
    10    9   10 2
    11    9   11 1
    12   11   13 1
    13   11   14 2
    14   12   13 2
    15   12   15 1
    16   14   19 1
    17   15   18 2
    18   15   19 1
    19   16   17 2
    20   16   19 1
    21   17   18 1
    22   17   20 1
    23   20   21 1
    24   21   23 2
    25   21   24 1
    26   22   23 1
    27   22   26 2
    28   24   25 2
    29   25   26 1
    30   26   27 1
    31   27   28 2
    32   27   29 am
    33    1   30 1
    34    2   31 1
    35    3   32 1
    36   12   33 1
    37   13   34 1
    38   14   35 1
    39   16   36 1
    40   20   37 1
    41   22   38 1
    42   23   39 1
    43   24   40 1
    44   25   41 1
    45   29   42 1
    46   29   43 1
@<TRIPOS>PROPERTY_DATA
  Total_Score	| 6.2931
  Crash		| -1.4742
  Polar		| 3.2106
  FragIndex	| 1
  FragRMSD	| 0.175

