@<TRIPOS>MOLECULE
BindingDB_6669
 50 53 0 0 0
SMALL
NO_CHARGES


@<TRIPOS>ATOM
1    C        -3.5112   26.1568   14.4031  C     
2    C        -3.0925   25.3477   15.4732  C     
3    C        -2.1584   24.3224   15.2536  C     
4    C        -1.9946   24.9560   12.8968  C     
5    C        -2.9835   25.9567   13.1131  C     
6    C        -1.5992   24.1220   13.9785  C     
7    Cl       -3.5894   26.9406   11.8656  Cl    
8    Cl       -0.4416   22.8876   13.8257  Cl    
9    C        -1.4024   24.7974   11.6491  C     
10   O        -1.8778   23.8898   10.9730  O     
11   C        -0.3514   25.5766   11.1933  C     
12   C         1.1176   27.4792   11.4524  C     
13   C         0.1626   26.6515   11.9289  C     
14   C         0.2138   25.3345    9.9792  C     
15   C         1.6227   27.2196   10.1913  C     
16   C         1.7835   26.1396    8.3199  C     
17   C         2.6695   27.2194    8.3028  C     
18   N         2.5415   27.8814    9.4672  N     
19   N         1.1607   26.1578    9.5022  N     
20   N         3.5148   27.6271    7.3312  N     
21   C         3.8049   26.9664    6.1715  C     
22   C         4.3336   24.9060    4.9312  C     
23   C         4.0111   25.5670    6.1350  C     
24   C         3.9616   27.7081    4.9842  C     
25   C         4.2626   27.0550    3.7731  C     
26   C         4.4440   25.6593    3.7455  C     
27   O         3.8182   22.6141    3.6738  O     
28   O         6.1257   22.8649    4.5259  O     
29   S         4.6193   23.1852    4.9225  S     
30   N         4.1625   22.3528    6.3293  N     
31   C         3.3185   21.1959    6.2248  C     
32   C         4.9676   22.5218    7.5074  C     
33   H        -4.2025   26.8923   14.5717  H     
34   H        -3.4817   25.4963   16.4070  H     
35   H        -1.8824   23.7218   16.0335  H     
36   H         1.4587   28.2477   11.9831  H     
37   H        -0.1701   26.8346   12.8455  H     
38   H        -0.0684   24.5628    9.4137  H     
39   H         1.6009   25.4742    7.5666  H     
40   H         3.9192   28.4983    7.4552  H     
41   H         3.9544   25.0268    6.9980  H     
42   H         3.8402   28.7258    4.9927  H     
43   H         4.3472   27.5972    2.9128  H     
44   H         4.6609   25.2032    2.8542  H     
45   H         2.5225   21.3462    5.4935  H     
46   H         2.8354   20.9722    7.1783  H     
47   H         3.9127   20.3299    5.9250  H     
48   H         5.8432   21.8706    7.4599  H     
49   H         4.3981   22.2740    8.4068  H     
50   H         5.3077   23.5541    7.6183  H     
@<TRIPOS>BOND
     1    1    2 2
     2    1    5 1
     3    2    3 1
     4    3    6 2
     5    4    5 2
     6    4    6 1
     7    4    9 1
     8    5    7 1
     9    6    8 1
    10    9   10 2
    11    9   11 1
    12   11   13 1
    13   11   14 2
    14   12   13 2
    15   12   15 1
    16   14   19 1
    17   15   18 2
    18   15   19 1
    19   16   17 2
    20   16   19 1
    21   17   18 1
    22   17   20 1
    23   20   21 1
    24   21   23 2
    25   21   24 1
    26   22   23 1
    27   22   26 2
    28   22   29 1
    29   24   25 2
    30   25   26 1
    31   27   29 2
    32   28   29 2
    33   29   30 1
    34   30   31 1
    35   30   32 1
    36    1   33 1
    37    2   34 1
    38    3   35 1
    39   12   36 1
    40   13   37 1
    41   14   38 1
    42   16   39 1
    43   20   40 1
    44   23   41 1
    45   24   42 1
    46   25   43 1
    47   26   44 1
    48   31   45 1
    49   31   46 1
    50   31   47 1
    51   32   48 1
    52   32   49 1
    53   32   50 1
@<TRIPOS>PROPERTY_DATA
  Total_Score	| 2.4520
  Crash		| -1.3688
  Polar		| 1.3906
  FragIndex	| 1
  FragRMSD	| 0.513

