@<TRIPOS>MOLECULE
BindingDB_6673
 41 44 0 0 0
SMALL
NO_CHARGES


@<TRIPOS>ATOM
1    C        -4.3765   28.6727   10.8285  C     
2    C        -3.8112   27.9283   11.8756  C     
3    C        -2.5388   28.2609   12.3668  C     
4    C        -2.4021   30.1328   10.7828  C     
5    C        -3.6761   29.7639   10.2733  C     
6    C        -1.8305   29.3564   11.8289  C     
7    Cl       -4.3960   30.5690    8.9632  Cl    
8    Cl       -0.2816   29.6628   12.4571  Cl    
9    C        -1.7378   31.2406   10.2576  C     
10   O        -2.1579   32.3189   10.6785  O     
11   C        -0.7863   31.1920    9.2544  C     
12   C         0.7724   32.3560    7.8282  C     
13   C        -0.2210   32.3642    8.7393  C     
14   C        -0.3382   30.0105    8.7482  C     
15   C         1.2369   31.1279    7.3986  C     
16   C         1.3058   28.9646    7.2858  C     
17   C         2.3194   29.4962    6.4865  C     
18   N         2.2371   30.8413    6.5522  N     
19   N         0.6687   29.9951    7.8566  N     
20   N         3.2632   28.8879    5.7364  N     
21   C         3.5457   27.5533    5.6453  C     
22   C         4.3105   25.7056    4.2336  C     
23   C         3.9801   27.0633    4.3992  C     
24   C         3.5135   26.6660    6.7436  C     
25   C         3.8603   25.3120    6.5842  C     
26   C         4.2519   24.8025    5.3229  C     
27   C         4.5893   23.4352    5.1556  C     
28   O         4.9399   22.9246    3.9521  O     
29   O         4.5497   22.5570    6.1898  O     
30   H        -5.2924   28.4085   10.4623  H     
31   H        -4.3206   27.1303   12.2697  H     
32   H        -2.1275   27.6868   13.1058  H     
33   H         1.1699   33.1960    7.4783  H     
34   H        -0.5445   33.2544    9.0420  H     
35   H        -0.7097   29.1354    9.0462  H     
36   H         1.0733   27.9802    7.4124  H     
37   H         3.8010   29.4769    5.1806  H     
38   H         4.6000   25.3871    3.3075  H     
39   H         4.0379   27.6877    3.5934  H     
40   H         3.2716   27.0042    7.6757  H     
41   H         3.8279   24.7014    7.4033  H     
@<TRIPOS>BOND
     1    1    2 2
     2    1    5 1
     3    2    3 1
     4    3    6 2
     5    4    5 2
     6    4    6 1
     7    4    9 1
     8    5    7 1
     9    6    8 1
    10    9   10 2
    11    9   11 1
    12   11   13 1
    13   11   14 2
    14   12   13 2
    15   12   15 1
    16   14   19 1
    17   15   18 2
    18   15   19 1
    19   16   17 2
    20   16   19 1
    21   17   18 1
    22   17   20 1
    23   20   21 1
    24   21   23 2
    25   21   24 1
    26   22   23 1
    27   22   26 2
    28   24   25 2
    29   25   26 1
    30   26   27 1
    31   27   28 2
    32   27   29 1
    33    1   30 1
    34    2   31 1
    35    3   32 1
    36   12   33 1
    37   13   34 1
    38   14   35 1
    39   16   36 1
    40   20   37 1
    41   22   38 1
    42   23   39 1
    43   24   40 1
    44   25   41 1
@<TRIPOS>PROPERTY_DATA
  Total_Score	| 5.3053
  Crash		| -1.1710
  Polar		| 2.1801
  FragIndex	| 1
  FragRMSD	| 0.114

