@<TRIPOS>MOLECULE
BindingDB_6670
 44 47 0 0 0
SMALL
NO_CHARGES


@<TRIPOS>ATOM
1    C        -2.4418   28.1915   12.2886  C     
2    C        -3.6924   27.8201   11.7498  C     
3    C        -4.2872   28.6093   10.7525  C     
4    C        -2.3758   30.1484   10.8005  C     
5    C        -1.7887   29.3523   11.8254  C     
6    C        -3.6260   29.7436   10.2450  C     
7    Cl       -0.2522   29.6789   12.4883  Cl    
8    Cl       -4.3876   30.5817    8.9791  Cl    
9    C        -1.7169   31.2642   10.3033  C     
10   O        -1.9061   32.2956   10.9404  O     
11   C        -0.7956   31.2157    9.2792  C     
12   C         0.6940   32.3756    7.7765  C     
13   C        -0.2967   32.3839    8.6984  C     
14   C        -0.2943   30.0337    8.8340  C     
15   C         1.1910   31.1458    7.3885  C     
16   C         1.2913   28.9795    7.3102  C     
17   C         2.2839   29.4962    6.4804  C     
18   N         2.1736   30.8397    6.5309  N     
19   N         0.6721   30.0116    7.8995  N     
20   N         3.2247   28.8755    5.7262  N     
21   C         3.5432   27.5452    5.5948  C     
22   C         4.3808   25.8036    4.0679  C     
23   C         4.0430   27.1430    4.3261  C     
24   C         3.4814   26.5598    6.6239  C     
25   C         3.8178   25.2173    6.3603  C     
26   C         4.2468   24.8171    5.0710  C     
27   O         4.5784   22.7859    3.1821  O     
28   O         6.1119   22.9249    5.2053  O     
29   S         4.6105   23.1494    4.7311  S     
30   N         3.6778   22.0644    5.6221  N     
31   H        -2.0357   27.6126   13.0251  H     
32   H        -4.1595   26.9791   12.0916  H     
33   H        -5.1977   28.3403   10.3740  H     
34   H         1.0666   33.2177    7.4082  H     
35   H        -0.6615   33.2709    8.9682  H     
36   H        -0.5912   29.1663    9.2069  H     
37   H         1.0598   27.9975    7.4520  H     
38   H         3.7504   29.4794    5.1920  H     
39   H         4.7238   25.5512    3.1300  H     
40   H         4.1502   27.8354    3.5718  H     
41   H         3.2206   26.8157    7.5898  H     
42   H         3.7487   24.5254    7.1188  H     
43   H         4.1049   21.3319    6.0899  H     
44   H         2.7601   22.2814    5.8617  H     
@<TRIPOS>BOND
     1    1    2 2
     2    1    5 1
     3    2    3 1
     4    3    6 2
     5    4    5 2
     6    4    6 1
     7    4    9 1
     8    5    7 1
     9    6    8 1
    10    9   10 2
    11    9   11 1
    12   11   13 1
    13   11   14 2
    14   12   13 2
    15   12   15 1
    16   14   19 1
    17   15   18 2
    18   15   19 1
    19   16   17 2
    20   16   19 1
    21   17   18 1
    22   17   20 1
    23   20   21 1
    24   21   23 2
    25   21   24 1
    26   22   23 1
    27   22   26 2
    28   24   25 2
    29   25   26 1
    30   26   29 1
    31   27   29 2
    32   28   29 2
    33   29   30 am
    34    1   31 1
    35    2   32 1
    36    3   33 1
    37   12   34 1
    38   13   35 1
    39   14   36 1
    40   16   37 1
    41   20   38 1
    42   22   39 1
    43   23   40 1
    44   24   41 1
    45   25   42 1
    46   30   43 1
    47   30   44 1
@<TRIPOS>PROPERTY_DATA
  Total_Score	| 6.0297
  Crash		| -1.5606
  Polar		| 3.3443
  FragIndex	| 1
  FragRMSD	| 0.145

