@<TRIPOS>MOLECULE
BindingDB_6668
 50 53 0 0 0
SMALL
NO_CHARGES


@<TRIPOS>ATOM
1    C        -2.3335   28.1855   12.2863  C     
2    C        -3.6122   27.8256   11.8320  C     
3    C        -4.2458   28.6020   10.8492  C     
4    C        -2.3326   30.1323   10.7922  C     
5    C        -1.6918   29.3302   11.7711  C     
6    C        -3.6139   29.7460   10.3239  C     
7    Cl       -0.1184   29.6399   12.3191  Cl    
8    Cl       -4.4257   30.5896    9.0981  Cl    
9    C        -1.7021   31.2570   10.2628  C     
10   O        -2.0495   32.3198   10.7679  O     
11   C        -0.7718   31.2209    9.2296  C     
12   C         0.7634   32.3964    7.7868  C     
13   C        -0.2255   32.3949    8.7063  C     
14   C        -0.3173   30.0427    8.7132  C     
15   C         1.2420   31.1761    7.3510  C     
16   C         1.3286   29.0165    7.2572  C     
17   C         2.3539   29.5424    6.4667  C     
18   N         2.2568   30.8837    6.5248  N     
19   N         0.6783   30.0420    7.8114  N     
20   N         3.3186   28.9283    5.7290  N     
21   C         3.5729   27.5894    5.6115  C     
22   C         3.6934   25.2771    6.4379  C     
23   C         3.4187   26.6414    6.6489  C     
24   C         4.1027   27.1336    4.3786  C     
25   C         4.3777   25.7684    4.1628  C     
26   C         4.1556   24.8201    5.1830  C     
27   S         4.5343   23.1273    4.9229  S     
28   O         6.0628   23.0269    4.4828  O     
29   O         4.5523   22.3409    6.3112  O     
30   N         3.5775   22.2813    3.7957  N     
31   C         2.8616   21.1109    4.2443  C     
32   C         3.9351   22.3746    2.4140  C     
33   H        -1.8731   27.6030   12.9885  H     
34   H        -4.0751   26.9968   12.2088  H     
35   H        -5.1688   28.3272   10.5139  H     
36   H         1.1490   33.2419    7.4384  H     
37   H        -0.5623   33.2835    9.0119  H     
38   H        -0.6737   29.1698    9.0207  H     
39   H         1.1079   28.0278    7.4085  H     
40   H         3.8623   29.5157    5.1875  H     
41   H         3.5673   24.6241    7.2185  H     
42   H         3.1390   26.9378    7.5796  H     
43   H         4.2935   27.7945    3.6228  H     
44   H         4.7468   25.4774    3.2617  H     
45   H         3.5596   20.2803    4.3742  H     
46   H         2.1017   20.8143    3.5187  H     
47   H         2.3493   21.2987    5.1935  H     
48   H         4.1991   23.3953    2.1420  H     
49   H         3.0997   22.0716    1.7719  H     
50   H         4.7937   21.7208    2.2152  H     
@<TRIPOS>BOND
     1    1    2 2
     2    1    5 1
     3    2    3 1
     4    3    6 2
     5    4    5 2
     6    4    6 1
     7    4    9 1
     8    5    7 1
     9    6    8 1
    10    9   10 2
    11    9   11 1
    12   11   13 1
    13   11   14 2
    14   12   13 2
    15   12   15 1
    16   14   19 1
    17   15   18 2
    18   15   19 1
    19   16   17 2
    20   16   19 1
    21   17   18 1
    22   17   20 1
    23   20   21 1
    24   21   23 2
    25   21   24 1
    26   22   23 1
    27   22   26 2
    28   24   25 2
    29   25   26 1
    30   26   27 1
    31   27   28 2
    32   27   29 2
    33   27   30 1
    34   30   31 1
    35   30   32 1
    36    1   33 1
    37    2   34 1
    38    3   35 1
    39   12   36 1
    40   13   37 1
    41   14   38 1
    42   16   39 1
    43   20   40 1
    44   22   41 1
    45   23   42 1
    46   24   43 1
    47   25   44 1
    48   31   45 1
    49   31   46 1
    50   31   47 1
    51   32   48 1
    52   32   49 1
    53   32   50 1
@<TRIPOS>PROPERTY_DATA
  Total_Score	| 5.8100
  Crash		| -1.5878
  Polar		| 2.1660
  FragIndex	| 1
  FragRMSD	| 0.693

