@<TRIPOS>MOLECULE
BindingDB_6665
 43 46 0 0 0
SMALL
NO_CHARGES


@<TRIPOS>ATOM
1    C        -4.3815   28.6781   10.8082  C     
2    C        -3.8305   27.9367   11.8647  C     
3    C        -2.5693   28.2820   12.3829  C     
4    C        -2.4182   30.1501   10.8072  C     
5    C        -3.6789   29.7711   10.2679  C     
6    C        -1.8564   29.3761   11.8591  C     
7    Cl       -4.3830   30.5664    8.9403  Cl    
8    Cl       -0.3246   29.6971   12.5172  Cl    
9    C        -1.7462   31.2558   10.2952  C     
10   O        -2.0984   32.3211   10.7830  O     
11   C        -0.7987   31.2041    9.2843  C     
12   C         0.7621   32.3709    7.8594  C     
13   C        -0.2253   32.3799    8.7793  C     
14   C        -0.3720   30.0286    8.7578  C     
15   C         1.1959   31.1435    7.3950  C     
16   C         1.2308   28.9846    7.2520  C     
17   C         2.2432   29.5077    6.4440  C     
18   N         2.1842   30.8492    6.5364  N     
19   N         0.6121   30.0144    7.8419  N     
20   N         3.1886   28.9080    5.6873  N     
21   C         3.5024   27.5813    5.5696  C     
22   C         4.5663   25.8342    4.1834  C     
23   C         4.1410   27.1710    4.3804  C     
24   C         3.3305   26.6269    6.5963  C     
25   C         3.7482   25.2940    6.4180  C     
26   C         4.3569   24.9039    5.2168  C     
27   S         5.4182   25.2651    2.7623  S     
28   C         5.1520   26.5954    1.5649  C     
29   H        -5.2952   28.4194   10.4347  H     
30   H        -4.3459   27.1489   12.2641  H     
31   H        -2.1736   27.7235   13.1436  H     
32   H         1.1831   33.2090    7.5336  H     
33   H        -0.5314   33.2692    9.1029  H     
34   H        -0.7359   29.1527    9.0592  H     
35   H         0.9814   28.0014    7.3757  H     
36   H         3.7239   29.5157    5.1592  H     
37   H         4.3075   27.8642    3.6537  H     
38   H         2.9500   26.8924    7.5041  H     
39   H         3.6232   24.6135    7.1703  H     
40   H         4.6748   23.9368    5.1184  H     
41   H         4.0796   26.8047    1.4727  H     
42   H         5.5363   26.2908    0.5947  H     
43   H         5.6837   27.4964    1.8887  H     
@<TRIPOS>BOND
     1    1    2 2
     2    1    5 1
     3    2    3 1
     4    3    6 2
     5    4    5 2
     6    4    6 1
     7    4    9 1
     8    5    7 1
     9    6    8 1
    10    9   10 2
    11    9   11 1
    12   11   13 1
    13   11   14 2
    14   12   13 2
    15   12   15 1
    16   14   19 1
    17   15   18 2
    18   15   19 1
    19   16   17 2
    20   16   19 1
    21   17   18 1
    22   17   20 1
    23   20   21 1
    24   21   23 2
    25   21   24 1
    26   22   23 1
    27   22   26 2
    28   22   27 1
    29   24   25 2
    30   25   26 1
    31   27   28 1
    32    1   29 1
    33    2   30 1
    34    3   31 1
    35   12   32 1
    36   13   33 1
    37   14   34 1
    38   16   35 1
    39   20   36 1
    40   23   37 1
    41   24   38 1
    42   25   39 1
    43   26   40 1
    44   28   41 1
    45   28   42 1
    46   28   43 1
@<TRIPOS>PROPERTY_DATA
  Total_Score	| 5.8259
  Crash		| -1.7311
  Polar		| 2.2233
  FragIndex	| 1
  FragRMSD	| 0.137

