@<TRIPOS>MOLECULE
BindingDB_6671
 50 53 0 0 0
SMALL
NO_CHARGES


@<TRIPOS>ATOM
1    C        -4.3274   28.6509   10.7739  C     
2    C        -3.7654   27.8396   11.7785  C     
3    C        -2.5194   28.1769   12.3305  C     
4    C        -2.3775   30.1434   10.8656  C     
5    C        -3.6419   29.7818   10.3038  C     
6    C        -1.8269   29.3214   11.8862  C     
7    Cl       -4.3438   30.6328    9.0132  Cl    
8    Cl       -0.3154   29.6321   12.5986  Cl    
9    C        -1.6879   31.2474   10.3905  C     
10   O        -2.1145   32.3081   10.8155  O     
11   C        -0.7057   31.1923    9.3861  C     
12   C         0.7741   32.3520    7.8576  C     
13   C        -0.2191   32.3587    8.8043  C     
14   C        -0.1955   30.0108    8.9464  C     
15   C         1.2672   31.1316    7.4734  C     
16   C         1.3968   28.9732    7.4247  C     
17   C         2.3434   29.4930    6.5393  C     
18   N         2.2228   30.8345    6.5694  N     
19   N         0.7712   30.0046    8.0033  N     
20   N         3.2363   28.8810    5.7254  N     
21   C         3.5264   27.5467    5.5815  C     
22   C         4.3671   25.7776    4.1010  C     
23   C         4.0158   27.1243    4.3269  C     
24   C         3.4390   26.5852    6.6156  C     
25   C         3.7542   25.2333    6.3823  C     
26   C         4.2336   24.8246    5.1227  C     
27   O         5.9918   23.1073    3.9072  O     
28   S         4.7193   23.1571    4.8748  S     
29   O         5.2526   22.6614    6.2835  O     
30   N         3.4910   22.2165    4.2501  N     
31   C         3.0633   20.9834    4.6368  C     
32   N         2.0686   20.4517    3.9456  N     
33   N         3.5638   20.2516    5.6660  N     
34   H        -5.2369   28.3954   10.3758  H     
35   H        -4.2725   27.0138   12.1155  H     
36   H        -2.1209   27.5750   13.0580  H     
37   H         1.1128   33.1919    7.4637  H     
38   H        -0.5744   33.2473    9.0473  H     
39   H        -0.4778   29.1330    9.3047  H     
40   H         1.1756   27.9963    7.6056  H     
41   H         3.7216   29.4883    5.1455  H     
42   H         4.7134   25.5032    3.1775  H     
43   H         4.1215   27.7956    3.5639  H     
44   H         3.1943   26.8468    7.5704  H     
45   H         3.6423   24.5682    7.1504  H     
46   H         3.0438   22.5808    3.4566  H     
47   H         1.7304   19.5718    4.1732  H     
48   H         3.1776   19.3847    5.8760  H     
49   H         4.2928   20.5599    6.1959  H     
50   H         1.6561   20.9418    3.2068  H     
@<TRIPOS>BOND
     1    1    2 2
     2    1    5 1
     3    2    3 1
     4    3    6 2
     5    4    5 2
     6    4    6 1
     7    4    9 1
     8    5    7 1
     9    6    8 1
    10    9   10 2
    11    9   11 1
    12   11   13 1
    13   11   14 2
    14   12   13 2
    15   12   15 1
    16   14   19 1
    17   15   18 2
    18   15   19 1
    19   16   17 2
    20   16   19 1
    21   17   18 1
    22   17   20 1
    23   20   21 1
    24   21   23 2
    25   21   24 1
    26   22   23 1
    27   22   26 2
    28   24   25 2
    29   25   26 1
    30   26   28 1
    31   27   28 2
    32   28   29 2
    33   28   30 1
    34   30   31 1
    35   31   32 2
    36   31   33 1
    37    1   34 1
    38    2   35 1
    39    3   36 1
    40   12   37 1
    41   13   38 1
    42   14   39 1
    43   16   40 1
    44   20   41 1
    45   22   42 1
    46   23   43 1
    47   24   44 1
    48   25   45 1
    49   30   46 1
    50   32   47 1
    51   33   48 1
    52   33   49 1
    53   32   50 1
@<TRIPOS>PROPERTY_DATA
  Total_Score	| 6.1987
  Crash		| -1.6835
  Polar		| 3.3585
  FragIndex	| 1
  FragRMSD	| 0.548

