@<TRIPOS>MOLECULE
BindingDB_6663
 45 48 0 0 0
SMALL
NO_CHARGES


@<TRIPOS>ATOM
1    C        -2.5102   28.2340   12.3176  C     
2    C        -3.7877   27.8946   11.8470  C     
3    C        -4.3946   28.6826   10.8565  C     
4    C        -2.4408   30.1640   10.8033  C     
5    C        -1.8333   29.3568   11.7998  C     
6    C        -3.7274   29.8028   10.3301  C     
7    Cl       -0.2784   29.6776   12.3971  Cl    
8    Cl       -4.5080   30.6753    9.1047  Cl    
9    C        -1.7783   31.2610   10.2599  C     
10   O        -2.0818   32.3345   10.7755  O     
11   C        -0.8685   31.1971    9.2176  C     
12   C         0.7113   32.3458    7.8000  C     
13   C        -0.2929   32.3653    8.7000  C     
14   C        -0.4486   30.0099    8.6869  C     
15   C         1.1563   31.1159    7.3647  C     
16   C         1.2139   28.9513    7.2347  C     
17   C         2.2627   29.4846    6.4806  C     
18   N         2.1800   30.8273    6.5532  N     
19   N         0.5631   29.9830    7.7973  N     
20   N         3.2500   28.8941    5.7644  N     
21   C         3.5543   27.5693    5.6360  C     
22   C         4.6161   25.8310    4.2510  C     
23   C         4.2186   27.1720    4.4515  C     
24   C         3.3259   26.6013    6.6424  C     
25   C         3.6955   25.2564    6.4350  C     
26   C         4.3375   24.8703    5.2458  C     
27   O         7.0279   25.1935    3.2675  O     
28   C         5.4215   26.4727    1.4307  C     
29   S         5.5028   25.3409    2.8337  S     
30   O         5.0337   23.8936    2.3721  O     
31   H        -2.0708   27.6458   13.0307  H     
32   H        -4.2655   27.0651   12.2049  H     
33   H        -5.3195   28.4252   10.5058  H     
34   H         1.1315   33.1814    7.4633  H     
35   H        -0.6097   33.2623    8.9897  H     
36   H        -0.8339   29.1402    8.9775  H     
37   H         1.0091   27.9462    7.3570  H     
38   H         3.7918   29.5015    5.2366  H     
39   H         4.4142   27.8761    3.7339  H     
40   H         2.8985   26.8722    7.5468  H     
41   H         3.4976   24.5596    7.1569  H     
42   H         4.6174   23.8907    5.1282  H     
43   H         4.3783   26.6802    1.1853  H     
44   H         5.9171   26.0182    0.5712  H     
45   H         5.9323   27.4035    1.6768  H     
@<TRIPOS>BOND
     1    1    2 2
     2    1    5 1
     3    2    3 1
     4    3    6 2
     5    4    5 2
     6    4    6 1
     7    4    9 1
     8    5    7 1
     9    6    8 1
    10    9   10 2
    11    9   11 1
    12   11   13 1
    13   11   14 2
    14   12   13 2
    15   12   15 1
    16   14   19 1
    17   15   18 2
    18   15   19 1
    19   16   17 2
    20   16   19 1
    21   17   18 1
    22   17   20 1
    23   20   21 1
    24   21   23 2
    25   21   24 1
    26   22   23 1
    27   22   26 2
    28   22   29 1
    29   24   25 2
    30   25   26 1
    31   27   29 2
    32   28   29 1
    33   29   30 2
    34    1   31 1
    35    2   32 1
    36    3   33 1
    37   12   34 1
    38   13   35 1
    39   14   36 1
    40   16   37 1
    41   20   38 1
    42   23   39 1
    43   24   40 1
    44   25   41 1
    45   26   42 1
    46   28   43 1
    47   28   44 1
    48   28   45 1
@<TRIPOS>PROPERTY_DATA
  Total_Score	| 5.8412
  Crash		| -1.6301
  Polar		| 2.1965
  FragIndex	| 1
  FragRMSD	| 0.188

