@<TRIPOS>MOLECULE
BindingDB_6675
 50 54 0 0 0
SMALL
NO_CHARGES


@<TRIPOS>ATOM
1    C        -2.6238   28.2571   12.4583  C     
2    C        -3.8877   27.9386   11.9553  C     
3    C        -4.4135   28.6646   10.8681  C     
4    C        -2.4033   30.0658   10.8059  C     
5    C        -1.8787   29.3097   11.8899  C     
6    C        -3.6674   29.7096   10.2831  C     
7    Cl       -0.3418   29.6055   12.5324  Cl    
8    Cl       -4.3552   30.5160    8.9568  Cl    
9    C        -1.7060   31.1576   10.2995  C     
10   O        -2.0376   32.2281   10.8000  O     
11   C        -0.7940   31.0984    9.2630  C     
12   C         0.6768   32.2791    7.7630  C     
13   C        -0.3186   32.2749    8.6716  C     
14   C        -0.2694   29.9197    8.8176  C     
15   C         1.1893   31.0600    7.3735  C     
16   C         1.3907   28.9006    7.3289  C     
17   C         2.3246   29.4631    6.4565  C     
18   N         2.1559   30.7966    6.4842  N     
19   N         0.7098   29.9109    7.8955  N     
20   N         3.2563   28.8989    5.6520  N     
21   C         3.6649   27.6031    5.5636  C     
22   C         4.3464   25.4359    6.4999  C     
23   C         3.8696   26.7511    6.6799  C     
24   C         4.0395   27.1384    4.2825  C     
25   C         4.4968   25.8143    4.1071  C     
26   C         4.6052   24.9324    5.2019  C     
27   O         5.0906   23.6519    5.0574  O     
28   C         4.2708   22.8362    4.3161  C     
29   C         4.3068   22.8763    2.8971  C     
30   C         3.5209   21.9952    2.1327  C     
31   C         2.6913   21.0507    2.7728  C     
32   C         2.6666   20.9824    4.1814  C     
33   C         3.4632   21.8606    4.9472  C     
34   H        -2.2451   27.7117   13.2433  H     
35   H        -4.4323   27.1791   12.3721  H     
36   H        -5.3306   28.4206   10.5021  H     
37   H         1.0252   33.1302    7.3777  H     
38   H        -0.7057   33.1630    8.9063  H     
39   H        -0.5664   29.0474    9.1877  H     
40   H         1.2199   27.9057    7.4928  H     
41   H         3.7190   29.5170    5.0708  H     
42   H         4.5008   24.8430    7.3155  H     
43   H         3.7091   27.0938    7.6272  H     
44   H         3.9620   27.7571    3.4686  H     
45   H         4.7750   25.4858    3.1777  H     
46   H         4.9566   23.4957    2.4165  H     
47   H         3.5310   22.0488    1.1107  H     
48   H         2.1388   20.3939    2.2208  H     
49   H         2.0693   20.2972    4.6477  H     
50   H         3.4596   21.7920    5.9630  H     
@<TRIPOS>BOND
     1    1    2 2
     2    1    5 1
     3    2    3 1
     4    3    6 2
     5    4    5 2
     6    4    6 1
     7    4    9 1
     8    5    7 1
     9    6    8 1
    10    9   10 2
    11    9   11 1
    12   11   13 1
    13   11   14 2
    14   12   13 2
    15   12   15 1
    16   14   19 1
    17   15   18 2
    18   15   19 1
    19   16   17 2
    20   16   19 1
    21   17   18 1
    22   17   20 1
    23   20   21 1
    24   21   23 2
    25   21   24 1
    26   22   23 1
    27   22   26 2
    28   24   25 2
    29   25   26 1
    30   26   27 1
    31   27   28 1
    32   28   29 1
    33   28   33 2
    34   29   30 2
    35   30   31 1
    36   31   32 2
    37   32   33 1
    38    1   34 1
    39    2   35 1
    40    3   36 1
    41   12   37 1
    42   13   38 1
    43   14   39 1
    44   16   40 1
    45   20   41 1
    46   22   42 1
    47   23   43 1
    48   24   44 1
    49   25   45 1
    50   29   46 1
    51   30   47 1
    52   31   48 1
    53   32   49 1
    54   33   50 1
@<TRIPOS>PROPERTY_DATA
  Total_Score	| 5.8239
  Crash		| -1.5085
  Polar		| 2.1443
  FragIndex	| 1
  FragRMSD	| 0.173

