@<TRIPOS>MOLECULE
BindingDB_6672
 56 60 0 0 0
SMALL
NO_CHARGES


@<TRIPOS>ATOM
1    C        -2.4766   28.1597   12.3181  C     
2    C        -3.7295   27.8012   11.7980  C     
3    C        -4.3036   28.5671   10.7718  C     
4    C        -2.3753   30.0823   10.7980  C     
5    C        -1.7912   29.2864   11.8197  C     
6    C        -3.6338   29.6983   10.2640  C     
7    Cl       -0.2595   29.6069   12.4811  Cl    
8    Cl       -4.3737   30.5066    8.9653  Cl    
9    C        -1.7122   31.1997   10.2920  C     
10   O        -2.1280   32.2690   10.7244  O     
11   C        -0.7578   31.1660    9.2913  C     
12   C         0.7827   32.3495    7.8663  C     
13   C        -0.1956   32.3437    8.7959  C     
14   C        -0.3107   29.9921    8.7568  C     
15   C         1.2330   31.1323    7.3871  C     
16   C         1.2942   28.9731    7.2214  C     
17   C         2.3103   29.5086    6.4222  C     
18   N         2.2223   30.8529    6.5235  N     
19   N         0.6670   29.9916    7.8300  N     
20   N         3.2525   28.8830    5.6705  N     
21   C         3.5421   27.5498    5.6126  C     
22   C         4.3378   25.6419    4.2854  C     
23   C         3.9983   27.0065    4.3920  C     
24   C         3.4931   26.6975    6.7391  C     
25   C         3.8131   25.3308    6.6347  C     
26   C         4.2461   24.7920    5.4062  C     
27   O         5.9080   22.9936    4.2535  O     
28   S         4.6941   23.1122    5.2762  S     
29   O         5.2706   22.5842    6.6604  O     
30   N         3.3900   22.1171    4.8625  N     
31   C         3.3125   21.2683    3.8407  C     
32   O         4.2566   21.2067    3.0624  O     
33   C         2.1847   20.4538    3.6142  C     
34   C         1.0812   20.4114    4.5100  C     
35   C        -0.0528   19.6155    4.2520  C     
36   C        -0.1024   18.8140    3.1006  C     
37   C         0.9809   18.8113    2.2093  C     
38   C         2.1028   19.6236    2.4608  C     
39   H        -2.0682   27.5884   13.0629  H     
40   H        -4.2152   26.9723   12.1518  H     
41   H        -5.2098   28.2861   10.3876  H     
42   H         1.1796   33.2041    7.5411  H     
43   H        -0.5090   33.2264    9.1253  H     
44   H        -0.6619   29.1130    9.0642  H     
45   H         1.0674   27.9823    7.3332  H     
46   H         3.7916   29.4633    5.1145  H     
47   H         4.6565   25.2754    3.3832  H     
48   H         4.0765   27.5999    3.5611  H     
49   H         3.2534   27.0676    7.6589  H     
50   H         3.7434   24.7355    7.4657  H     
51   H         2.6228   22.1787    5.4481  H     
52   H         1.0861   20.9562    5.3739  H     
53   H        -0.8387   19.6128    4.9074  H     
54   H        -0.9217   18.2291    2.9183  H     
55   H         0.9518   18.2175    1.3774  H     
56   H         2.8654   19.5985    1.7784  H     
@<TRIPOS>BOND
     1    1    2 2
     2    1    5 1
     3    2    3 1
     4    3    6 2
     5    4    5 2
     6    4    6 1
     7    4    9 1
     8    5    7 1
     9    6    8 1
    10    9   10 2
    11    9   11 1
    12   11   13 1
    13   11   14 2
    14   12   13 2
    15   12   15 1
    16   14   19 1
    17   15   18 2
    18   15   19 1
    19   16   17 2
    20   16   19 1
    21   17   18 1
    22   17   20 1
    23   20   21 1
    24   21   23 2
    25   21   24 1
    26   22   23 1
    27   22   26 2
    28   24   25 2
    29   25   26 1
    30   26   28 1
    31   27   28 2
    32   28   29 2
    33   28   30 1
    34   30   31 am
    35   31   32 2
    36   31   33 1
    37   33   34 1
    38   33   38 2
    39   34   35 2
    40   35   36 1
    41   36   37 2
    42   37   38 1
    43    1   39 1
    44    2   40 1
    45    3   41 1
    46   12   42 1
    47   13   43 1
    48   14   44 1
    49   16   45 1
    50   20   46 1
    51   22   47 1
    52   23   48 1
    53   24   49 1
    54   25   50 1
    55   30   51 1
    56   34   52 1
    57   35   53 1
    58   36   54 1
    59   37   55 1
    60   38   56 1
@<TRIPOS>PROPERTY_DATA
  Total_Score	| 7.0469
  Crash		| -1.6201
  Polar		| 3.2285
  FragIndex	| 1
  FragRMSD	| 0.552

