@<TRIPOS>MOLECULE
BindingDB_6662
 45 48 0 0 0
SMALL
NO_CHARGES


@<TRIPOS>ATOM
1    C        -2.5467   28.2829   12.3885  C     
2    C        -3.8261   27.9690   11.9090  C     
3    C        -4.3838   28.7263   10.8676  C     
4    C        -2.3808   30.1429   10.7918  C     
5    C        -1.8222   29.3615   11.8378  C     
6    C        -3.6652   29.7965   10.3008  C     
7    Cl       -0.2640   29.6438   12.4483  Cl    
8    Cl       -4.3680   30.5938    8.9778  Cl    
9    C        -1.6983   31.2449   10.2758  C     
10   O        -2.1207   32.3202   10.6825  O     
11   C        -0.7205   31.1841    9.2956  C     
12   C         0.8014   32.3507    7.8302  C     
13   C        -0.1858   32.3578    8.7504  C     
14   C        -0.2210   30.0045    8.8346  C     
15   C         1.2920   31.1254    7.4192  C     
16   C         1.4238   28.9662    7.3560  C     
17   C         2.3639   29.4968    6.4715  C     
18   N         2.2433   30.8370    6.5166  N     
19   N         0.7757   29.9918    7.9303  N     
20   N         3.2538   28.8962    5.6425  N     
21   C         3.5513   27.5663    5.4758  C     
22   C         3.8463   25.2644    6.2874  C     
23   C         3.4596   26.6042    6.5076  C     
24   C         4.0615   27.1566    4.2270  C     
25   C         4.4438   25.8197    4.0001  C     
26   C         4.3302   24.8621    5.0290  C     
27   O         6.4400   23.1580    4.7215  O     
28   O         4.3583   22.2527    5.9209  O     
29   S         4.8464   23.2190    4.7506  S     
30   C         4.2367   22.5489    3.1822  C     
31   H        -2.1514   27.7240   13.1493  H     
32   H        -4.3485   27.1841   12.3060  H     
33   H        -5.3164   28.4945   10.5207  H     
34   H         1.1782   33.1920    7.4620  H     
35   H        -0.5269   33.2458    9.0388  H     
36   H        -0.5744   29.1322    9.1537  H     
37   H         1.2306   27.9763    7.5120  H     
38   H         3.7360   29.5072    5.0607  H     
39   H         3.7766   24.5887    7.0523  H     
40   H         3.1454   26.8748    7.4398  H     
41   H         4.1527   27.8241    3.4612  H     
42   H         4.8067   25.5550    3.0825  H     
43   H         3.1426   22.5955    3.1543  H     
44   H         4.5596   21.5139    3.0740  H     
45   H         4.6375   23.1390    2.3537  H     
@<TRIPOS>BOND
     1    1    2 2
     2    1    5 1
     3    2    3 1
     4    3    6 2
     5    4    5 2
     6    4    6 1
     7    4    9 1
     8    5    7 1
     9    6    8 1
    10    9   10 2
    11    9   11 1
    12   11   13 1
    13   11   14 2
    14   12   13 2
    15   12   15 1
    16   14   19 1
    17   15   18 2
    18   15   19 1
    19   16   17 2
    20   16   19 1
    21   17   18 1
    22   17   20 1
    23   20   21 1
    24   21   23 2
    25   21   24 1
    26   22   23 1
    27   22   26 2
    28   24   25 2
    29   25   26 1
    30   26   29 1
    31   27   29 2
    32   28   29 2
    33   29   30 1
    34    1   31 1
    35    2   32 1
    36    3   33 1
    37   12   34 1
    38   13   35 1
    39   14   36 1
    40   16   37 1
    41   20   38 1
    42   22   39 1
    43   23   40 1
    44   24   41 1
    45   25   42 1
    46   30   43 1
    47   30   44 1
    48   30   45 1
@<TRIPOS>PROPERTY_DATA
  Total_Score	| 5.3201
  Crash		| -1.4483
  Polar		| 2.1615
  FragIndex	| 1
  FragRMSD	| 0.507

