@<TRIPOS>MOLECULE
BindingDB_6674
 38 41 0 0 0
SMALL
NO_CHARGES


@<TRIPOS>ATOM
1    C        -4.3360   28.6179   10.7958  C     
2    C        -3.7959   27.8482   11.8349  C     
3    C        -2.5405   28.1770   12.3696  C     
4    C        -2.3712   30.0828   10.8319  C     
5    C        -3.6287   29.7234   10.2791  C     
6    C        -1.8237   29.2900   11.8785  C     
7    Cl       -4.3312   30.5675    8.9858  Cl    
8    Cl       -0.3051   29.6037   12.5680  Cl    
9    C        -1.6923   31.1980   10.3474  C     
10   O        -2.0527   32.2581   10.8531  O     
11   C        -0.7840   31.1831    9.3034  C     
12   C         0.7291   32.3896    7.8611  C     
13   C        -0.2395   32.3698    8.8015  C     
14   C        -0.3372   30.0151    8.7655  C     
15   C         1.1901   31.1755    7.3944  C     
16   C         1.2691   29.0102    7.2459  C     
17   C         2.2718   29.5606    6.4511  C     
18   N         2.1815   30.9016    6.5331  N     
19   N         0.6388   30.0299    7.8456  N     
20   N         3.1982   28.9235    5.7056  N     
21   C         3.4485   27.5821    5.6277  C     
22   C         4.3692   25.7433    4.3181  C     
23   C         4.0448   27.1068    4.4420  C     
24   C         3.2128   26.6628    6.6838  C     
25   C         3.5793   25.3085    6.5208  C     
26   N         4.1350   24.8959    5.3536  N     
27   H        -5.2471   28.3642   10.4048  H     
28   H        -4.3062   27.0342   12.1893  H     
29   H        -2.1504   27.5958   13.1180  H     
30   H         1.1019   33.2440    7.5128  H     
31   H        -0.5651   33.2524    9.1300  H     
32   H        -0.6719   29.1347    9.0770  H     
33   H         1.0909   28.0121    7.3481  H     
34   H         3.7606   29.4965    5.1553  H     
35   H         4.7739   25.3809    3.4539  H     
36   H         4.2365   27.7406    3.6608  H     
37   H         2.7649   26.9725    7.5689  H     
38   H         3.4379   24.6336    7.2781  H     
@<TRIPOS>BOND
     1    1    2 2
     2    1    5 1
     3    2    3 1
     4    3    6 2
     5    4    5 2
     6    4    6 1
     7    4    9 1
     8    5    7 1
     9    6    8 1
    10    9   10 2
    11    9   11 1
    12   11   13 1
    13   11   14 2
    14   12   13 2
    15   12   15 1
    16   14   19 1
    17   15   18 2
    18   15   19 1
    19   16   17 2
    20   16   19 1
    21   17   18 1
    22   17   20 1
    23   20   21 1
    24   21   23 2
    25   21   24 1
    26   22   23 1
    27   22   26 2
    28   24   25 2
    29   25   26 1
    30    1   27 1
    31    2   28 1
    32    3   29 1
    33   12   30 1
    34   13   31 1
    35   14   32 1
    36   16   33 1
    37   20   34 1
    38   22   35 1
    39   23   36 1
    40   24   37 1
    41   25   38 1
@<TRIPOS>PROPERTY_DATA
  Total_Score	| 5.4468
  Crash		| -1.2712
  Polar		| 2.2088
  FragIndex	| 1
  FragRMSD	| 0.150

