@<TRIPOS>MOLECULE
BindingDB_6702
 42 45 0 0 0
SMALL
NO_CHARGES


@<TRIPOS>ATOM
1    C        -2.5638   28.2756   12.3752  C     
2    C        -3.7903   27.9236   11.7918  C     
3    C        -4.2956   28.6788   10.7209  C     
4    C        -2.3497   30.1686   10.8275  C     
5    C        -1.8395   29.3888   11.9022  C     
6    C        -3.5791   29.7846   10.2249  C     
7    C        -1.6584   31.2873   10.3608  C     
8    C        -0.6913   31.2451    9.3629  C     
9    C         0.7427   32.4144    7.8128  C     
10   C        -0.2398   32.4198    8.7506  C     
11   C        -0.1507   30.0695    8.9398  C     
12   C         1.2490   31.1934    7.4186  C     
13   C         1.4209   29.0152    7.3807  C     
14   C         2.3078   29.5853    6.4621  C     
15   N         2.1890   30.9273    6.5031  N     
16   N         0.7753   30.0516    7.9607  N     
17   N         3.1579   28.9571    5.6394  N     
18   C         1.1955   27.6679    7.6224  C     
19   O         0.0093   27.3501    7.5795  O     
20   O        -2.0423   32.3527   10.8327  O     
21   C         2.1818   26.7009    7.9111  C     
22   C         2.8064   24.3494    8.3622  C     
23   C         4.5058   26.0845    8.4779  C     
24   C         3.5418   27.0546    8.1765  C     
25   C         1.8427   25.3152    8.0149  C     
26   Cl       -0.3452   29.7053   12.6469  Cl    
27   Cl       -4.2331   30.5932    8.8835  Cl    
28   C         4.1410   24.7284    8.5977  C     
29   F         0.6294   24.8681    7.8113  F     
30   F         3.9874   28.2852    8.2489  F     
31   O         5.0506   23.8018    8.9740  O     
32   H        -2.2016   27.7104   13.1479  H     
33   H        -4.3162   27.1211   12.1488  H     
34   H        -5.1885   28.4137   10.3034  H     
35   H         1.0612   33.2576    7.3979  H     
36   H        -0.6032   33.3101    9.0034  H     
37   H        -0.4188   29.1989    9.3453  H     
38   H         3.7741   29.4773    5.0909  H     
39   H         3.2365   27.9875    5.6632  H     
40   H         2.5408   23.3582    8.4504  H     
41   H         5.4740   26.3797    8.6523  H     
42   H         5.3489   24.1217    9.8511  H     
@<TRIPOS>BOND
     1    1    2 2
     2    1    5 1
     3    2    3 1
     4    3    6 2
     5    4    5 2
     6    4    6 1
     7    4    7 1
     8    5   26 1
     9    6   27 1
    10    7    8 1
    11    7   20 2
    12    8   10 1
    13    8   11 2
    14    9   10 2
    15    9   12 1
    16   11   16 1
    17   12   15 2
    18   12   16 1
    19   13   14 2
    20   13   16 1
    21   13   18 1
    22   14   15 1
    23   14   17 1
    24   18   19 2
    25   18   21 1
    26   21   24 1
    27   21   25 2
    28   22   25 1
    29   22   28 2
    30   23   24 2
    31   23   28 1
    32   24   30 1
    33   25   29 1
    34   28   31 1
    35    1   32 1
    36    2   33 1
    37    3   34 1
    38    9   35 1
    39   10   36 1
    40   11   37 1
    41   17   38 1
    42   17   39 1
    43   22   40 1
    44   23   41 1
    45   31   42 1
@<TRIPOS>PROPERTY_DATA
  Total_Score	| 6.1057
  Crash		| -1.6567
  Polar		| 3.2010
  FragIndex	| 1
  FragRMSD	| 0.087

