@<TRIPOS>MOLECULE
BindingDB_14698
 74 77 0 0 0
SMALL
NO_CHARGES


@<TRIPOS>ATOM
1    C        20.3184   13.9816   21.9710  C     
2    C        20.9878   12.8473   21.4327  C     
3    C        20.3646   11.5839   21.3562  C     
4    C        19.0629   11.4070   21.8553  C     
5    C        18.3878   12.5029   22.4229  C     
6    C        19.0000   13.7713   22.4621  C     
7    C        20.9477   15.2698   22.0600  C     
8    C        22.2317   17.8471   22.4167  C     
9    C        20.8237   17.7197   22.4734  C     
10   C        20.1998   16.4586   22.3186  C     
11   C        22.3522   15.4314   21.9122  C     
12   C        22.9827   16.6833   22.1014  C     
13   C        22.8742   19.1666   22.6343  C     
14   C        21.0036   19.2989   25.7011  C     
15   C        22.3285   19.7150   25.0021  C     
16   C        21.4773   21.1232   23.1984  C     
17   C        19.5540   21.2773   24.7915  C     
18   C        20.0116   20.4457   26.0144  C     
19   N        22.1848   20.0387   23.5905  N     
20   O        21.3781   21.3659   22.0019  O     
21   C        20.7282   22.0361   24.0918  C     
22   N        20.2141   23.2165   23.4212  N     
23   C        20.9388   24.2647   23.0370  C     
24   O        22.1414   24.3262   23.2769  O     
25   C        20.3614   25.2922   22.3743  C     
26   N        20.6094   26.4928   22.9114  N     
27   C        19.7676   27.4793   23.2044  C     
28   C        20.2923   28.6668   23.8449  C     
29   O        18.5631   27.3954   22.9995  O     
30   C        19.6574   25.0372   21.2422  C     
31   C        19.1240   25.9430   20.3168  C     
32   C        19.9025   26.8948   19.6055  C     
33   C        17.7379   25.9148   20.0518  C     
34   C        17.1500   26.8157   19.1525  C     
35   C        19.3124   27.8750   18.7434  C     
36   C        20.1229   28.8538   18.1864  C     
37   O        20.5612   28.7954   17.0392  O     
38   C        17.9026   27.8351   18.5137  C     
39   C        17.1761   28.7488   17.5781  C     
40   C        15.7438   28.8601   17.8519  C     
41   O        15.2781   28.9441   19.1243  O     
42   O        14.8441   28.9657   16.8410  O     
43   H        21.9501   12.9155   21.0983  H     
44   H        20.8636   10.7903   20.9521  H     
45   H        18.6147   10.4993   21.8177  H     
46   H        17.4522   12.3913   22.8073  H     
47   H        18.4476   14.5350   22.8454  H     
48   H        20.2444   18.5293   22.6640  H     
49   H        19.1875   16.4318   22.4259  H     
50   H        22.9416   14.6361   21.6679  H     
51   H        24.0017   16.7398   21.9994  H     
52   H        23.8983   19.0304   22.9804  H     
53   H        22.9774   19.6198   21.6513  H     
54   H        20.5002   18.5449   25.0744  H     
55   H        21.2546   18.8052   26.6491  H     
56   H        22.7824   20.5490   25.5407  H     
57   H        23.0176   18.8793   25.1412  H     
58   H        19.0444   20.6311   24.0757  H     
59   H        18.8168   21.9924   25.1515  H     
60   H        19.1246   19.9992   26.4730  H     
61   H        20.4560   21.1044   26.7536  H     
62   H        21.4031   22.4110   24.8726  H     
63   H        19.2650   23.2301   23.2097  H     
64   H        21.5055   26.6195   23.2653  H     
65   H        20.7883   28.3982   24.7806  H     
66   H        19.4990   29.3915   24.0726  H     
67   H        21.0173   29.1559   23.1861  H     
68   H        19.5000   24.0771   21.0153  H     
69   H        20.9184   26.8989   19.7547  H     
70   H        17.1223   25.2399   20.5267  H     
71   H        16.1470   26.7577   19.0034  H     
72   H        20.3947   29.6465   18.7325  H     
73   H        17.5552   29.7641   17.5848  H     
74   H        17.3225   28.3809   16.5600  H     
@<TRIPOS>BOND
     1    1    2 2
     2    1    6 1
     3    1    7 1
     4    2    3 1
     5    3    4 2
     6    4    5 1
     7    5    6 2
     8    7   10 1
     9    7   11 2
    10    8    9 1
    11    8   12 2
    12    8   13 1
    13    9   10 2
    14   11   12 1
    15   13   19 1
    16   14   15 1
    17   14   18 1
    18   15   19 1
    19   16   19 1
    20   16   20 2
    21   16   21 1
    22   17   18 1
    23   17   21 1
    24   21   22 1
    25   22   23 am
    26   23   24 2
    27   23   25 1
    28   25   26 1
    29   25   30 2
    30   26   27 am
    31   27   28 1
    32   27   29 2
    33   30   31 1
    34   31   32 1
    35   31   33 2
    36   32   35 2
    37   33   34 1
    38   34   38 2
    39   35   36 1
    40   35   38 1
    41   36   37 2
    42   38   39 1
    43   39   40 1
    44   40   41 2
    45   40   42 1
    46    2   43 1
    47    3   44 1
    48    4   45 1
    49    5   46 1
    50    6   47 1
    51    9   48 1
    52   10   49 1
    53   11   50 1
    54   12   51 1
    55   13   52 1
    56   13   53 1
    57   14   54 1
    58   14   55 1
    59   15   56 1
    60   15   57 1
    61   17   58 1
    62   17   59 1
    63   18   60 1
    64   18   61 1
    65   21   62 1
    66   22   63 1
    67   26   64 1
    68   28   65 1
    69   28   66 1
    70   28   67 1
    71   30   68 1
    72   32   69 1
    73   33   70 1
    74   34   71 1
    75   36   72 1
    76   39   73 1
    77   39   74 1
@<TRIPOS>PROPERTY_DATA
  Total_Score	| 12.5999
  Crash		| -2.1136
  Polar		| 10.5518
  FragIndex	| 1
  FragRMSD	| 0.243

