@<TRIPOS>MOLECULE
BindingDB_14694
 76 79 0 0 0
SMALL
NO_CHARGES


@<TRIPOS>ATOM
1    C        20.3746   13.9845   22.2145  C     
2    C        21.0590   12.8933   21.6112  C     
3    C        20.4261   11.6489   21.4400  C     
4    C        19.0977   11.4650   21.8664  C     
5    C        18.4039   12.5304   22.4703  C     
6    C        19.0358   13.7722   22.6483  C     
7    C        21.0008   15.2525   22.3659  C     
8    C        22.2535   17.8176   22.6188  C     
9    C        20.8689   17.7069   22.3509  C     
10   C        20.2538   16.4525   22.2339  C     
11   C        22.3899   15.3647   22.6367  C     
12   C        23.0012   16.6231   22.7751  C     
13   C        22.8933   19.1572   22.7253  C     
14   C        20.9948   19.3065   25.7404  C     
15   C        22.3220   19.7596   25.0756  C     
16   C        21.4397   21.0852   23.2085  C     
17   C        19.5398   21.2802   24.8163  C     
18   C        19.9990   20.4534   26.0462  C     
19   N        22.1774   20.0402   23.6502  N     
20   O        21.2902   21.2445   21.9983  O     
21   C        20.6968   22.0194   24.0749  C     
22   N        20.1342   23.1456   23.3694  N     
23   C        20.7938   24.2041   22.9158  C     
24   O        22.0026   24.3096   23.0832  O     
25   C        20.0877   25.2296   22.1642  C     
26   N        20.5278   26.5174   22.6305  N     
27   C        19.7770   27.5383   23.0171  C     
28   C        20.4299   28.7437   23.4828  C     
29   O        18.5517   27.5116   22.9753  O     
30   C        20.3361   25.0942   20.6299  C     
31   C        19.5637   26.1054   19.8578  C     
32   C        17.4166   26.9753   19.0769  C     
33   C        18.1600   25.9992   19.7591  C     
34   C        20.2076   27.1870   19.2181  C     
35   C        19.4663   28.1686   18.5208  C     
36   C        18.0441   28.0892   18.4673  C     
37   C        17.1677   29.0756   17.7639  C     
38   C        15.7306   28.8277   17.9719  C     
39   O        15.1665   28.9861   19.1948  O     
40   O        14.9024   28.8950   16.9037  O     
41   C        20.1994   29.1802   17.8900  C     
42   O        20.1981   30.4362   18.3961  O     
43   O        20.5064   29.0180   16.5835  O     
44   H        22.0178   13.0033   21.2654  H     
45   H        20.9358   10.8710   21.0118  H     
46   H        18.6404   10.5604   21.7344  H     
47   H        17.4414   12.3950   22.7929  H     
48   H        18.5133   14.5201   23.1132  H     
49   H        20.2993   18.5489   22.2178  H     
50   H        19.2497   16.4184   22.0458  H     
51   H        22.9622   14.5251   22.7610  H     
52   H        24.0032   16.6618   22.9819  H     
53   H        23.9318   19.0745   23.0598  H     
54   H        22.9503   19.5468   21.7052  H     
55   H        20.5140   18.5582   25.1076  H     
56   H        21.2400   18.8236   26.6917  H     
57   H        22.7309   20.6358   25.5914  H     
58   H        23.0482   18.9545   25.2433  H     
59   H        19.0045   20.6280   24.1168  H     
60   H        18.8161   22.0122   25.1893  H     
61   H        19.1116   20.0123   26.5065  H     
62   H        20.4448   21.1276   26.7848  H     
63   H        21.3755   22.4409   24.8258  H     
64   H        19.1827   23.1131   23.1933  H     
65   H        19.0143   25.1098   22.3488  H     
66   H        21.4894   26.6573   22.6699  H     
67   H        21.0587   28.5116   24.3488  H     
68   H        19.7059   29.5090   23.7772  H     
69   H        21.0589   29.1487   22.6841  H     
70   H        21.4106   25.1823   20.4270  H     
71   H        20.0306   24.0979   20.2889  H     
72   H        16.4030   26.8716   19.0429  H     
73   H        17.6678   25.2141   20.1936  H     
74   H        21.2285   27.2723   19.2823  H     
75   H        17.3782   30.1056   18.0700  H     
76   H        17.3854   29.0063   16.6921  H     
@<TRIPOS>BOND
     1    1    2 2
     2    1    6 1
     3    1    7 1
     4    2    3 1
     5    3    4 2
     6    4    5 1
     7    5    6 2
     8    7   10 1
     9    7   11 2
    10    8    9 1
    11    8   12 2
    12    8   13 1
    13    9   10 2
    14   11   12 1
    15   13   19 1
    16   14   15 1
    17   14   18 1
    18   15   19 1
    19   16   19 1
    20   16   20 2
    21   16   21 1
    22   17   18 1
    23   17   21 1
    24   21   22 1
    25   22   23 am
    26   23   24 2
    27   23   25 1
    28   25   26 1
    29   25   30 1
    30   26   27 am
    31   27   28 1
    32   27   29 2
    33   30   31 1
    34   31   33 1
    35   31   34 2
    36   32   33 2
    37   32   36 1
    38   34   35 1
    39   35   36 2
    40   35   41 1
    41   36   37 1
    42   37   38 1
    43   38   39 2
    44   38   40 1
    45   41   42 2
    46   41   43 1
    47    2   44 1
    48    3   45 1
    49    4   46 1
    50    5   47 1
    51    6   48 1
    52    9   49 1
    53   10   50 1
    54   11   51 1
    55   12   52 1
    56   13   53 1
    57   13   54 1
    58   14   55 1
    59   14   56 1
    60   15   57 1
    61   15   58 1
    62   17   59 1
    63   17   60 1
    64   18   61 1
    65   18   62 1
    66   21   63 1
    67   22   64 1
    68   25   65 1
    69   26   66 1
    70   28   67 1
    71   28   68 1
    72   28   69 1
    73   30   70 1
    74   30   71 1
    75   32   72 1
    76   33   73 1
    77   34   74 1
    78   37   75 1
    79   37   76 1
@<TRIPOS>PROPERTY_DATA
  Total_Score	| 12.6419
  Crash		| -1.6672
  Polar		| 11.0830
  FragIndex	| 1
  FragRMSD	| 0.161

