@<TRIPOS>MOLECULE
BindingDB_14692
 82 85 0 0 0
SMALL
NO_CHARGES


@<TRIPOS>ATOM
1    C        20.3875   14.2033   22.4168  C     
2    C        19.0498   13.9916   22.8449  C     
3    C        18.4268   12.7455   22.6529  C     
4    C        19.1197   11.6958   22.0225  C     
5    C        20.4597   11.8859   21.6222  C     
6    C        21.0883   13.1255   21.8218  C     
7    C        20.9895   15.4814   22.5417  C     
8    C        22.1431   18.0819   22.7858  C     
9    C        20.9293   17.8934   22.0902  C     
10   C        20.3300   16.6223   22.0209  C     
11   C        22.2440   15.6547   23.1676  C     
12   C        22.8076   16.9369   23.3019  C     
13   C        22.7002   19.4538   22.9530  C     
14   C        20.2790   20.1660   25.5388  C     
15   C        20.5338   20.2841   24.0143  C     
16   C        22.5463   21.6515   23.9933  C     
17   C        21.4648   22.3831   26.1836  C     
18   C        20.1777   21.5325   26.2614  C     
19   N        21.9384   20.4787   23.6842  N     
20   O        23.6993   21.8487   23.6222  O     
21   C        21.9720   22.7732   24.7622  C     
22   N        20.9806   23.5105   24.0176  N     
23   C        21.2382   24.3253   22.9951  C     
24   O        22.3910   24.4702   22.5943  O     
25   C        20.1729   25.1010   22.3687  C     
26   N        20.4279   26.4990   22.5876  N     
27   C        19.5240   27.4451   22.7931  C     
28   C        19.9475   28.8192   22.8351  C     
29   O        18.3328   27.1779   22.9443  O     
30   C        20.0773   24.7951   20.8425  C     
31   C        19.3274   25.8412   20.0859  C     
32   C        17.2441   26.7611   19.1930  C     
33   C        17.9284   25.7655   19.9132  C     
34   C        20.0030   26.9595   19.5563  C     
35   C        19.3188   27.9665   18.8388  C     
36   C        20.1243   28.9685   18.2638  C     
37   C        17.9033   27.8958   18.6538  C     
38   C        17.4160   28.9135   16.4724  C     
39   O        17.4367   27.7194   15.8440  O     
40   C        15.6546   28.9986   18.1201  C     
41   O        15.1435   28.9694   19.3662  O     
42   O        14.7763   29.2215   17.1115  O     
43   O        17.3288   30.0202   15.7019  O     
44   O        20.7183   29.8914   19.0603  O     
45   C        17.1323   28.9794   17.9236  C     
46   F        17.5241   30.2044   18.4191  F     
47   O        20.4444   28.8394   16.9505  O     
48   C        21.3432   29.6654   16.2158  C     
49   H        18.5297   14.7445   23.3040  H     
50   H        17.4639   12.6021   22.9658  H     
51   H        18.6657   10.7965   21.8754  H     
52   H        20.9709   11.1177   21.1868  H     
53   H        22.0547   13.2507   21.5140  H     
54   H        20.4473   18.6847   21.6637  H     
55   H        19.4150   16.5334   21.5892  H     
56   H        22.7497   14.8477   23.5430  H     
57   H        23.6910   17.0368   23.7992  H     
58   H        23.6794   19.3379   23.4469  H     
59   H        22.9243   19.8583   21.9566  H     
60   H        19.3267   19.6509   25.7067  H     
61   H        21.0709   19.5599   25.9944  H     
62   H        20.1294   19.3752   23.5669  H     
63   H        19.9341   21.0956   23.5855  H     
64   H        21.2739   23.3066   26.7459  H     
65   H        22.2668   21.8553   26.7159  H     
66   H        19.3352   22.0977   25.8543  H     
67   H        19.9538   21.3403   27.3169  H     
68   H        22.7630   23.5019   24.9799  H     
69   H        20.0612   23.4752   24.3344  H     
70   H        19.2128   24.8026   22.8119  H     
71   H        21.3454   26.8031   22.4746  H     
72   H        20.6754   28.9616   23.6418  H     
73   H        19.1063   29.5038   23.0044  H     
74   H        20.4184   29.0856   21.8823  H     
75   H        21.0851   24.6975   20.4138  H     
76   H        19.5948   23.8179   20.7046  H     
77   H        16.2400   26.6293   19.0677  H     
78   H        17.4012   24.9839   20.3182  H     
79   H        21.0148   27.0258   19.6955  H     
80   H        21.0257   30.7086   16.2558  H     
81   H        21.3511   29.3312   15.1793  H     
82   H        22.3487   29.5709   16.6252  H     
@<TRIPOS>BOND
     1    1    2 2
     2    1    6 1
     3    1    7 1
     4    2    3 1
     5    3    4 2
     6    4    5 1
     7    5    6 2
     8    7   10 1
     9    7   11 2
    10    8    9 1
    11    8   12 2
    12    8   13 1
    13    9   10 2
    14   11   12 1
    15   13   19 1
    16   14   15 1
    17   14   18 1
    18   15   19 1
    19   16   19 1
    20   16   20 2
    21   16   21 1
    22   17   18 1
    23   17   21 1
    24   21   22 1
    25   22   23 am
    26   23   24 2
    27   23   25 1
    28   25   26 1
    29   25   30 1
    30   26   27 am
    31   27   28 1
    32   27   29 2
    33   30   31 1
    34   31   33 1
    35   31   34 2
    36   32   33 2
    37   32   37 1
    38   34   35 1
    39   35   36 1
    40   35   37 2
    41   36   44 2
    42   36   47 1
    43   37   45 1
    44   38   39 2
    45   38   43 1
    46   38   45 1
    47   40   41 2
    48   40   42 1
    49   40   45 1
    50   45   46 1
    51   47   48 1
    52    2   49 1
    53    3   50 1
    54    4   51 1
    55    5   52 1
    56    6   53 1
    57    9   54 1
    58   10   55 1
    59   11   56 1
    60   12   57 1
    61   13   58 1
    62   13   59 1
    63   14   60 1
    64   14   61 1
    65   15   62 1
    66   15   63 1
    67   17   64 1
    68   17   65 1
    69   18   66 1
    70   18   67 1
    71   21   68 1
    72   22   69 1
    73   25   70 1
    74   26   71 1
    75   28   72 1
    76   28   73 1
    77   28   74 1
    78   30   75 1
    79   30   76 1
    80   32   77 1
    81   33   78 1
    82   34   79 1
    83   48   80 1
    84   48   81 1
    85   48   82 1
@<TRIPOS>PROPERTY_DATA
  Total_Score	| 13.9554
  Crash		| -2.2995
  Polar		| 11.7285
  FragIndex	| 1
  FragRMSD	| 1.027

