@<TRIPOS>MOLECULE
BindingDB_13433
 48 49 0 0 0
SMALL
NO_CHARGES


@<TRIPOS>ATOM
1    C       -10.3413   45.1036   50.9124  C     
2    C        -9.6695   46.0910   50.1774  C     
3    C       -10.3819   46.9059   49.2713  C     
4    C       -11.7731   46.7249   49.1173  C     
5    N        -9.7191   47.8725   48.5962  N     
6    O        -7.7668   46.9441   46.9611  O     
7    S        -9.2924   47.6579   46.9801  S     
8    O       -10.3931   46.7024   46.1096  O     
9    O        -9.1112   49.1567   46.2376  O     
10   C       -12.4553   45.7564   49.8867  C     
11   C       -11.7371   44.9306   50.7813  C     
12   C       -13.9346   45.6283   49.7642  C     
13   C       -12.4533   43.8551   51.5059  C     
14   C       -13.9188   44.2427   51.8846  C     
15   N       -14.6351   44.8501   50.7724  N     
16   C       -16.0012   44.7859   50.7042  C     
17   O       -16.7205   44.2257   51.7076  O     
18   O       -16.6693   45.2803   49.6191  O     
19   C       -18.0661   45.3851   49.2811  C     
20   C       -18.0978   45.9063   47.8153  C     
21   C       -18.7696   43.9977   49.3439  C     
22   C       -18.7582   46.4130   50.2222  C     
23   C       -13.9842   45.0967   53.0697  C     
24   O       -14.4488   44.6379   54.1051  O     
25   N       -13.5824   46.3616   53.0194  N     
26   C       -13.6318   47.2922   54.0960  C     
27   H        -9.7986   44.5039   51.5395  H     
28   H        -8.6603   46.2150   50.2903  H     
29   H       -12.2945   47.3350   48.4869  H     
30   H        -9.1136   48.4351   49.1241  H     
31   H       -14.3522   46.6396   49.7809  H     
32   H       -14.1246   45.1889   48.7813  H     
33   H       -12.4894   42.9925   50.8319  H     
34   H       -11.9048   43.5414   52.4008  H     
35   H       -14.3941   43.2822   52.1140  H     
36   H       -17.5892   46.8706   47.7422  H     
37   H       -19.1257   46.0299   47.4655  H     
38   H       -17.5915   45.2020   47.1516  H     
39   H       -18.2039   43.2694   48.7581  H     
40   H       -19.7872   44.0611   48.9407  H     
41   H       -18.8439   43.6371   50.3680  H     
42   H       -18.7323   46.0676   51.2581  H     
43   H       -19.8002   46.5609   49.9358  H     
44   H       -18.2488   47.3772   50.1736  H     
45   H       -13.2408   46.6917   52.1735  H     
46   H       -14.6595   47.4202   54.4390  H     
47   H       -13.2545   48.2541   53.7487  H     
48   H       -13.0105   46.9470   54.9237  H     
@<TRIPOS>BOND
     1    1    2 1
     2    1   11 2
     3    2    3 2
     4    3    4 1
     5    3    5 1
     6    4   10 2
     7    5    7 1
     8    6    7 1
     9    7    8 2
    10    7    9 2
    11   10   11 1
    12   10   12 1
    13   11   13 1
    14   12   15 1
    15   13   14 1
    16   14   15 1
    17   14   23 1
    18   15   16 1
    19   16   17 2
    20   16   18 1
    21   18   19 1
    22   19   20 1
    23   19   21 1
    24   19   22 1
    25   23   24 2
    26   23   25 am
    27   25   26 1
    28    1   27 1
    29    2   28 1
    30    4   29 1
    31    5   30 1
    32   12   31 1
    33   12   32 1
    34   13   33 1
    35   13   34 1
    36   14   35 1
    37   20   36 1
    38   20   37 1
    39   20   38 1
    40   21   39 1
    41   21   40 1
    42   21   41 1
    43   22   42 1
    44   22   43 1
    45   22   44 1
    46   25   45 1
    47   26   46 1
    48   26   47 1
    49   26   48 1
@<TRIPOS>PROPERTY_DATA
  Total_Score	| 11.2131
  Crash		| -1.1094
  Polar		| 6.0396
  FragIndex	| 1
  FragRMSD	| 0.762

