@<TRIPOS>MOLECULE
BindingDB_13448
 58 60 0 0 0
SMALL
NO_CHARGES


@<TRIPOS>ATOM
1    C       -10.3717   45.1621   50.9764  C     
2    C        -9.7035   46.1522   50.2357  C     
3    C       -10.3970   46.9009   49.2644  C     
4    C       -11.7780   46.6897   49.0774  C     
5    N        -9.7212   47.8625   48.5940  N     
6    O        -7.7516   46.9517   46.9475  O     
7    S        -9.2768   47.6739   46.9782  S     
8    O       -10.3640   46.7333   46.0880  O     
9    O        -9.0897   49.1866   46.2547  O     
10   C       -12.4648   45.7237   49.8482  C     
11   C       -11.7477   44.9338   50.7782  C     
12   C       -13.9350   45.5871   49.7148  C     
13   C       -12.4527   43.8531   51.5030  C     
14   C       -13.9128   44.2435   51.8712  C     
15   N       -14.6335   44.8450   50.7563  N     
16   C       -16.0042   44.7908   50.7120  C     
17   O       -16.7174   44.2365   51.7253  O     
18   O       -16.6823   45.3143   49.6512  O     
19   C       -18.0815   45.4670   49.3542  C     
20   C       -18.7090   46.5347   50.3020  C     
21   C       -18.1266   45.9842   47.8905  C     
22   C       -18.8412   44.1086   49.4445  C     
23   C       -13.9909   45.1037   53.0534  C     
24   O       -14.3973   44.6145   54.1004  O     
25   N       -13.6487   46.3849   52.9872  N     
26   C       -13.7695   47.3658   54.0237  C     
27   C       -14.0484   48.7086   53.4516  C     
28   C       -13.3033   49.8411   53.8564  C     
29   C       -15.0913   48.8893   52.5092  C     
30   C       -15.3551   50.1566   51.9598  C     
31   C       -14.5907   51.2682   52.3571  C     
32   C       -13.5806   51.1135   53.3232  C     
33   H        -9.8442   44.6131   51.6579  H     
34   H        -8.7040   46.3137   50.3990  H     
35   H       -12.2896   47.2725   48.4084  H     
36   H        -9.1134   48.4030   49.1210  H     
37   H       -14.3572   46.6006   49.6936  H     
38   H       -14.1272   45.1149   48.7456  H     
39   H       -12.4793   42.9880   50.8324  H     
40   H       -11.9041   43.5458   52.3980  H     
41   H       -14.3863   43.2782   52.0981  H     
42   H       -18.6915   46.1886   51.3358  H     
43   H       -19.7451   46.7321   50.0222  H     
44   H       -18.1453   47.4703   50.2407  H     
45   H       -17.5165   46.8851   47.7805  H     
46   H       -19.1496   46.2195   47.5924  H     
47   H       -17.7362   45.2248   47.2047  H     
48   H       -18.3384   43.3587   48.8253  H     
49   H       -19.8683   44.2281   49.0922  H     
50   H       -18.8797   43.7426   50.4692  H     
51   H       -13.3050   46.7005   52.1414  H     
52   H       -14.5694   47.1276   54.7297  H     
53   H       -12.8278   47.3593   54.5772  H     
54   H       -12.5570   49.7521   54.5499  H     
55   H       -15.6641   48.0916   52.2192  H     
56   H       -16.1022   50.2691   51.2737  H     
57   H       -14.7801   52.1877   51.9547  H     
58   H       -13.0401   51.9256   53.6270  H     
@<TRIPOS>BOND
     1    1    2 1
     2    1   11 2
     3    2    3 2
     4    3    4 1
     5    3    5 1
     6    4   10 2
     7    5    7 1
     8    6    7 1
     9    7    8 2
    10    7    9 2
    11   10   11 1
    12   10   12 1
    13   11   13 1
    14   12   15 1
    15   13   14 1
    16   14   15 1
    17   14   23 1
    18   15   16 1
    19   16   17 2
    20   16   18 1
    21   18   19 1
    22   19   20 1
    23   19   21 1
    24   19   22 1
    25   23   24 2
    26   23   25 am
    27   25   26 1
    28   26   27 1
    29   27   28 1
    30   27   29 2
    31   28   32 2
    32   29   30 1
    33   30   31 2
    34   31   32 1
    35    1   33 1
    36    2   34 1
    37    4   35 1
    38    5   36 1
    39   12   37 1
    40   12   38 1
    41   13   39 1
    42   13   40 1
    43   14   41 1
    44   20   42 1
    45   20   43 1
    46   20   44 1
    47   21   45 1
    48   21   46 1
    49   21   47 1
    50   22   48 1
    51   22   49 1
    52   22   50 1
    53   25   51 1
    54   26   52 1
    55   26   53 1
    56   28   54 1
    57   29   55 1
    58   30   56 1
    59   31   57 1
    60   32   58 1
@<TRIPOS>PROPERTY_DATA
  Total_Score	| 11.7694
  Crash		| -1.2634
  Polar		| 6.0116
  FragIndex	| 1
  FragRMSD	| 0.768

