@<TRIPOS>MOLECULE
BindingDB_13451
 56 57 0 0 0
SMALL
NO_CHARGES


@<TRIPOS>ATOM
1    C       -10.3767   45.1110   50.9340  C     
2    C        -9.7048   46.1106   50.2107  C     
3    C       -10.3961   46.8880   49.2598  C     
4    C       -11.7811   46.6944   49.0838  C     
5    N        -9.7244   47.8589   48.5987  N     
6    O        -9.0986   49.1963   46.2733  O     
7    S        -9.2688   47.6762   46.9863  S     
8    O        -7.7456   46.9490   46.9550  O     
9    O       -10.3509   46.7383   46.0888  O     
10   C       -12.4772   45.7281   49.8451  C     
11   C       -11.7600   44.9117   50.7525  C     
12   C       -13.9509   45.5909   49.7220  C     
13   C       -12.4821   43.8379   51.4719  C     
14   C       -13.9166   44.2757   51.8875  C     
15   N       -14.6505   44.8509   50.7646  N     
16   C       -16.0159   44.7752   50.7141  C     
17   O       -16.7255   44.2167   51.7285  O     
18   O       -16.6924   45.2873   49.6462  O     
19   C       -18.0928   45.3944   49.3148  C     
20   C       -18.7846   44.0008   49.3779  C     
21   C       -18.7925   46.4127   50.2620  C     
22   C       -18.1241   45.9238   47.8543  C     
23   C       -13.9016   45.2165   53.0330  C     
24   O       -14.4300   44.8512   54.2259  O     
25   O       -13.4252   46.4811   52.8374  O     
26   C       -13.3569   47.5602   53.7743  C     
27   C       -14.1913   48.7788   53.2676  C     
28   C       -15.7213   48.5195   53.4393  C     
29   C       -13.7579   50.0892   53.9680  C     
30   H        -9.8547   44.5360   51.5974  H     
31   H        -8.7065   46.2570   50.3622  H     
32   H       -12.2885   47.2908   48.4248  H     
33   H        -9.1248   48.4016   49.1370  H     
34   H       -14.3753   46.6057   49.6893  H     
35   H       -14.1410   45.1116   48.7562  H     
36   H       -12.5567   42.9858   50.7884  H     
37   H       -11.9267   43.4975   52.3525  H     
38   H       -14.4101   43.3530   52.2121  H     
39   H       -18.2122   43.2782   48.7897  H     
40   H       -19.8006   44.0494   48.9821  H     
41   H       -18.8377   43.6376   50.4059  H     
42   H       -18.7518   46.0650   51.2958  H     
43   H       -19.8401   46.5403   49.9798  H     
44   H       -18.2963   47.3863   50.2103  H     
45   H       -17.5797   46.8694   47.7827  H     
46   H       -19.1496   46.0846   47.5121  H     
47   H       -17.6461   45.2078   47.1812  H     
48   H       -13.6900   47.2522   54.7748  H     
49   H       -12.3073   47.8454   53.8500  H     
50   H       -13.9973   48.8934   52.1950  H     
51   H       -16.0302   47.6419   52.8718  H     
52   H       -16.2985   49.3738   53.0667  H     
53   H       -15.9624   48.3669   54.4971  H     
54   H       -13.8243   49.9920   55.0557  H     
55   H       -14.3892   50.9240   53.6476  H     
56   H       -12.7237   50.3260   53.6962  H     
@<TRIPOS>BOND
     1    1    2 1
     2    1   11 2
     3    2    3 2
     4    3    4 1
     5    3    5 1
     6    4   10 2
     7    5    7 1
     8    6    7 1
     9    7    8 2
    10    7    9 2
    11   10   11 1
    12   10   12 1
    13   11   13 1
    14   12   15 1
    15   13   14 1
    16   14   15 1
    17   14   23 1
    18   15   16 1
    19   16   17 2
    20   16   18 1
    21   18   19 1
    22   19   20 1
    23   19   21 1
    24   19   22 1
    25   23   24 2
    26   23   25 1
    27   25   26 1
    28   26   27 1
    29   27   28 1
    30   27   29 1
    31    1   30 1
    32    2   31 1
    33    4   32 1
    34    5   33 1
    35   12   34 1
    36   12   35 1
    37   13   36 1
    38   13   37 1
    39   14   38 1
    40   20   39 1
    41   20   40 1
    42   20   41 1
    43   21   42 1
    44   21   43 1
    45   21   44 1
    46   22   45 1
    47   22   46 1
    48   22   47 1
    49   26   48 1
    50   26   49 1
    51   27   50 1
    52   28   51 1
    53   28   52 1
    54   28   53 1
    55   29   54 1
    56   29   55 1
    57   29   56 1
@<TRIPOS>PROPERTY_DATA
  Total_Score	| 11.8318
  Crash		| -1.0303
  Polar		| 5.9717
  FragIndex	| 1
  FragRMSD	| 0.114

