@<TRIPOS>MOLECULE
BindingDB_13439
 57 59 0 0 0
SMALL
NO_CHARGES


@<TRIPOS>ATOM
1    C       -10.3515   45.1234   50.8547  C     
2    C        -9.6962   46.1356   50.1366  C     
3    C       -10.4216   46.9366   49.2239  C     
4    C       -11.8082   46.7330   49.0689  C     
5    N        -9.8075   47.9473   48.5712  N     
6    O        -9.0726   49.1794   46.2261  O     
7    S        -9.2966   47.6925   46.9867  S     
8    O        -7.7797   46.9467   47.0211  O     
9    O       -10.3701   46.7424   46.0862  O     
10   C       -12.4721   45.7466   49.8290  C     
11   C       -11.7433   44.9264   50.7173  C     
12   C       -13.9492   45.5852   49.7217  C     
13   C       -12.4453   43.8360   51.4245  C     
14   C       -13.8833   44.2509   51.8563  C     
15   N       -14.6590   44.8412   50.7601  N     
16   C       -13.8614   45.1080   53.0466  C     
17   O       -14.1415   44.6172   54.1389  O     
18   N       -13.5107   46.3818   52.9550  N     
19   C       -13.4074   47.3029   54.0361  C     
20   C       -16.0166   44.7685   50.7710  C     
21   O       -16.5894   44.2497   51.7432  O     
22   C       -17.9131   46.2746   50.2199  C     
23   C       -16.9639   45.1561   49.7209  C     
24   C       -18.8515   46.8500   49.1156  C     
25   C       -20.1658   46.0431   48.8753  C     
26   C       -21.1668   46.7852   48.0593  C     
27   C       -21.0226   46.8857   46.6539  C     
28   C       -21.9491   47.6151   45.8864  C     
29   C       -23.0362   48.2533   46.5109  C     
30   C       -23.2031   48.1506   47.9017  C     
31   C       -22.2781   47.4141   48.6681  C     
32   H        -9.8023   44.5338   51.4839  H     
33   H        -8.6877   46.2670   50.2420  H     
34   H       -12.3369   47.3243   48.4145  H     
35   H        -9.2298   48.5249   49.0982  H     
36   H       -14.3787   46.5900   49.6948  H     
37   H       -14.0890   45.1001   48.7578  H     
38   H       -12.5264   43.0045   50.7211  H     
39   H       -11.8729   43.4847   52.2845  H     
40   H       -14.3428   43.2884   52.1350  H     
41   H       -13.3089   46.7295   52.0729  H     
42   H       -14.3616   47.3913   54.5602  H     
43   H       -13.1337   48.2815   53.6382  H     
44   H       -12.6342   46.9814   54.7376  H     
45   H       -18.5379   45.8870   51.0268  H     
46   H       -17.3262   47.1053   50.6233  H     
47   H       -16.5357   45.5250   48.7942  H     
48   H       -17.5293   44.2698   49.4148  H     
49   H       -19.1256   47.8690   49.4217  H     
50   H       -18.2984   46.9416   48.1679  H     
51   H       -19.9338   45.1044   48.3719  H     
52   H       -20.5883   45.7891   49.8493  H     
53   H       -20.2411   46.4249   46.1867  H     
54   H       -21.8417   47.6825   44.8701  H     
55   H       -23.7131   48.7848   45.9506  H     
56   H       -23.9969   48.6090   48.3596  H     
57   H       -22.4188   47.3635   49.6781  H     
@<TRIPOS>BOND
     1    1    2 1
     2    1   11 2
     3    2    3 2
     4    3    4 1
     5    3    5 1
     6    4   10 2
     7    5    7 1
     8    6    7 1
     9    7    8 2
    10    7    9 2
    11   10   11 1
    12   10   12 1
    13   11   13 1
    14   12   15 1
    15   13   14 1
    16   14   15 1
    17   14   16 1
    18   15   20 am
    19   16   17 2
    20   16   18 am
    21   18   19 1
    22   20   21 2
    23   20   23 1
    24   22   23 1
    25   22   24 1
    26   24   25 1
    27   25   26 1
    28   26   27 2
    29   26   31 1
    30   27   28 1
    31   28   29 2
    32   29   30 1
    33   30   31 2
    34    1   32 1
    35    2   33 1
    36    4   34 1
    37    5   35 1
    38   12   36 1
    39   12   37 1
    40   13   38 1
    41   13   39 1
    42   14   40 1
    43   18   41 1
    44   19   42 1
    45   19   43 1
    46   19   44 1
    47   22   45 1
    48   22   46 1
    49   23   47 1
    50   23   48 1
    51   24   49 1
    52   24   50 1
    53   25   51 1
    54   25   52 1
    55   27   53 1
    56   28   54 1
    57   29   55 1
    58   30   56 1
    59   31   57 1
@<TRIPOS>PROPERTY_DATA
  Total_Score	| 11.9831
  Crash		| -1.2009
  Polar		| 5.9613
  FragIndex	| 1
  FragRMSD	| 0.098

