@<TRIPOS>MOLECULE
BindingDB_13449
 61 63 0 0 0
SMALL
NO_CHARGES


@<TRIPOS>ATOM
1    C       -10.3920   45.1823   50.9979  C     
2    C        -9.7194   46.1666   50.2507  C     
3    C       -10.3958   46.8782   49.2428  C     
4    C       -11.7685   46.6546   49.0291  C     
5    N        -9.7232   47.8522   48.5863  N     
6    O       -10.3416   46.7579   46.0445  O     
7    S        -9.2708   47.6836   46.9687  S     
8    O        -9.0949   49.2119   46.2707  O     
9    O        -7.7416   46.9703   46.9433  O     
10   C       -12.4649   45.7082   49.8144  C     
11   C       -11.7660   44.9393   50.7727  C     
12   C       -13.9399   45.5556   49.6882  C     
13   C       -12.4969   43.8873   51.5202  C     
14   C       -13.9278   44.3527   51.9214  C     
15   N       -14.6486   44.9073   50.7855  N     
16   C       -16.0187   44.8588   50.7372  C     
17   O       -16.7303   44.3571   51.7681  O     
18   O       -16.6841   45.3373   49.6495  O     
19   C       -18.0768   45.4569   49.3019  C     
20   C       -18.7532   46.5266   50.2256  C     
21   C       -18.1046   45.9527   47.8329  C     
22   C       -18.7922   44.0752   49.4117  C     
23   C       -13.9197   45.2806   53.0501  C     
24   O       -14.2308   44.8543   54.1545  O     
25   N       -13.6066   46.5608   52.8792  N     
26   C       -13.5341   47.5847   53.8791  C     
27   C       -14.6065   48.7009   53.6655  C     
28   C       -14.0604   50.0574   53.3906  C     
29   C       -12.4025   51.8086   53.8622  C     
30   C       -12.9398   50.5288   54.1142  C     
31   C       -14.6570   50.9153   52.4337  C     
32   C       -14.1403   52.2045   52.1970  C     
33   C       -13.0077   52.6466   52.9074  C     
34   H        -9.8774   44.6550   51.7055  H     
35   H        -8.7276   46.3501   50.4450  H     
36   H       -12.2667   47.2083   48.3317  H     
37   H        -9.1171   48.3968   49.1254  H     
38   H       -14.3650   46.5640   49.5487  H     
39   H       -14.1227   44.9828   48.7678  H     
40   H       -12.5836   43.0227   50.8583  H     
41   H       -11.9344   43.5609   52.4048  H     
42   H       -14.4207   43.4259   52.2332  H     
43   H       -18.7310   46.2110   51.2670  H     
44   H       -19.7936   46.6803   49.9324  H     
45   H       -18.2271   47.4804   50.1390  H     
46   H       -17.5365   46.8815   47.7340  H     
47   H       -19.1319   46.1401   47.4961  H     
48   H       -17.6597   45.2031   47.1690  H     
49   H       -18.2643   43.3345   48.8004  H     
50   H       -19.8238   44.1467   49.0530  H     
51   H       -18.8055   43.7211   50.4431  H     
52   H       -13.4197   46.8387   51.9711  H     
53   H       -13.6531   47.1646   54.8809  H     
54   H       -12.5278   47.9965   53.8285  H     
55   H       -15.2966   48.4044   52.8676  H     
56   H       -15.2105   48.7709   54.5752  H     
57   H       -11.5803   52.1314   54.3715  H     
58   H       -12.4937   49.9208   54.8062  H     
59   H       -15.4650   50.6085   51.8945  H     
60   H       -14.5817   52.8153   51.5041  H     
61   H       -12.6311   53.5819   52.7292  H     
@<TRIPOS>BOND
     1    1    2 1
     2    1   11 2
     3    2    3 2
     4    3    4 1
     5    3    5 1
     6    4   10 2
     7    5    7 1
     8    6    7 1
     9    7    8 2
    10    7    9 2
    11   10   11 1
    12   10   12 1
    13   11   13 1
    14   12   15 1
    15   13   14 1
    16   14   15 1
    17   14   23 1
    18   15   16 1
    19   16   17 2
    20   16   18 1
    21   18   19 1
    22   19   20 1
    23   19   21 1
    24   19   22 1
    25   23   24 2
    26   23   25 am
    27   25   26 1
    28   26   27 1
    29   27   28 1
    30   28   30 2
    31   28   31 1
    32   29   30 1
    33   29   33 2
    34   31   32 2
    35   32   33 1
    36    1   34 1
    37    2   35 1
    38    4   36 1
    39    5   37 1
    40   12   38 1
    41   12   39 1
    42   13   40 1
    43   13   41 1
    44   14   42 1
    45   20   43 1
    46   20   44 1
    47   20   45 1
    48   21   46 1
    49   21   47 1
    50   21   48 1
    51   22   49 1
    52   22   50 1
    53   22   51 1
    54   25   52 1
    55   26   53 1
    56   26   54 1
    57   27   55 1
    58   27   56 1
    59   29   57 1
    60   30   58 1
    61   31   59 1
    62   32   60 1
    63   33   61 1
@<TRIPOS>PROPERTY_DATA
  Total_Score	| 12.0740
  Crash		| -1.4660
  Polar		| 5.9944
  FragIndex	| 1
  FragRMSD	| 0.863

