@<TRIPOS>MOLECULE
BindingDB_13447
 45 46 0 0 0
SMALL
NO_CHARGES


@<TRIPOS>ATOM
1    C       -10.3723   45.1181   50.9312  C     
2    C        -9.7095   46.1120   50.2047  C     
3    C       -10.4000   46.8997   49.2650  C     
4    C       -11.7903   46.7081   49.0993  C     
5    N        -9.7492   47.8656   48.5963  N     
6    O        -7.7634   46.9444   46.9638  O     
7    S        -9.2819   47.6800   46.9820  S     
8    O       -10.3716   46.7355   46.0965  O     
9    O        -9.0772   49.1861   46.2549  O     
10   C       -12.4798   45.7474   49.8678  C     
11   C       -11.7694   44.9126   50.7626  C     
12   C       -13.9572   45.6189   49.7648  C     
13   C       -12.4978   43.8155   51.4505  C     
14   C       -13.9055   44.2795   51.9157  C     
15   N       -14.6475   44.8701   50.8085  N     
16   C       -16.0169   44.7694   50.7536  C     
17   O       -16.7422   44.2132   51.7492  O     
18   O       -16.6866   45.2502   49.6662  O     
19   C       -18.0731   45.3447   49.2950  C     
20   C       -18.8058   46.3693   50.2152  C     
21   C       -18.0284   45.8774   47.8422  C     
22   C       -18.7785   43.9531   49.3070  C     
23   C       -13.8665   45.2283   53.1411  C     
24   O       -13.5491   44.5329   54.3404  O     
25   H        -9.8468   44.5363   51.5936  H     
26   H        -8.7003   46.2472   50.3423  H     
27   H       -12.3106   47.2969   48.4418  H     
28   H        -9.1825   48.4699   49.1261  H     
29   H       -14.3767   46.6352   49.7482  H     
30   H       -14.1584   45.1506   48.7953  H     
31   H       -12.6199   43.0127   50.7163  H     
32   H       -11.9172   43.4051   52.2789  H     
33   H       -14.4150   43.3678   52.2419  H     
34   H       -18.9090   45.9784   51.2286  H     
35   H       -19.8008   46.5957   49.8254  H     
36   H       -18.2330   47.3047   50.2583  H     
37   H       -17.4618   46.8199   47.7886  H     
38   H       -19.0324   46.0665   47.4518  H     
39   H       -17.5335   45.1535   47.1798  H     
40   H       -18.1887   43.2365   48.7436  H     
41   H       -19.7713   44.0265   48.8468  H     
42   H       -18.8921   43.5896   50.3297  H     
43   H       -13.1203   46.0269   53.0047  H     
44   H       -14.8402   45.7046   53.2894  H     
45   H       -12.6144   44.2423   54.2544  H     
@<TRIPOS>BOND
     1    1    2 1
     2    1   11 2
     3    2    3 2
     4    3    4 1
     5    3    5 1
     6    4   10 2
     7    5    7 1
     8    6    7 1
     9    7    8 2
    10    7    9 2
    11   10   11 1
    12   10   12 1
    13   11   13 1
    14   12   15 1
    15   13   14 1
    16   14   15 1
    17   14   23 1
    18   15   16 1
    19   16   17 2
    20   16   18 1
    21   18   19 1
    22   19   20 1
    23   19   21 1
    24   19   22 1
    25   23   24 1
    26    1   25 1
    27    2   26 1
    28    4   27 1
    29    5   28 1
    30   12   29 1
    31   12   30 1
    32   13   31 1
    33   13   32 1
    34   14   33 1
    35   20   34 1
    36   20   35 1
    37   20   36 1
    38   21   37 1
    39   21   38 1
    40   21   39 1
    41   22   40 1
    42   22   41 1
    43   22   42 1
    44   23   43 1
    45   23   44 1
    46   24   45 1
@<TRIPOS>PROPERTY_DATA
  Total_Score	| 11.0716
  Crash		| -0.9801
  Polar		| 5.9591
  FragIndex	| 1
  FragRMSD	| 0.826

