@<TRIPOS>MOLECULE
BindingDB_13455
 54 56 0 0 0
SMALL
NO_CHARGES


@<TRIPOS>ATOM
1    C       -10.4199   45.0658   50.8692  C     
2    C        -9.7463   46.0744   50.1596  C     
3    C       -10.4406   46.8829   49.2342  C     
4    C       -11.8319   46.7104   49.0713  C     
5    N        -9.7613   47.8573   48.5854  N     
6    O        -9.0929   49.1854   46.2664  O     
7    S        -9.3118   47.6674   46.9708  S     
8    O        -7.8027   46.9077   46.9534  O     
9    O       -10.4138   46.7596   46.0612  O     
10   C       -12.5303   45.7340   49.8238  C     
11   C       -11.8090   44.8864   50.6976  C     
12   C       -14.0160   45.6308   49.7372  C     
13   C       -12.5274   43.7847   51.3649  C     
14   C       -13.9618   44.1996   51.8055  C     
15   N       -14.7314   44.8491   50.7364  N     
16   C       -13.9747   45.0132   53.0235  C     
17   O       -14.4278   44.5275   54.0563  O     
18   N       -13.5490   46.2720   53.0031  N     
19   C       -13.5294   47.1657   54.1157  C     
20   C       -16.0865   44.7486   50.7092  C     
21   O       -16.6372   44.0310   51.5397  O     
22   C       -17.0018   45.2605   49.6817  C     
23   C       -18.3269   45.8857   50.2345  C     
24   C       -19.4043   46.2957   49.2824  C     
25   C       -20.3842   46.5415   47.0400  C     
26   C       -19.2891   46.2363   47.8727  C     
27   C       -20.6504   46.7078   49.8254  C     
28   C       -21.7495   47.0074   48.9923  C     
29   C       -21.6305   46.9254   47.5882  C     
30   C       -22.7750   47.1901   46.6834  C     
31   H        -9.8866   44.4643   51.5033  H     
32   H        -8.7420   46.2020   50.3077  H     
33   H       -12.3459   47.3214   48.4288  H     
34   H        -9.1477   48.3832   49.1287  H     
35   H       -14.3988   46.6527   49.7923  H     
36   H       -14.2365   45.2242   48.7518  H     
37   H       -12.6077   42.9733   50.6328  H     
38   H       -11.9632   43.3988   52.2235  H     
39   H       -14.4235   43.2312   52.0375  H     
40   H       -13.2153   46.6246   52.1637  H     
41   H       -14.5409   47.3090   54.5066  H     
42   H       -13.1339   48.1325   53.7869  H     
43   H       -12.8886   46.7649   54.9066  H     
44   H       -16.5277   46.0260   49.0612  H     
45   H       -17.2475   44.4089   49.0393  H     
46   H       -18.7852   45.1600   50.9072  H     
47   H       -18.0491   46.7604   50.8277  H     
48   H       -20.2698   46.4655   46.0308  H     
49   H       -18.4207   45.9404   47.4193  H     
50   H       -20.7684   46.7606   50.8406  H     
51   H       -22.6387   47.2775   49.4203  H     
52   H       -22.5267   48.0061   45.9997  H     
53   H       -23.6766   47.4796   47.2288  H     
54   H       -22.9916   46.2859   46.1022  H     
@<TRIPOS>BOND
     1    1    2 1
     2    1   11 2
     3    2    3 2
     4    3    4 1
     5    3    5 1
     6    4   10 2
     7    5    7 1
     8    6    7 1
     9    7    8 2
    10    7    9 2
    11   10   11 1
    12   10   12 1
    13   11   13 1
    14   12   15 1
    15   13   14 1
    16   14   15 1
    17   14   16 1
    18   15   20 am
    19   16   17 2
    20   16   18 am
    21   18   19 1
    22   20   21 2
    23   20   22 1
    24   22   23 1
    25   23   24 1
    26   24   26 2
    27   24   27 1
    28   25   26 1
    29   25   29 2
    30   27   28 2
    31   28   29 1
    32   29   30 1
    33    1   31 1
    34    2   32 1
    35    4   33 1
    36    5   34 1
    37   12   35 1
    38   12   36 1
    39   13   37 1
    40   13   38 1
    41   14   39 1
    42   18   40 1
    43   19   41 1
    44   19   42 1
    45   19   43 1
    46   22   44 1
    47   22   45 1
    48   23   46 1
    49   23   47 1
    50   25   48 1
    51   26   49 1
    52   27   50 1
    53   28   51 1
    54   30   52 1
    55   30   53 1
    56   30   54 1
@<TRIPOS>PROPERTY_DATA
  Total_Score	| 10.7627
  Crash		| -1.3725
  Polar		| 5.9836
  FragIndex	| 1
  FragRMSD	| 0.509

