@<TRIPOS>MOLECULE
BindingDB_13436
 54 56 0 0 0
SMALL
NO_CHARGES


@<TRIPOS>ATOM
1    C       -10.3669   45.1830   50.9816  C     
2    C        -9.6974   46.1839   50.2581  C     
3    C       -10.3911   46.9448   49.2941  C     
4    C       -11.7719   46.7321   49.1003  C     
5    N        -9.7236   47.9079   48.6179  N     
6    O       -10.4102   46.6842   46.1823  O     
7    S        -9.3125   47.6649   47.0076  S     
8    O        -9.1812   49.1534   46.2318  O     
9    O        -7.7866   46.9463   46.9535  O     
10   C       -12.4639   45.7610   49.8552  C     
11   C       -11.7523   44.9625   50.7823  C     
12   C       -13.9292   45.6161   49.7107  C     
13   C       -12.4736   43.8613   51.4417  C     
14   C       -13.9448   44.2326   51.8133  C     
15   N       -14.6797   44.8632   50.7122  N     
16   C       -14.0082   45.0670   53.0133  C     
17   O       -14.4767   44.5964   54.0410  O     
18   N       -13.5819   46.3222   52.9856  N     
19   C       -13.6284   47.2455   54.0713  C     
20   C       -16.0326   44.8250   50.5887  C     
21   O       -16.5615   45.3736   49.6313  O     
22   C       -16.9960   44.0865   51.4186  C     
23   C       -18.3589   44.7745   51.7602  C     
24   C       -19.6027   44.4297   50.8908  C     
25   C       -19.7654   45.1695   49.6107  C     
26   C       -20.6077   46.3049   49.5346  C     
27   C       -19.1711   44.6908   48.4211  C     
28   C       -19.3750   45.3573   47.1982  C     
29   C       -20.2324   46.4694   47.1358  C     
30   C       -20.8505   46.9441   48.3045  C     
31   H        -9.8454   44.6241   51.6559  H     
32   H        -8.6933   46.3317   50.4074  H     
33   H       -12.2749   47.3143   48.4163  H     
34   H        -9.1004   48.4577   49.1308  H     
35   H       -14.3379   46.6331   49.6796  H     
36   H       -14.0863   45.1508   48.7342  H     
37   H       -12.4994   43.0335   50.7258  H     
38   H       -11.9357   43.5052   52.3248  H     
39   H       -14.3862   43.2577   52.0199  H     
40   H       -13.2206   46.6548   52.1556  H     
41   H       -14.6621   47.4138   54.3854  H     
42   H       -13.2023   48.1952   53.7486  H     
43   H       -13.0472   46.8687   54.9168  H     
44   H       -17.1797   43.1333   50.9190  H     
45   H       -16.5470   43.8415   52.3795  H     
46   H       -18.6250   44.4610   52.7719  H     
47   H       -18.2300   45.8662   51.8081  H     
48   H       -19.6306   43.3536   50.6969  H     
49   H       -20.4863   44.6266   51.4985  H     
50   H       -21.0692   46.6710   50.3723  H     
51   H       -18.5771   43.8596   48.4403  H     
52   H       -18.9077   45.0268   46.3534  H     
53   H       -20.4069   46.9363   46.2424  H     
54   H       -21.4798   47.7516   48.2612  H     
@<TRIPOS>BOND
     1    1    2 1
     2    1   11 2
     3    2    3 2
     4    3    4 1
     5    3    5 1
     6    4   10 2
     7    5    7 1
     8    6    7 1
     9    7    8 2
    10    7    9 2
    11   10   11 1
    12   10   12 1
    13   11   13 1
    14   12   15 1
    15   13   14 1
    16   14   15 1
    17   14   16 1
    18   15   20 am
    19   16   17 2
    20   16   18 am
    21   18   19 1
    22   20   21 2
    23   20   22 1
    24   22   23 1
    25   23   24 1
    26   24   25 1
    27   25   26 1
    28   25   27 2
    29   26   30 2
    30   27   28 1
    31   28   29 2
    32   29   30 1
    33    1   31 1
    34    2   32 1
    35    4   33 1
    36    5   34 1
    37   12   35 1
    38   12   36 1
    39   13   37 1
    40   13   38 1
    41   14   39 1
    42   18   40 1
    43   19   41 1
    44   19   42 1
    45   19   43 1
    46   22   44 1
    47   22   45 1
    48   23   46 1
    49   23   47 1
    50   24   48 1
    51   24   49 1
    52   26   50 1
    53   27   51 1
    54   28   52 1
    55   29   53 1
    56   30   54 1
@<TRIPOS>PROPERTY_DATA
  Total_Score	| 11.7237
  Crash		| -1.4386
  Polar		| 5.9866
  FragIndex	| 1
  FragRMSD	| 0.864

