@<TRIPOS>MOLECULE
BindingDB_13450
 47 48 0 0 0
SMALL
NO_CHARGES


@<TRIPOS>ATOM
1    C       -10.3595   45.0453   50.9076  C     
2    C        -9.6871   46.0477   50.1890  C     
3    C       -10.3818   46.8432   49.2579  C     
4    C       -11.7694   46.6639   49.0828  C     
5    N        -9.7126   47.8207   48.6122  N     
6    O        -9.1259   49.2036   46.3027  O     
7    S        -9.2768   47.6685   46.9897  S     
8    O        -7.7430   46.9588   46.9584  O     
9    O       -10.3530   46.7374   46.0776  O     
10   C       -12.4631   45.6899   49.8334  C     
11   C       -11.7472   44.8555   50.7248  C     
12   C       -13.9425   45.5820   49.7298  C     
13   C       -12.4910   43.8245   51.4822  C     
14   C       -13.8826   44.3615   51.9414  C     
15   N       -14.6286   44.8600   50.7933  N     
16   C       -15.9937   44.7695   50.7397  C     
17   O       -16.7004   44.2204   51.7632  O     
18   O       -16.6770   45.2699   49.6695  O     
19   C       -18.0743   45.3953   49.3494  C     
20   C       -18.7936   44.0144   49.4190  C     
21   C       -18.7500   46.4332   50.2970  C     
22   C       -18.1141   45.9275   47.8869  C     
23   C       -13.8248   45.4094   52.9930  C     
24   O       -14.8968   45.5880   53.8013  O     
25   O       -12.7223   46.1981   53.1243  O     
26   C       -12.5467   47.2800   54.0388  C     
27   H        -9.8389   44.4740   51.5759  H     
28   H        -8.6840   46.1816   50.3386  H     
29   H       -12.2866   47.2740   48.4383  H     
30   H        -9.1048   48.3473   49.1526  H     
31   H       -14.3525   46.6005   49.6993  H     
32   H       -14.1620   45.0973   48.7711  H     
33   H       -12.6424   42.9769   50.8079  H     
34   H       -11.9242   43.4649   52.3446  H     
35   H       -14.3899   43.5007   52.3833  H     
36   H       -18.2533   43.2872   48.8076  H     
37   H       -19.8191   44.0907   49.0540  H     
38   H       -18.8251   43.6364   50.4427  H     
39   H       -18.7181   46.0864   51.3314  H     
40   H       -19.7956   46.5852   50.0203  H     
41   H       -18.2239   47.3911   50.2426  H     
42   H       -17.5374   46.8534   47.8062  H     
43   H       -19.1382   46.1241   47.5634  H     
44   H       -17.6709   45.1943   47.2091  H     
45   H       -13.2860   48.0643   53.8505  H     
46   H       -11.5469   47.6989   53.9012  H     
47   H       -12.6416   46.9220   55.0673  H     
@<TRIPOS>BOND
     1    1    2 1
     2    1   11 2
     3    2    3 2
     4    3    4 1
     5    3    5 1
     6    4   10 2
     7    5    7 1
     8    6    7 1
     9    7    8 2
    10    7    9 2
    11   10   11 1
    12   10   12 1
    13   11   13 1
    14   12   15 1
    15   13   14 1
    16   14   15 1
    17   14   23 1
    18   15   16 1
    19   16   17 2
    20   16   18 1
    21   18   19 1
    22   19   20 1
    23   19   21 1
    24   19   22 1
    25   23   24 2
    26   23   25 1
    27   25   26 1
    28    1   27 1
    29    2   28 1
    30    4   29 1
    31    5   30 1
    32   12   31 1
    33   12   32 1
    34   13   33 1
    35   13   34 1
    36   14   35 1
    37   20   36 1
    38   20   37 1
    39   20   38 1
    40   21   39 1
    41   21   40 1
    42   21   41 1
    43   22   42 1
    44   22   43 1
    45   22   44 1
    46   26   45 1
    47   26   46 1
    48   26   47 1
@<TRIPOS>PROPERTY_DATA
  Total_Score	| 11.4113
  Crash		| -1.0147
  Polar		| 5.9701
  FragIndex	| 1
  FragRMSD	| 0.266

