@<TRIPOS>MOLECULE
BindingDB_13444
 49 51 0 0 0
SMALL
NO_CHARGES


@<TRIPOS>ATOM
1    C       -10.3630   45.0808   50.8200  C     
2    C        -9.7332   46.1102   50.1025  C     
3    C       -10.4755   46.9153   49.2176  C     
4    C       -11.8697   46.7206   49.1073  C     
5    N        -9.8397   47.8969   48.5379  N     
6    O        -7.7714   47.0040   46.9970  O     
7    S        -9.3341   47.6402   46.9503  S     
8    O       -10.3381   46.5876   46.0891  O     
9    O        -9.2269   49.1177   46.1454  O     
10   C       -12.5226   45.7242   49.8716  C     
11   C       -11.7528   44.8697   50.6937  C     
12   C       -14.0098   45.6247   49.8778  C     
13   C       -12.4287   43.7471   51.3784  C     
14   C       -13.8187   44.1570   51.9414  C     
15   N       -14.6281   44.9038   50.9831  N     
16   C       -13.6916   44.8902   53.2025  C     
17   O       -13.9755   44.3211   54.2495  O     
18   N       -13.3050   46.1605   53.2088  N     
19   C       -13.1486   46.9736   54.3670  C     
20   C       -15.9790   45.0210   51.1853  C     
21   O       -16.5891   44.3678   52.2023  O     
22   C       -18.1015   46.2624   50.5918  C     
23   C       -18.8964   46.2349   49.3414  C     
24   C       -20.1934   46.8019   49.3472  C     
25   C       -20.9760   46.8228   48.1787  C     
26   C       -20.4763   46.2644   46.9903  C     
27   C       -19.1969   45.6811   46.9744  C     
28   C       -18.4078   45.6728   48.1378  C     
29   O       -16.7237   45.8856   50.4417  O     
30   H        -9.8015   44.4881   51.4337  H     
31   H        -8.7248   46.2511   50.2084  H     
32   H       -12.4167   47.3359   48.4985  H     
33   H        -9.2654   48.4773   49.0612  H     
34   H       -14.3881   46.6492   49.8807  H     
35   H       -14.3179   45.1525   48.9466  H     
36   H       -12.5803   42.9652   50.6295  H     
37   H       -11.8068   43.3159   52.1673  H     
38   H       -14.3216   43.2009   52.1388  H     
39   H       -13.1154   46.5804   52.3550  H     
40   H       -14.0817   47.0372   54.9278  H     
41   H       -12.8623   47.9776   54.0552  H     
42   H       -12.3656   46.5649   55.0066  H     
43   H       -18.0961   47.2889   50.9662  H     
44   H       -18.6027   45.6387   51.3367  H     
45   H       -20.5755   47.2096   50.2046  H     
46   H       -21.9090   47.2417   48.1956  H     
47   H       -21.0448   46.2792   46.1405  H     
48   H       -18.8347   45.2673   46.1146  H     
49   H       -17.4777   45.2506   48.0951  H     
@<TRIPOS>BOND
     1    1    2 1
     2    1   11 2
     3    2    3 2
     4    3    4 1
     5    3    5 1
     6    4   10 2
     7    5    7 1
     8    6    7 1
     9    7    8 2
    10    7    9 2
    11   10   11 1
    12   10   12 1
    13   11   13 1
    14   12   15 1
    15   13   14 1
    16   14   15 1
    17   14   16 1
    18   15   20 1
    19   16   17 2
    20   16   18 am
    21   18   19 1
    22   20   21 2
    23   20   29 1
    24   22   23 1
    25   22   29 1
    26   23   24 2
    27   23   28 1
    28   24   25 1
    29   25   26 2
    30   26   27 1
    31   27   28 2
    32    1   30 1
    33    2   31 1
    34    4   32 1
    35    5   33 1
    36   12   34 1
    37   12   35 1
    38   13   36 1
    39   13   37 1
    40   14   38 1
    41   18   39 1
    42   19   40 1
    43   19   41 1
    44   19   42 1
    45   22   43 1
    46   22   44 1
    47   24   45 1
    48   25   46 1
    49   26   47 1
    50   27   48 1
    51   28   49 1
@<TRIPOS>PROPERTY_DATA
  Total_Score	| 11.0130
  Crash		| -1.2570
  Polar		| 6.0211
  FragIndex	| 1
  FragRMSD	| 0.940

