@<TRIPOS>MOLECULE
BindingDB_13438
 43 44 0 0 0
SMALL
NO_CHARGES


@<TRIPOS>ATOM
1    C       -10.3152   45.1325   50.8706  C     
2    C        -9.6733   46.1177   50.1142  C     
3    C       -10.4101   46.9266   49.2340  C     
4    C       -11.8088   46.7513   49.1331  C     
5    N        -9.7865   47.8975   48.5518  N     
6    O        -9.1242   49.1780   46.1934  O     
7    S        -9.3246   47.6784   46.9436  S     
8    O        -7.7956   46.9417   46.9498  O     
9    O       -10.3905   46.7061   46.0573  O     
10   C       -12.4676   45.7778   49.9246  C     
11   C       -11.7096   44.9555   50.7890  C     
12   C       -13.9535   45.6453   49.8437  C     
13   C       -12.3843   43.8809   51.5368  C     
14   C       -13.8742   44.1964   51.8888  C     
15   N       -14.6561   44.8058   50.7996  N     
16   C       -13.9650   45.0212   53.0997  C     
17   O       -14.3908   44.5128   54.1338  O     
18   N       -13.5737   46.2934   53.0925  N     
19   C       -13.5746   47.1854   54.2067  C     
20   C       -16.0184   44.7330   50.7843  C     
21   O       -16.5701   44.0577   51.6449  O     
22   C       -18.0441   44.6352   49.1831  C     
23   C       -16.9639   45.4927   49.9129  C     
24   C       -17.9876   44.7247   47.7066  C     
25   O       -18.9343   45.3973   47.0152  O     
26   O       -17.0495   44.0627   46.9935  O     
27   H        -9.7600   44.5326   51.4785  H     
28   H        -8.6581   46.2218   50.1650  H     
29   H       -12.3694   47.3721   48.5300  H     
30   H        -9.2626   48.5454   49.0652  H     
31   H       -14.3349   46.6609   49.9588  H     
32   H       -14.1604   45.2961   48.8252  H     
33   H       -12.3516   42.9957   50.8910  H     
34   H       -11.8330   43.6294   52.4501  H     
35   H       -14.3034   43.2079   52.1020  H     
36   H       -13.2485   46.6564   52.2539  H     
37   H       -14.5752   47.2831   54.6283  H     
38   H       -13.2354   48.1650   53.8713  H     
39   H       -12.8869   46.8239   54.9769  H     
40   H       -17.9625   43.5890   49.4892  H     
41   H       -19.0003   45.0052   49.5101  H     
42   H       -17.4721   46.2288   50.5535  H     
43   H       -16.4379   46.0766   49.1236  H     
@<TRIPOS>BOND
     1    1    2 1
     2    1   11 2
     3    2    3 2
     4    3    4 1
     5    3    5 1
     6    4   10 2
     7    5    7 1
     8    6    7 1
     9    7    8 2
    10    7    9 2
    11   10   11 1
    12   10   12 1
    13   11   13 1
    14   12   15 1
    15   13   14 1
    16   14   15 1
    17   14   16 1
    18   15   20 am
    19   16   17 2
    20   16   18 am
    21   18   19 1
    22   20   21 2
    23   20   23 1
    24   22   23 1
    25   22   24 1
    26   24   25 2
    27   24   26 1
    28    1   27 1
    29    2   28 1
    30    4   29 1
    31    5   30 1
    32   12   31 1
    33   12   32 1
    34   13   33 1
    35   13   34 1
    36   14   35 1
    37   18   36 1
    38   19   37 1
    39   19   38 1
    40   19   39 1
    41   22   40 1
    42   22   41 1
    43   23   42 1
    44   23   43 1
@<TRIPOS>PROPERTY_DATA
  Total_Score	| 10.1069
  Crash		| -1.2441
  Polar		| 5.9723
  FragIndex	| 1
  FragRMSD	| 0.146

