@<TRIPOS>MOLECULE
BindingDB_13435
 45 47 0 0 0
SMALL
NO_CHARGES


@<TRIPOS>ATOM
1    C       -10.4541   45.0202   50.8992  C     
2    C        -9.7918   46.0140   50.1597  C     
3    C       -10.5044   46.8118   49.2435  C     
4    C       -11.8991   46.6343   49.1082  C     
5    N        -9.8405   47.7921   48.5881  N     
6    O        -7.7840   47.0397   46.9637  O     
7    S        -9.3740   47.6062   46.9794  S     
8    O       -10.3561   46.5419   46.1085  O     
9    O        -9.3529   49.1111   46.2188  O     
10   C       -12.5865   45.6741   49.8895  C     
11   C       -11.8491   44.8456   50.7662  C     
12   C       -14.0769   45.6147   49.8768  C     
13   C       -12.5693   43.7986   51.5175  C     
14   C       -13.9549   44.2965   52.0233  C     
15   N       -14.7633   44.9186   50.9645  N     
16   C       -13.8454   45.1560   53.2034  C     
17   O       -14.0681   44.6730   54.3109  O     
18   N       -13.5145   46.4336   53.0783  N     
19   C       -13.3807   47.3613   54.1503  C     
20   C       -16.1187   44.8632   51.0409  C     
21   O       -16.6260   44.5210   52.1063  O     
22   C       -17.0587   45.0062   50.0053  C     
23   C       -18.1232   44.0650   49.9232  C     
24   C       -19.1086   44.1489   48.9251  C     
25   C       -19.0564   45.1807   47.9744  C     
26   C       -18.0468   46.1538   48.0609  C     
27   C       -17.0713   46.0747   49.0715  C     
28   H        -9.9131   44.4348   51.5407  H     
29   H        -8.7827   46.1392   50.2811  H     
30   H       -12.4244   47.2472   48.4778  H     
31   H        -9.2446   48.3385   49.1268  H     
32   H       -14.3989   46.6595   49.9277  H     
33   H       -14.3748   45.1846   48.9169  H     
34   H       -12.7309   42.9663   50.8260  H     
35   H       -11.9738   43.4165   52.3526  H     
36   H       -14.4487   43.3617   52.3265  H     
37   H       -13.3593   46.7741   52.1827  H     
38   H       -14.3233   47.4563   54.6953  H     
39   H       -13.1103   48.3364   53.7439  H     
40   H       -12.5955   47.0373   54.8372  H     
41   H       -18.1850   43.2933   50.5937  H     
42   H       -19.8774   43.4745   48.9076  H     
43   H       -19.7643   45.2373   47.2400  H     
44   H       -18.0286   46.9317   47.3962  H     
45   H       -16.4021   46.8377   49.1248  H     
@<TRIPOS>BOND
     1    1    2 1
     2    1   11 2
     3    2    3 2
     4    3    4 1
     5    3    5 1
     6    4   10 2
     7    5    7 1
     8    6    7 1
     9    7    8 2
    10    7    9 2
    11   10   11 1
    12   10   12 1
    13   11   13 1
    14   12   15 1
    15   13   14 1
    16   14   15 1
    17   14   16 1
    18   15   20 1
    19   16   17 2
    20   16   18 am
    21   18   19 1
    22   20   21 2
    23   20   22 1
    24   22   23 2
    25   22   27 1
    26   23   24 1
    27   24   25 2
    28   25   26 1
    29   26   27 2
    30    1   28 1
    31    2   29 1
    32    4   30 1
    33    5   31 1
    34   12   32 1
    35   12   33 1
    36   13   34 1
    37   13   35 1
    38   14   36 1
    39   18   37 1
    40   19   38 1
    41   19   39 1
    42   19   40 1
    43   23   41 1
    44   24   42 1
    45   25   43 1
    46   26   44 1
    47   27   45 1
@<TRIPOS>PROPERTY_DATA
  Total_Score	| 10.7366
  Crash		| -1.4582
  Polar		| 6.0399
  FragIndex	| 1
  FragRMSD	| 0.867

