@<TRIPOS>MOLECULE
BindingDB_50192373
 40 44 0 0 0
SMALL
NO_CHARGES


@<TRIPOS>ATOM
1    C         6.9427   55.7784   22.2520  C     
2    C         6.0714   55.3303   21.2366  C     
3    C         4.8126   54.7868   21.5698  C     
4    C         6.5619   55.6909   23.6110  C     
5    C         5.3012   55.1523   23.9465  C     
6    C         4.4516   54.7109   22.9252  C     
7    N         3.3223   54.2323   23.4643  N     
8    C         4.6184   54.9239   25.1532  C     
9    C         3.3934   54.3349   24.8064  C     
10   C         2.4251   53.9317   25.7613  C     
11   C         2.7148   54.1577   27.1474  C     
12   C         4.8927   55.1379   26.5206  C     
13   C         3.9544   54.7657   27.4957  C     
14   C         4.5298   55.0872   28.7052  C     
15   N         5.7093   55.6149   28.4834  N     
16   C         5.9626   55.6591   27.1960  C     
17   O         4.0949   54.9203   29.8354  O     
18   O         7.0108   56.0911   26.7452  O     
19   O         8.1421   56.3081   21.9066  O     
20   C         1.8084   53.7882   28.1750  C     
21   C         1.2628   54.7615   29.0452  C     
22   C         0.3764   54.3899   30.0753  C     
23   C        -0.0105   53.0447   30.2166  C     
24   C         0.5093   52.0718   29.3435  C     
25   C         1.4342   52.4342   28.3493  C     
26   C         1.1724   53.3178   25.2294  C     
27   H         6.3506   55.3941   20.2580  H     
28   H         4.1777   54.4588   20.8400  H     
29   H         7.2010   56.0280   24.3251  H     
30   H         2.5773   53.8631   22.9636  H     
31   H         6.3118   55.9276   29.1791  H     
32   H         8.7696   55.9874   22.5831  H     
33   H         1.5233   55.7467   28.9542  H     
34   H         0.0155   55.0927   30.7241  H     
35   H        -0.6692   52.7735   30.9513  H     
36   H         0.1997   51.1027   29.4227  H     
37   H         1.8030   51.7044   27.7337  H     
38   H         0.6812   54.0182   24.5483  H     
39   H         0.4420   53.0594   25.9946  H     
40   H         1.4184   52.4045   24.6827  H     
@<TRIPOS>BOND
     1    1    2 2
     2    1    4 1
     3    1   19 1
     4    2    3 1
     5    3    6 2
     6    4    5 2
     7    5    6 1
     8    5    8 1
     9    6    7 1
    10    7    9 1
    11    8    9 2
    12    8   12 1
    13    9   10 1
    14   10   11 2
    15   10   26 1
    16   11   13 1
    17   11   20 1
    18   12   13 2
    19   12   16 1
    20   13   14 1
    21   14   15 1
    22   14   17 2
    23   15   16 1
    24   16   18 2
    25   20   21 2
    26   20   25 1
    27   21   22 1
    28   22   23 2
    29   23   24 1
    30   24   25 2
    31    2   27 1
    32    3   28 1
    33    4   29 1
    34    7   30 1
    35   15   31 1
    36   19   32 1
    37   21   33 1
    38   22   34 1
    39   23   35 1
    40   24   36 1
    41   25   37 1
    42   26   38 1
    43   26   39 1
    44   26   40 1
@<TRIPOS>PROPERTY_DATA
  Total_Score	| 10.1055
  Crash		| -0.7804
  Polar		| 5.1217
  FragIndex	| 1
  FragRMSD	| 0.196

