@<TRIPOS>MOLECULE
BindingDB_50192384
 38 42 0 0 0
SMALL
NO_CHARGES


@<TRIPOS>ATOM
1    C         6.7888   55.8384   22.3974  C     
2    C         5.9098   55.3692   21.3970  C     
3    C         4.6706   54.7979   21.7466  C     
4    C         6.4308   55.7363   23.7612  C     
5    C         5.1885   55.1671   24.1150  C     
6    C         4.3258   54.7174   23.1058  C     
7    N         3.1970   54.2486   23.6572  N     
8    C         4.5232   54.9408   25.3311  C     
9    C         3.2867   54.3732   24.9913  C     
10   C         2.3365   54.0068   25.9610  C     
11   C         2.6143   54.2106   27.3379  C     
12   C         4.8133   55.1364   26.6999  C     
13   C         3.8722   54.7827   27.6822  C     
14   C         4.4728   55.0570   28.8876  C     
15   N         5.6722   55.5400   28.6572  N     
16   C         5.9099   55.6022   27.3675  C     
17   O         4.0402   54.8593   30.0129  O     
18   O         6.9765   55.9680   26.9017  O     
19   O         7.9626   56.4150   22.0304  O     
20   C         1.6601   53.7964   28.3091  C     
21   C         1.2020   54.6731   29.3231  C     
22   C         0.2959   54.2309   30.3089  C     
23   C        -0.1932   52.9116   30.2669  C     
24   C         0.2214   52.0444   29.2436  C     
25   C         1.1462   52.4786   28.2786  C     
26   O        -0.0908   55.0811   31.2957  O     
27   H         6.1689   55.4483   20.4111  H     
28   H         4.0271   54.4651   21.0257  H     
29   H         7.0654   56.0984   24.4687  H     
30   H         2.4387   53.8867   23.1723  H     
31   H         1.4489   53.5983   25.6566  H     
32   H         6.3065   55.8005   29.3443  H     
33   H         8.6359   56.0723   22.6543  H     
34   H         1.5304   55.6420   29.3521  H     
35   H        -0.8530   52.5808   30.9743  H     
36   H        -0.1435   51.0915   29.2059  H     
37   H         1.4500   51.8184   27.5573  H     
38   H        -0.4673   54.5211   32.0087  H     
@<TRIPOS>BOND
     1    1    2 2
     2    1    4 1
     3    1   19 1
     4    2    3 1
     5    3    6 2
     6    4    5 2
     7    5    6 1
     8    5    8 1
     9    6    7 1
    10    7    9 1
    11    8    9 2
    12    8   12 1
    13    9   10 1
    14   10   11 2
    15   11   13 1
    16   11   20 1
    17   12   13 2
    18   12   16 1
    19   13   14 1
    20   14   15 1
    21   14   17 2
    22   15   16 1
    23   16   18 2
    24   20   21 2
    25   20   25 1
    26   21   22 1
    27   22   23 2
    28   22   26 1
    29   23   24 1
    30   24   25 2
    31    2   27 1
    32    3   28 1
    33    4   29 1
    34    7   30 1
    35   10   31 1
    36   15   32 1
    37   19   33 1
    38   21   34 1
    39   23   35 1
    40   24   36 1
    41   25   37 1
    42   26   38 1
@<TRIPOS>PROPERTY_DATA
  Total_Score	| 10.5036
  Crash		| -0.6754
  Polar		| 5.5867
  FragIndex	| 1
  FragRMSD	| 0.086

