@<TRIPOS>MOLECULE
BindingDB_50192420
 39 43 0 0 0
SMALL
NO_CHARGES


@<TRIPOS>ATOM
1    C         6.9122   55.8885   22.3158  C     
2    C         6.0437   55.4410   21.2945  C     
3    C         4.8016   54.8583   21.6179  C     
4    C         6.5387   55.7603   23.6731  C     
5    C         5.2924   55.1846   23.9991  C     
6    C         4.4426   54.7474   22.9721  C     
7    N         3.3110   54.2593   23.5033  N     
8    C         4.6134   54.9404   25.2022  C     
9    C         3.3839   54.3660   24.8404  C     
10   C         2.4263   53.9761   25.7949  C     
11   C         2.6892   54.1855   27.1723  C     
12   C         4.8856   55.1348   26.5752  C     
13   C         3.9239   54.7888   27.5380  C     
14   C         4.4783   55.0997   28.7542  C     
15   N         5.6924   55.5589   28.5532  N     
16   C         5.9681   55.5986   27.2692  C     
17   O         3.9805   54.9806   29.8661  O     
18   O         7.0514   55.9497   26.8300  O     
19   O         8.0945   56.4672   21.9810  O     
20   C         1.7568   53.7288   28.1338  C     
21   C         1.2599   52.4053   28.0557  C     
22   C         0.3576   51.9341   29.0194  C     
23   C        -0.0517   52.7613   30.0811  C     
24   C         0.4039   54.0941   30.1426  C     
25   C         1.2971   54.5794   29.1664  C     
26   N        -0.8606   52.2494   31.0248  N     
27   H         6.3144   55.5404   20.3126  H     
28   H         4.1671   54.5373   20.8830  H     
29   H         7.1654   56.1081   24.3963  H     
30   H         2.5601   53.8985   23.0040  H     
31   H         1.5481   53.5498   25.4834  H     
32   H         6.3025   55.8328   29.2577  H     
33   H         8.7507   56.1213   22.6210  H     
34   H         1.5679   51.7604   27.3181  H     
35   H         0.0118   50.9776   28.9540  H     
36   H         0.0872   54.7111   30.8956  H     
37   H         1.6169   55.5518   29.2189  H     
38   H        -1.0891   52.7614   31.8112  H     
39   H        -1.1584   51.3293   30.9591  H     
@<TRIPOS>BOND
     1    1    2 2
     2    1    4 1
     3    1   19 1
     4    2    3 1
     5    3    6 2
     6    4    5 2
     7    5    6 1
     8    5    8 1
     9    6    7 1
    10    7    9 1
    11    8    9 2
    12    8   12 1
    13    9   10 1
    14   10   11 2
    15   11   13 1
    16   11   20 1
    17   12   13 2
    18   12   16 1
    19   13   14 1
    20   14   15 1
    21   14   17 2
    22   15   16 1
    23   16   18 2
    24   20   21 2
    25   20   25 1
    26   21   22 1
    27   22   23 2
    28   23   24 1
    29   23   26 1
    30   24   25 2
    31    2   27 1
    32    3   28 1
    33    4   29 1
    34    7   30 1
    35   10   31 1
    36   15   32 1
    37   19   33 1
    38   21   34 1
    39   22   35 1
    40   24   36 1
    41   25   37 1
    42   26   38 1
    43   26   39 1
@<TRIPOS>PROPERTY_DATA
  Total_Score	| 10.8006
  Crash		| -0.7521
  Polar		| 6.4178
  FragIndex	| 1
  FragRMSD	| 0.201

