@<TRIPOS>MOLECULE
BindingDB_50192429
 37 41 0 0 0
SMALL
NO_CHARGES


@<TRIPOS>ATOM
1    C         6.8873   55.8930   22.3190  C     
2    C         6.0099   55.4461   21.3066  C     
3    C         4.7719   54.8643   21.6416  C     
4    C         6.5294   55.7627   23.6807  C     
5    C         5.2878   55.1843   24.0192  C     
6    C         4.4288   54.7515   22.9984  C     
7    N         3.3041   54.2606   23.5363  N     
8    C         4.6221   54.9315   25.2293  C     
9    C         3.3919   54.3595   24.8713  C     
10   C         2.4408   53.9644   25.8265  C     
11   C         2.7125   54.1529   27.2047  C     
12   C         4.8994   55.1146   26.6037  C     
13   C         3.9487   54.7476   27.5703  C     
14   C         4.5073   55.0413   28.7872  C     
15   N         5.7100   55.5311   28.5823  N     
16   C         5.9773   55.5867   27.2963  C     
17   O         4.0133   54.8777   29.8942  O     
18   O         7.0480   55.9607   26.8466  O     
19   O         8.0623   56.4719   21.9649  O     
20   C         1.7628   53.7038   28.1521  C     
21   C         1.0222   54.6138   28.9376  C     
22   C         0.0029   54.1509   29.7943  C     
23   C        -0.2919   52.7753   29.8648  C     
24   C         0.4510   51.8685   29.0949  C     
25   C         1.4738   52.3243   28.2481  C     
26   Cl       -1.5333   52.1833   30.8485  Cl    
27   H         6.2704   55.5464   20.3229  H     
28   H         4.1293   54.5446   20.9134  H     
29   H         7.1632   56.1079   24.3982  H     
30   H         2.5488   53.9017   23.0426  H     
31   H         1.5609   53.5464   25.5116  H     
32   H         6.3240   55.8079   29.2822  H     
33   H         8.7243   56.1476   22.6100  H     
34   H         1.2053   55.6191   28.8733  H     
35   H        -0.5320   54.8177   30.3549  H     
36   H         0.2362   50.8735   29.1288  H     
37   H         1.9904   51.6429   27.6859  H     
@<TRIPOS>BOND
     1    1    2 2
     2    1    4 1
     3    1   19 1
     4    2    3 1
     5    3    6 2
     6    4    5 2
     7    5    6 1
     8    5    8 1
     9    6    7 1
    10    7    9 1
    11    8    9 2
    12    8   12 1
    13    9   10 1
    14   10   11 2
    15   11   13 1
    16   11   20 1
    17   12   13 2
    18   12   16 1
    19   13   14 1
    20   14   15 1
    21   14   17 2
    22   15   16 1
    23   16   18 2
    24   20   21 2
    25   20   25 1
    26   21   22 1
    27   22   23 2
    28   23   24 1
    29   23   26 1
    30   24   25 2
    31    2   27 1
    32    3   28 1
    33    4   29 1
    34    7   30 1
    35   10   31 1
    36   15   32 1
    37   19   33 1
    38   21   34 1
    39   22   35 1
    40   24   36 1
    41   25   37 1
@<TRIPOS>PROPERTY_DATA
  Total_Score	| 8.7576
  Crash		| -1.8046
  Polar		| 5.3590
  FragIndex	| 1
  FragRMSD	| 0.207

