@<TRIPOS>MOLECULE
BindingDB_50192375
 37 41 0 0 0
SMALL
NO_CHARGES


@<TRIPOS>ATOM
1    C         6.8401   55.8391   22.3403  C     
2    C         5.9601   55.3723   21.3396  C     
3    C         4.7233   54.7961   21.6900  C     
4    C         6.4867   55.7298   23.7051  C     
5    C         5.2467   55.1567   24.0590  C     
6    C         4.3828   54.7084   23.0500  C     
7    N         3.2550   54.2380   23.6020  N     
8    C         4.5822   54.9315   25.2750  C     
9    C         3.3445   54.3653   24.9352  C     
10   C         2.3901   54.0095   25.9041  C     
11   C         2.6653   54.2279   27.2786  C     
12   C         4.8705   55.1353   26.6433  C     
13   C         3.9225   54.7979   27.6244  C     
14   C         4.5121   55.0880   28.8309  C     
15   N         5.7152   55.5634   28.6029  N     
16   C         5.9646   55.6037   27.3135  C     
17   O         4.0496   54.9421   29.9547  O     
18   O         7.0351   55.9600   26.8502  O     
19   O         8.0109   56.4204   21.9736  O     
20   C         1.7089   53.8317   28.2500  C     
21   C         1.1414   54.7635   29.1510  C     
22   C         0.2310   54.3427   30.1410  C     
23   C        -0.1436   52.9885   30.2245  C     
24   C         0.3751   52.0641   29.3003  C     
25   C         1.3017   52.4791   28.3285  C     
26   F        -0.9768   52.5877   31.1434  F     
27   H         6.2158   55.4585   20.3528  H     
28   H         4.0777   54.4671   20.9693  H     
29   H         7.1217   56.0915   24.4131  H     
30   H         2.4947   53.8802   23.1169  H     
31   H         1.5034   53.5985   25.6024  H     
32   H         6.3411   55.8396   29.2922  H     
33   H         8.6682   56.1426   22.6447  H     
34   H         1.3923   55.7544   29.0980  H     
35   H        -0.1542   55.0217   30.8033  H     
36   H         0.0900   51.0847   29.3416  H     
37   H         1.6819   51.7811   27.6812  H     
@<TRIPOS>BOND
     1    1    2 2
     2    1    4 1
     3    1   19 1
     4    2    3 1
     5    3    6 2
     6    4    5 2
     7    5    6 1
     8    5    8 1
     9    6    7 1
    10    7    9 1
    11    8    9 2
    12    8   12 1
    13    9   10 1
    14   10   11 2
    15   11   13 1
    16   11   20 1
    17   12   13 2
    18   12   16 1
    19   13   14 1
    20   14   15 1
    21   14   17 2
    22   15   16 1
    23   16   18 2
    24   20   21 2
    25   20   25 1
    26   21   22 1
    27   22   23 2
    28   23   24 1
    29   23   26 1
    30   24   25 2
    31    2   27 1
    32    3   28 1
    33    4   29 1
    34    7   30 1
    35   10   31 1
    36   15   32 1
    37   19   33 1
    38   21   34 1
    39   22   35 1
    40   24   36 1
    41   25   37 1
@<TRIPOS>PROPERTY_DATA
  Total_Score	| 10.1413
  Crash		| -0.7605
  Polar		| 5.4163
  FragIndex	| 1
  FragRMSD	| 0.063

