@<TRIPOS>MOLECULE
BindingDB_50192380
 40 44 0 0 0
SMALL
NO_CHARGES


@<TRIPOS>ATOM
1    C         6.8330   55.7756   22.3410  C     
2    C         5.9516   55.2710   21.3598  C     
3    C         4.7109   54.7156   21.7322  C     
4    C         6.4815   55.7136   23.7081  C     
5    C         5.2382   55.1612   24.0824  C     
6    C         4.3645   54.6894   23.0935  C     
7    N         3.2285   54.2632   23.6670  N     
8    C         4.5810   54.9771   25.3071  C     
9    C         3.3272   54.4301   24.9970  C     
10   C         2.3784   54.1212   25.9907  C     
11   C         2.6837   54.3420   27.3606  C     
12   C         4.9061   55.1792   26.6649  C     
13   C         3.9823   54.8349   27.6635  C     
14   C         4.6234   55.0506   28.8511  C     
15   N         5.8137   55.5440   28.6081  N     
16   C         6.0183   55.6327   27.3143  C     
17   O         4.2053   54.7840   29.9643  O     
18   O         7.0601   56.0425   26.8326  O     
19   O         8.0012   56.3522   21.9560  O     
20   C         1.7313   54.0025   28.3720  C     
21   C         1.2278   52.6757   28.3562  C     
22   C         0.3173   52.2286   29.3262  C     
23   C        -0.1058   53.0990   30.3395  C     
24   C         0.3787   54.4166   30.3775  C     
25   C         1.2911   54.8945   29.4039  C     
26   C         1.7380   56.3084   29.5649  C     
27   H         6.2073   55.3174   20.3709  H     
28   H         4.0654   54.3598   21.0244  H     
29   H         7.1182   56.0977   24.4016  H     
30   H         2.4593   53.9020   23.1978  H     
31   H         1.4733   53.7372   25.7088  H     
32   H         6.4591   55.8015   29.2859  H     
33   H         8.6800   56.0205   22.5795  H     
34   H         1.5356   52.0076   27.6429  H     
35   H        -0.0297   51.2668   29.3002  H     
36   H        -0.7606   52.7716   31.0535  H     
37   H         0.0559   55.0295   31.1322  H     
38   H         2.3712   56.3868   30.4594  H     
39   H         0.8822   56.9751   29.6820  H     
40   H         2.3079   56.6654   28.7088  H     
@<TRIPOS>BOND
     1    1    2 2
     2    1    4 1
     3    1   19 1
     4    2    3 1
     5    3    6 2
     6    4    5 2
     7    5    6 1
     8    5    8 1
     9    6    7 1
    10    7    9 1
    11    8    9 2
    12    8   12 1
    13    9   10 1
    14   10   11 2
    15   11   13 1
    16   11   20 1
    17   12   13 2
    18   12   16 1
    19   13   14 1
    20   14   15 1
    21   14   17 2
    22   15   16 1
    23   16   18 2
    24   20   21 2
    25   20   25 1
    26   21   22 1
    27   22   23 2
    28   23   24 1
    29   24   25 2
    30   25   26 1
    31    2   27 1
    32    3   28 1
    33    4   29 1
    34    7   30 1
    35   10   31 1
    36   15   32 1
    37   19   33 1
    38   21   34 1
    39   22   35 1
    40   23   36 1
    41   24   37 1
    42   26   38 1
    43   26   39 1
    44   26   40 1
@<TRIPOS>PROPERTY_DATA
  Total_Score	| 10.4413
  Crash		| -0.7859
  Polar		| 5.2497
  FragIndex	| 1
  FragRMSD	| 0.144

