@<TRIPOS>MOLECULE
BindingDB_50192385
 38 42 0 0 0
SMALL
NO_CHARGES


@<TRIPOS>ATOM
1    C         6.9038   55.9149   22.3630  C     
2    C         6.0578   55.4612   21.3298  C     
3    C         4.8245   54.8563   21.6361  C     
4    C         6.5134   55.7832   23.7154  C     
5    C         5.2759   55.1802   24.0263  C     
6    C         4.4508   54.7275   22.9859  C     
7    N         3.3303   54.1996   23.4985  N     
8    C         4.5909   54.9031   25.2208  C     
9    C         3.3849   54.2937   24.8382  C     
10   C         2.4262   53.8729   25.7758  C     
11   C         2.6678   54.0675   27.1604  C     
12   C         4.8388   55.0836   26.6009  C     
13   C         3.8937   54.6722   27.5530  C     
14   C         4.4431   54.9524   28.7819  C     
15   N         5.6226   55.5015   28.5889  N     
16   C         5.8879   55.5914   27.3060  C     
17   O         3.9745   54.7315   29.8887  O     
18   O         6.9404   56.0273   26.8691  O     
19   O         8.0883   56.4896   22.0355  O     
20   C         1.6890   53.6679   28.1027  C     
21   C         1.3044   52.3088   28.1939  C     
22   C         0.3265   51.9143   29.1227  C     
23   C        -0.2539   52.8504   29.9906  C     
24   C         0.1074   54.2082   29.8991  C     
25   C         1.0694   54.6161   28.9542  C     
26   O        -1.2006   52.4088   30.8516  O     
27   H         6.3429   55.5667   20.3540  H     
28   H         4.2089   54.5191   20.8917  H     
29   H         7.1260   56.1427   24.4426  H     
30   H         2.6002   53.8194   22.9856  H     
31   H         1.5601   53.4403   25.4446  H     
32   H         6.2235   55.7945   29.2955  H     
33   H         8.7272   56.1720   22.7111  H     
34   H         1.7229   51.5963   27.5842  H     
35   H         0.0316   50.9408   29.1664  H     
36   H        -0.3343   54.8981   30.5106  H     
37   H         1.3105   55.6127   28.8841  H     
38   H        -0.9295   52.6847   31.7542  H     
@<TRIPOS>BOND
     1    1    2 2
     2    1    4 1
     3    1   19 1
     4    2    3 1
     5    3    6 2
     6    4    5 2
     7    5    6 1
     8    5    8 1
     9    6    7 1
    10    7    9 1
    11    8    9 2
    12    8   12 1
    13    9   10 1
    14   10   11 2
    15   11   13 1
    16   11   20 1
    17   12   13 2
    18   12   16 1
    19   13   14 1
    20   14   15 1
    21   14   17 2
    22   15   16 1
    23   16   18 2
    24   20   21 2
    25   20   25 1
    26   21   22 1
    27   22   23 2
    28   23   24 1
    29   23   26 1
    30   24   25 2
    31    2   27 1
    32    3   28 1
    33    4   29 1
    34    7   30 1
    35   10   31 1
    36   15   32 1
    37   19   33 1
    38   21   34 1
    39   22   35 1
    40   24   36 1
    41   25   37 1
    42   26   38 1
@<TRIPOS>PROPERTY_DATA
  Total_Score	| 10.3279
  Crash		| -0.9374
  Polar		| 6.1673
  FragIndex	| 1
  FragRMSD	| 0.174

