@<TRIPOS>MOLECULE
BindingDB_50192418
 47 52 0 0 0
SMALL
NO_CHARGES


@<TRIPOS>ATOM
1    C         6.7738   55.7744   22.3671  C     
2    C         5.8492   55.3208   21.4000  C     
3    C         4.6189   54.7625   21.8009  C     
4    C         6.4810   55.6386   23.7416  C     
5    C         5.2585   55.0623   24.1469  C     
6    C         4.3382   54.6575   23.1743  C     
7    N         3.2160   54.2222   23.7729  N     
8    C         4.6437   54.8414   25.3894  C     
9    C         3.3620   54.3474   25.1023  C     
10   C         2.4152   54.1024   26.1120  C     
11   C         2.7387   54.3497   27.4749  C     
12   C         5.0073   55.0156   26.7397  C     
13   C         4.0780   54.7519   27.7613  C     
14   C         4.7585   54.9733   28.9399  C     
15   N         5.9754   55.3777   28.6488  N     
16   C         6.1634   55.4079   27.3521  C     
17   O         4.3703   54.8165   30.0849  O     
18   O         7.2229   55.7296   26.8467  O     
19   O         7.9301   56.3760   21.9570  O     
20   C         1.7169   54.2807   28.4788  C     
21   C         0.6078   53.3991   28.3709  C     
22   C        -0.3798   53.3459   29.3826  C     
23   C        -0.2195   54.1335   30.5454  C     
24   C         0.8325   55.0534   30.6350  C     
25   C         1.7590   55.1606   29.5900  C     
26   C        -1.5786   52.6136   29.2181  C     
27   C        -1.9804   51.6525   30.1829  C     
28   C        -3.2377   51.0248   30.0873  C     
29   C        -4.1192   51.3715   29.0391  C     
30   C        -3.7391   52.3304   28.0780  C     
31   C        -2.4681   52.9281   28.1566  C     
32   H         6.0627   55.4094   20.4049  H     
33   H         3.9354   54.4467   21.1101  H     
34   H         7.1438   55.9985   24.4220  H     
35   H         2.4180   53.9128   23.3192  H     
36   H         1.4760   53.8107   25.8382  H     
37   H         6.6509   55.6375   29.2983  H     
38   H         8.6351   56.0430   22.5525  H     
39   H         0.5213   52.7834   27.5599  H     
40   H        -0.8985   54.0891   31.3143  H     
41   H         0.9064   55.6641   31.4493  H     
42   H         2.4757   55.8893   29.6531  H     
43   H        -1.3655   51.4165   30.9690  H     
44   H        -3.5203   50.3409   30.7963  H     
45   H        -5.0364   50.9300   28.9731  H     
46   H        -4.3848   52.5890   27.3258  H     
47   H        -2.2141   53.6360   27.4591  H     
@<TRIPOS>BOND
     1    1    2 2
     2    1    4 1
     3    1   19 1
     4    2    3 1
     5    3    6 2
     6    4    5 2
     7    5    6 1
     8    5    8 1
     9    6    7 1
    10    7    9 1
    11    8    9 2
    12    8   12 1
    13    9   10 1
    14   10   11 2
    15   11   13 1
    16   11   20 1
    17   12   13 2
    18   12   16 1
    19   13   14 1
    20   14   15 1
    21   14   17 2
    22   15   16 1
    23   16   18 2
    24   20   21 2
    25   20   25 1
    26   21   22 1
    27   22   23 2
    28   22   26 1
    29   23   24 1
    30   24   25 2
    31   26   27 2
    32   26   31 1
    33   27   28 1
    34   28   29 2
    35   29   30 1
    36   30   31 2
    37    2   32 1
    38    3   33 1
    39    4   34 1
    40    7   35 1
    41   10   36 1
    42   15   37 1
    43   19   38 1
    44   21   39 1
    45   23   40 1
    46   24   41 1
    47   25   42 1
    48   27   43 1
    49   28   44 1
    50   29   45 1
    51   30   46 1
    52   31   47 1
@<TRIPOS>PROPERTY_DATA
  Total_Score	| 10.8294
  Crash		| -1.2806
  Polar		| 5.2708
  FragIndex	| 1
  FragRMSD	| 0.543

