@<TRIPOS>MOLECULE
BindingDB_50192349
 37 41 0 0 0
SMALL
NO_CHARGES


@<TRIPOS>ATOM
1    C         6.8230   55.8434   22.3789  C     
2    C         5.9505   55.3753   21.3774  C     
3    C         4.7128   54.8017   21.7201  C     
4    C         6.4759   55.7152   23.7414  C     
5    C         5.2408   55.1346   24.0934  C     
6    C         4.3683   54.7054   23.0807  C     
7    N         3.2263   54.2634   23.6281  N     
8    C         4.5695   54.9114   25.3007  C     
9    C         3.3129   54.3853   24.9610  C     
10   C         2.3489   54.0492   25.9287  C     
11   C         2.6369   54.2706   27.2961  C     
12   C         4.8617   55.1016   26.6701  C     
13   C         3.8986   54.8120   27.6486  C     
14   C         4.4661   55.1162   28.8562  C     
15   N         5.6876   55.5425   28.6418  N     
16   C         5.9605   55.5347   27.3538  C     
17   O         3.9519   55.0428   29.9628  O     
18   O         7.0517   55.8307   26.8908  O     
19   O         7.9824   56.4501   22.0122  O     
20   C         1.7066   53.8836   28.2764  C     
21   C         1.3248   52.5253   28.3769  C     
22   C         0.4047   52.1226   29.3600  C     
23   C        -0.1225   53.0726   30.2604  C     
24   C         0.2550   54.4303   30.1691  C     
25   C         1.1760   54.8330   29.1844  C     
26   H         6.2013   55.4759   20.3899  H     
27   H         4.0639   54.4818   20.9997  H     
28   H         7.1075   56.0811   24.4481  H     
29   H         2.4512   53.9427   23.1418  H     
30   H         1.4477   53.6623   25.6375  H     
31   H         6.3078   55.8187   29.3310  H     
32   H         8.6801   56.0982   22.6245  H     
33   H         1.7094   51.8282   27.7326  H     
34   H         0.1153   51.1465   29.4146  H     
35   H        -0.7794   52.7744   30.9794  H     
36   H        -0.1346   55.1093   30.8292  H     
37   H         1.4528   55.8169   29.1260  H     
@<TRIPOS>BOND
     1    1    2 2
     2    1    4 1
     3    1   19 1
     4    2    3 1
     5    3    6 2
     6    4    5 2
     7    5    6 1
     8    5    8 1
     9    6    7 1
    10    7    9 1
    11    8    9 2
    12    8   12 1
    13    9   10 1
    14   10   11 2
    15   11   13 1
    16   11   20 1
    17   12   13 2
    18   12   16 1
    19   13   14 1
    20   14   15 1
    21   14   17 2
    22   15   16 1
    23   16   18 2
    24   20   21 2
    25   20   25 1
    26   21   22 1
    27   22   23 2
    28   23   24 1
    29   24   25 2
    30    2   26 1
    31    3   27 1
    32    4   28 1
    33    7   29 1
    34   10   30 1
    35   15   31 1
    36   19   32 1
    37   21   33 1
    38   22   34 1
    39   23   35 1
    40   24   36 1
    41   25   37 1
@<TRIPOS>PROPERTY_DATA
  Total_Score	| 10.3339
  Crash		| -0.6073
  Polar		| 5.5218
  FragIndex	| 1
  FragRMSD	| 0.070

