@<TRIPOS>MOLECULE
BindingDB_50192346
 43 47 0 0 0
SMALL
NO_CHARGES


@<TRIPOS>ATOM
1    C         6.8385   55.8228   22.2829  C     
2    C         5.9463   55.3659   21.2866  C     
3    C         4.7118   54.7906   21.6465  C     
4    C         6.5010   55.6991   23.6508  C     
5    C         5.2568   55.1399   24.0162  C     
6    C         4.3820   54.7001   23.0107  C     
7    N         3.2645   54.2241   23.5742  N     
8    C         4.6100   54.9016   25.2410  C     
9    C         3.3719   54.3312   24.9162  C     
10   C         2.4375   53.9367   25.8999  C     
11   C         2.7416   54.1022   27.2795  C     
12   C         4.9067   55.0888   26.6113  C     
13   C         3.9969   54.6891   27.6070  C     
14   C         4.6176   54.9681   28.8060  C     
15   N         5.7915   55.5090   28.5491  N     
16   C         5.9954   55.5942   27.2581  C     
17   O         4.1873   54.7523   29.9287  O     
18   O         7.0163   56.0482   26.7772  O     
19   O         7.9982   56.4122   21.9051  O     
20   C         1.7995   53.6580   28.2566  C     
21   C         1.5145   54.4299   29.4137  C     
22   C         0.5914   53.9720   30.3947  C     
23   C        -0.0934   52.7530   30.1725  C     
24   C         0.1833   51.9810   29.0340  C     
25   C         1.1324   52.4191   28.0942  C     
26   C         0.3427   54.7444   31.6364  C     
27   N         0.5349   53.9092   32.8327  N     
28   H         6.1944   55.4624   20.2978  H     
29   H         4.0620   54.4730   20.9288  H     
30   H         7.1480   56.0385   24.3541  H     
31   H         2.4990   53.8669   23.0927  H     
32   H         1.5498   53.5359   25.5979  H     
33   H         6.4223   55.8010   29.2257  H     
34   H         8.6805   56.0958   22.5398  H     
35   H         1.9805   55.3232   29.5536  H     
36   H        -0.7820   52.4214   30.8542  H     
37   H        -0.2933   51.0874   28.9074  H     
38   H         1.3370   51.8180   27.2898  H     
39   H         1.0127   55.6049   31.7123  H     
40   H        -0.6803   55.1140   31.6336  H     
41   H        -0.1987   53.1970   32.8691  H     
42   H         0.4734   54.4852   33.6736  H     
43   H         1.4464   53.4471   32.7968  H     
@<TRIPOS>BOND
     1    1    2 2
     2    1    4 1
     3    1   19 1
     4    2    3 1
     5    3    6 2
     6    4    5 2
     7    5    6 1
     8    5    8 1
     9    6    7 1
    10    7    9 1
    11    8    9 2
    12    8   12 1
    13    9   10 1
    14   10   11 2
    15   11   13 1
    16   11   20 1
    17   12   13 2
    18   12   16 1
    19   13   14 1
    20   14   15 1
    21   14   17 2
    22   15   16 1
    23   16   18 2
    24   20   21 2
    25   20   25 1
    26   21   22 1
    27   22   23 2
    28   22   26 1
    29   23   24 1
    30   24   25 2
    31   26   27 1
    32    2   28 1
    33    3   29 1
    34    4   30 1
    35    7   31 1
    36   10   32 1
    37   15   33 1
    38   19   34 1
    39   21   35 1
    40   23   36 1
    41   24   37 1
    42   25   38 1
    43   26   39 1
    44   26   40 1
    45   27   41 1
    46   27   42 1
    47   27   43 1
@<TRIPOS>PROPERTY_DATA
  Total_Score	| 12.1817
  Crash		| -0.9529
  Polar		| 6.4256
  FragIndex	| 1
  FragRMSD	| 0.113

