@<TRIPOS>MOLECULE
BindingDB_50192365
 40 44 0 0 0
SMALL
NO_CHARGES


@<TRIPOS>ATOM
1    C         6.7900   55.7913   22.3861  C     
2    C         5.8659   55.3999   21.3930  C     
3    C         4.6064   54.8872   21.7612  C     
4    C         6.4554   55.6888   23.7551  C     
5    C         5.1968   55.1763   24.1241  C     
6    C         4.2946   54.7915   23.1252  C     
7    N         3.1586   54.3652   23.6934  N     
8    C         4.5568   54.9415   25.3500  C     
9    C         3.2945   54.4332   25.0232  C     
10   C         2.3667   54.0423   26.0010  C     
11   C         2.6803   54.1608   27.3835  C     
12   C         4.8708   55.0993   26.7185  C     
13   C         3.9372   54.7600   27.7170  C     
14   C         4.5490   55.0913   28.9138  C     
15   N         5.7558   55.5416   28.6494  N     
16   C         5.9929   55.5416   27.3611  C     
17   O         4.0785   55.1205   30.0358  O     
18   O         7.0584   55.8782   26.8786  O     
19   O         7.9920   56.2998   22.0087  O     
20   C         1.7337   53.6397   28.3344  C     
21   C         1.3419   54.3557   29.4925  C     
22   C         0.3871   53.8530   30.4116  C     
23   C        -0.2181   52.6064   30.1443  C     
24   C         0.1356   51.8854   28.9937  C     
25   C         1.1094   52.3846   28.1153  C     
26   C         0.0515   54.6372   31.6205  C     
27   H         6.1118   55.4787   20.4031  H     
28   H         3.9261   54.6175   21.0518  H     
29   H         7.1267   55.9894   24.4565  H     
30   H         2.3794   54.0317   23.2232  H     
31   H         1.4652   53.6713   25.6868  H     
32   H         6.3814   55.8503   29.3232  H     
33   H         8.6352   55.9510   22.6580  H     
34   H         1.7704   55.2619   29.6750  H     
35   H        -0.9047   52.2134   30.7874  H     
36   H        -0.3107   50.9893   28.7950  H     
37   H         1.3688   51.8086   27.3090  H     
38   H         0.9521   54.7776   32.2237  H     
39   H        -0.6892   54.1329   32.2420  H     
40   H        -0.3446   55.6111   31.3192  H     
@<TRIPOS>BOND
     1    1    2 2
     2    1    4 1
     3    1   19 1
     4    2    3 1
     5    3    6 2
     6    4    5 2
     7    5    6 1
     8    5    8 1
     9    6    7 1
    10    7    9 1
    11    8    9 2
    12    8   12 1
    13    9   10 1
    14   10   11 2
    15   11   13 1
    16   11   20 1
    17   12   13 2
    18   12   16 1
    19   13   14 1
    20   14   15 1
    21   14   17 2
    22   15   16 1
    23   16   18 2
    24   20   21 2
    25   20   25 1
    26   21   22 1
    27   22   23 2
    28   22   26 1
    29   23   24 1
    30   24   25 2
    31    2   27 1
    32    3   28 1
    33    4   29 1
    34    7   30 1
    35   10   31 1
    36   15   32 1
    37   19   33 1
    38   21   34 1
    39   23   35 1
    40   24   36 1
    41   25   37 1
    42   26   38 1
    43   26   39 1
    44   26   40 1
@<TRIPOS>PROPERTY_DATA
  Total_Score	| 10.7799
  Crash		| -0.9981
  Polar		| 5.4364
  FragIndex	| 1
  FragRMSD	| 0.235

