@<TRIPOS>MOLECULE
BindingDB_50279443
 47 52 0 0 0
SMALL
NO_CHARGES


@<TRIPOS>ATOM
1    C         6.9879   55.9024   22.2264  C     
2    C         6.1482   55.4505   21.1854  C     
3    C         4.9087   54.8456   21.4747  C     
4    C         6.5861   55.7607   23.5727  C     
5    C         5.3436   55.1602   23.8686  C     
6    C         4.5270   54.7142   22.8192  C     
7    N         3.4058   54.1834   23.3222  N     
8    C         4.6520   54.8807   25.0598  C     
9    C         3.4590   54.2671   24.6602  C     
10   C         2.5044   53.8228   25.5850  C     
11   C         2.7250   54.0024   26.9735  C     
12   C         4.8698   55.0750   26.4426  C     
13   C         3.9120   54.6610   27.3822  C     
14   C         4.4142   54.9939   28.6146  C     
15   N         5.5951   55.5435   28.4453  N     
16   C         5.8949   55.6073   27.1684  C     
17   O         3.9065   54.8098   29.7106  O     
18   O         6.9657   56.0248   26.7565  O     
19   C         1.7376   53.5316   27.8713  C     
20   C         1.3016   52.1856   27.7941  C     
21   C         0.1679   51.7548   28.5007  C     
22   C        -0.5527   52.6645   29.3013  C     
23   C        -0.0891   53.9928   29.4363  C     
24   C         1.0504   54.4208   28.7290  C     
25   O         8.1676   56.4947   21.9139  O     
26   C        -1.8000   52.2724   29.8189  C     
27   C        -2.9719   52.5780   29.0959  C     
28   C        -4.2265   52.1583   29.5712  C     
29   C        -4.3178   51.4310   30.7699  C     
30   C        -3.1552   51.1454   31.5058  C     
31   C        -1.8966   51.5537   31.0294  C     
32   H         6.4389   55.5597   20.2112  H     
33   H         4.2962   54.5192   20.7234  H     
34   H         7.1947   56.1051   24.3132  H     
35   H         2.6785   53.8014   22.8058  H     
36   H         1.6523   53.3760   25.2372  H     
37   H         6.1781   55.8532   29.1616  H     
38   H         1.7705   51.5222   27.1733  H     
39   H        -0.1709   50.7976   28.3630  H     
40   H        -0.6089   54.6660   30.0055  H     
41   H         1.3340   55.4024   28.7904  H     
42   H         8.7914   56.2374   22.6234  H     
43   H        -2.9226   53.1065   28.2193  H     
44   H        -5.0715   52.3895   29.0465  H     
45   H        -5.2306   51.1328   31.1165  H     
46   H        -3.2254   50.6422   32.3907  H     
47   H        -1.0576   51.3319   31.5719  H     
@<TRIPOS>BOND
     1    1    2 2
     2    1    4 1
     3    1   25 1
     4    2    3 1
     5    3    6 2
     6    4    5 2
     7    5    6 1
     8    5    8 1
     9    6    7 1
    10    7    9 1
    11    8    9 2
    12    8   12 1
    13    9   10 1
    14   10   11 2
    15   11   13 1
    16   11   19 1
    17   12   13 2
    18   12   16 1
    19   13   14 1
    20   14   15 1
    21   14   17 2
    22   15   16 1
    23   16   18 2
    24   19   20 2
    25   19   24 1
    26   20   21 1
    27   21   22 2
    28   22   23 1
    29   22   26 1
    30   23   24 2
    31   26   27 2
    32   26   31 1
    33   27   28 1
    34   28   29 2
    35   29   30 1
    36   30   31 2
    37    2   32 1
    38    3   33 1
    39    4   34 1
    40    7   35 1
    41   10   36 1
    42   15   37 1
    43   20   38 1
    44   21   39 1
    45   23   40 1
    46   24   41 1
    47   25   42 1
    48   27   43 1
    49   28   44 1
    50   29   45 1
    51   30   46 1
    52   31   47 1
@<TRIPOS>PROPERTY_DATA
  Total_Score	| 11.2926
  Crash		| -1.5011
  Polar		| 4.9022
  FragIndex	| 1
  FragRMSD	| 0.333

