@<TRIPOS>MOLECULE
BindingDB_50260358
 36 41 0 0 0
SMALL
NO_CHARGES


@<TRIPOS>ATOM
1    C         3.7931    7.4252   18.5536  C     
2    C         4.1053    6.4081   17.6341  C     
3    N         3.0338    5.6247   17.4375  N     
4    C         5.3796    6.3310   17.0575  C     
5    C         6.3668    7.2747   17.3794  C     
6    N         5.8648    5.4435   16.1725  N     
7    C         6.0713    8.2969   18.3163  C     
8    C         4.7922    8.3747   18.8934  C     
9    C         4.8112    9.4734   19.7092  C     
10   N         6.0083   10.0094   19.6510  N     
11   C         6.7884    9.3377   18.8415  C     
12   C         2.4619    7.2094   18.9089  C     
13   C         2.0304    6.0845   18.1937  C     
14   C         0.7231    5.5866   18.3209  C     
15   C        -0.1483    6.2582   19.1991  C     
16   N         0.2893    7.3480   19.8828  N     
17   C         1.5515    7.8481   19.7727  C     
18   C         7.1350    5.7687   15.8992  C     
19   C         7.4750    6.9209   16.6156  C     
20   C         8.7508    7.4877   16.4629  C     
21   C         8.0585    5.1324   15.0510  C     
22   O         3.9066    9.9517   20.3701  O     
23   O         7.9452    9.6605   18.6367  O     
24   C         9.3557    5.6766   14.9348  C     
25   C         9.6965    6.8565   15.6337  C     
26   O        10.9274    7.3980   15.5246  O     
27   H         2.9901    4.8582   16.8442  H     
28   H         5.3788    4.6902   15.8013  H     
29   H         6.2756   10.8096   20.1239  H     
30   H         0.4162    4.7623   17.7988  H     
31   H        -1.1070    5.9296   19.3308  H     
32   H         1.8091    8.6661   20.3189  H     
33   H         9.0102    8.3431   16.9437  H     
34   H         7.8023    4.2895   14.5310  H     
35   H        10.0553    5.2161   14.3474  H     
36   H        11.4867    6.9090   16.1673  H     
@<TRIPOS>BOND
     1    1    2 2
     2    1    8 1
     3    1   12 1
     4    2    3 1
     5    2    4 1
     6    3   13 1
     7    4    5 2
     8    4    6 1
     9    5    7 1
    10    5   19 1
    11    6   18 1
    12    7    8 2
    13    7   11 1
    14    8    9 1
    15    9   10 1
    16    9   22 2
    17   10   11 1
    18   11   23 2
    19   12   13 2
    20   12   17 1
    21   13   14 1
    22   14   15 2
    23   15   16 1
    24   16   17 2
    25   18   19 2
    26   18   21 1
    27   19   20 1
    28   20   25 2
    29   21   24 2
    30   24   25 1
    31   25   26 1
    32    3   27 1
    33    6   28 1
    34   10   29 1
    35   14   30 1
    36   15   31 1
    37   17   32 1
    38   20   33 1
    39   21   34 1
    40   24   35 1
    41   26   36 1
@<TRIPOS>PROPERTY_DATA
  Total_Score	| 6.0309
  Crash		| -0.2800
  Polar		| 2.0183
  FragIndex	| 1
  FragRMSD	| 0.177

