@<TRIPOS>MOLECULE
BindingDB_50280450
 63 70 0 0 0
SMALL
NO_CHARGES


@<TRIPOS>ATOM
1    C         5.4646    4.1428   15.7981  C     
2    N         6.0478    5.4256   16.1968  N     
3    N         3.1277    5.5523   17.4388  N     
4    C         5.4662    6.3307   17.0388  C     
5    C         4.1763    6.3874   17.6189  C     
6    O         4.4315    3.7214   16.7118  O     
7    C         3.1346    4.3338   16.6921  C     
8    C         4.7234    8.4875   18.7381  C     
9    C         3.7954    7.4533   18.4606  C     
10   C         6.3441    7.3987   17.2759  C     
11   C         5.9812    8.4703   18.1241  C     
12   C         4.6642    9.6340   19.4808  C     
13   N         5.7659   10.3236   19.3164  N     
14   C         7.2807    5.9246   15.8597  C     
15   C         2.0796    6.0484   18.1407  C     
16   C         4.8759    4.1038   14.3454  C     
17   C         6.7107    9.6925   18.4707  C     
18   C         7.4876    7.1343   16.5419  C     
19   C         2.4611    7.2245   18.8025  C     
20   C         2.5383    4.4632   15.2582  C     
21   C         3.5611    4.9340   14.1868  C     
22   O         3.8010   10.0062   20.2573  O     
23   O         5.8864    4.5136   13.4105  O     
24   C         6.4913    2.9631   15.9608  C     
25   O         7.9019    9.4330   19.1987  O     
26   N         3.6822    6.4101   14.2177  N     
27   C         8.3203    5.4446   15.0250  C     
28   C         0.7604    5.5607   18.2548  C     
29   C         8.6843    7.8639   16.4106  C     
30   C         1.5239    7.9220   19.6004  C     
31   C         4.9210    7.0166   13.6834  C     
32   C         0.2066    7.4367   19.7146  C     
33   C         9.7202    7.3502   15.6106  C     
34   C         9.5387    6.1428   14.9186  C     
35   C        -0.1753    6.2601   19.0386  C     
36   C         6.0347    3.7246   12.2146  C     
37   H         2.5107    3.6175   17.2335  H     
38   H         5.9435   11.1560   19.7838  H     
39   H         4.6038    3.0552   14.1505  H     
40   H         6.9057   10.3126   17.5960  H     
41   H         2.1558    3.4781   14.9637  H     
42   H         1.6748    5.1379   15.2737  H     
43   H         3.1244    4.6802   13.2112  H     
44   H         7.0563    2.7728   15.0447  H     
45   H         5.9905    2.0196   16.2130  H     
46   H         7.2165    3.1705   16.7557  H     
47   H         8.1413   10.3007   19.5924  H     
48   H         2.9069    6.7858   13.6627  H     
49   H         3.5576    6.7313   15.1759  H     
50   H         8.2123    4.5931   14.4813  H     
51   H         0.4671    4.7156   17.7678  H     
52   H         8.8151    8.7599   16.8779  H     
53   H         1.7731    8.7703   20.1021  H     
54   H         5.8001    6.7480   14.2747  H     
55   H         4.7989    8.1071   13.7075  H     
56   H         5.0858    6.6964   12.6475  H     
57   H        -0.4783    7.9476   20.2770  H     
58   H        10.5964    7.8662   15.5173  H     
59   H        10.2931    5.7683   14.3416  H     
60   H        -1.1367    5.9158   19.1246  H     
61   H         6.4942    2.7569   12.4504  H     
62   H         6.6954    4.2482   11.5224  H     
63   H         5.0838    3.5446   11.7041  H     
@<TRIPOS>BOND
     1    1    2 1
     2    1    6 1
     3    1   16 1
     4    1   24 1
     5    2    4 1
     6    2   14 1
     7    3    5 1
     8    3    7 1
     9    3   15 1
    10    4    5 1
    11    4   10 2
    12    5    9 2
    13    6    7 1
    14    7   20 1
    15    8    9 1
    16    8   11 2
    17    8   12 1
    18    9   19 1
    19   10   11 1
    20   10   18 1
    21   11   17 1
    22   12   13 1
    23   12   22 2
    24   13   17 1
    25   14   18 2
    26   14   27 1
    27   15   19 2
    28   15   28 1
    29   16   21 1
    30   16   23 1
    31   17   25 1
    32   18   29 1
    33   19   30 1
    34   20   21 1
    35   21   26 1
    36   23   36 1
    37   26   31 1
    38   27   34 2
    39   28   35 2
    40   29   33 2
    41   30   32 2
    42   32   35 1
    43   33   34 1
    44    7   37 1
    45   13   38 1
    46   16   39 1
    47   17   40 1
    48   20   41 1
    49   20   42 1
    50   21   43 1
    51   24   44 1
    52   24   45 1
    53   24   46 1
    54   25   47 1
    55   26   48 1
    56   26   49 1
    57   27   50 1
    58   28   51 1
    59   29   52 1
    60   30   53 1
    61   31   54 1
    62   31   55 1
    63   31   56 1
    64   32   57 1
    65   33   58 1
    66   34   59 1
    67   35   60 1
    68   36   61 1
    69   36   62 1
    70   36   63 1
@<TRIPOS>PROPERTY_DATA
  Total_Score	| 8.7813
  Crash		| -2.4488
  Polar		| 3.3941
  FragIndex	| 1
  FragRMSD	| 0.300

