@<TRIPOS>MOLECULE
BindingDB_6763
 45 52 0 0 0
SMALL
NO_CHARGES


@<TRIPOS>ATOM
1    C         4.8625    9.5515   19.7095  C     
2    C         6.8435    9.3193   18.8799  C     
3    O         8.0222    9.5803   18.7092  O     
4    N         6.0937   10.0003   19.7112  N     
5    C         4.7814    8.5083   18.8281  C     
6    C         6.0711    8.3601   18.2826  C     
7    C         3.9864    6.6791   17.4444  C     
8    C         3.7251    7.6597   18.4138  C     
9    C         1.8792    6.4534   17.9612  C     
10   C         2.3741    7.5147   18.7382  C     
11   C         1.5216    8.1890   19.6377  C     
12   C         0.1763    7.7886   19.7524  C     
13   C        -0.3132    6.7137   18.9851  C     
14   C         0.5364    6.0378   18.0889  C     
15   N         2.8695    5.9676   17.1768  N     
16   C         2.8091    4.8559   16.2597  C     
17   C         4.7394    3.3788   16.0632  C     
18   C         4.8848    4.6860   15.2643  C     
19   O         3.5408    5.1416   15.0595  O     
20   C         3.4364    3.5752   16.8533  C     
21   C         5.2749    6.5352   16.8877  C     
22   C         6.3259    7.3664   17.3042  C     
23   N         5.7004    5.6679   15.9401  N     
24   C         7.4394    6.9490   16.5735  C     
25   C         7.0220    5.8905   15.7503  C     
26   C         8.7814    7.3758   16.5472  C     
27   C         7.9442    5.2312   14.9086  C     
28   C         9.2896    5.6465   14.9011  C     
29   C         9.7055    6.7183   15.7142  C     
30   O         3.9844   10.0598   20.3859  O     
31   H         6.4039   10.7503   20.2378  H     
32   H         1.8509    8.9636   20.2056  H     
33   H        -0.4488    8.2803   20.3950  H     
34   H        -1.2899    6.4250   19.0770  H     
35   H         0.1712    5.2577   17.5409  H     
36   H         1.7778    4.6594   15.9594  H     
37   H         4.6410    2.5306   15.3794  H     
38   H         5.5934    3.1994   16.7233  H     
39   H         5.2970    4.4733   14.2749  H     
40   H         3.6458    3.6914   17.9217  H     
41   H         2.7719    2.7168   16.7200  H     
42   H         9.1027    8.1426   17.1250  H     
43   H         7.6554    4.4491   14.3190  H     
44   H         9.9684    5.1658   14.3082  H     
45   H        10.6843    7.0131   15.7083  H     
@<TRIPOS>BOND
     1    1    4 1
     2    1    5 1
     3    1   30 2
     4    2    3 2
     5    2    4 1
     6    2    6 1
     7    5    6 2
     8    5    8 1
     9    6   22 1
    10    7    8 2
    11    7   15 1
    12    7   21 1
    13    8   10 1
    14    9   10 2
    15    9   14 1
    16    9   15 1
    17   10   11 1
    18   11   12 2
    19   12   13 1
    20   13   14 2
    21   15   16 1
    22   16   19 1
    23   16   20 1
    24   17   18 1
    25   17   20 1
    26   18   19 1
    27   18   23 1
    28   21   22 2
    29   21   23 1
    30   22   24 1
    31   23   25 1
    32   24   25 2
    33   24   26 1
    34   25   27 1
    35   26   29 2
    36   27   28 2
    37   28   29 1
    38    4   31 1
    39   11   32 1
    40   12   33 1
    41   13   34 1
    42   14   35 1
    43   16   36 1
    44   17   37 1
    45   17   38 1
    46   18   39 1
    47   20   40 1
    48   20   41 1
    49   26   42 1
    50   27   43 1
    51   28   44 1
    52   29   45 1
@<TRIPOS>PROPERTY_DATA
  Total_Score	| 6.8159
  Crash		| -0.6757
  Polar		| 1.8684
  FragIndex	| 1
  FragRMSD	| 0.899

