@<TRIPOS>MOLECULE
BindingDB_50268249
 59 66 0 0 0
SMALL
NO_CHARGES


@<TRIPOS>ATOM
1    C         5.2517    4.4630   15.8210  C     
2    O         5.4908    4.2118   14.4140  O     
3    C         4.5679    3.3148   13.7743  C     
4    C         3.1253    3.9357   13.7656  C     
5    C         2.9421    5.0365   14.8493  C     
6    C         3.7037    4.6701   16.1617  C     
7    O         3.4124    6.3067   14.3647  O     
8    O         2.1638    2.8904   14.0612  O     
9    C         1.3025    2.4646   12.9951  C     
10   C         5.1390    2.8953   12.3845  C     
11   N         6.1175    3.8258   11.8069  N     
12   N         6.1124    5.5632   16.2183  N     
13   C         9.9370    7.0427   15.6241  C     
14   C         9.6221    5.8224   14.9877  C     
15   C         8.3520    5.2370   15.1609  C     
16   C         8.9952    7.6785   16.4586  C     
17   C         7.7367    7.0759   16.6603  C     
18   C         7.4067    5.8829   15.9792  C     
19   C         6.6224    7.4595   17.4102  C     
20   C         5.6708    6.5090   17.0501  C     
21   C         3.9605    7.4943   18.4776  C     
22   C         4.3792    6.5429   17.5523  C     
23   N         3.4451    5.6683   17.1869  N     
24   C         6.2301    8.4449   18.3568  C     
25   C         4.9119    8.4684   18.8755  C     
26   C         4.8546    9.5329   19.7241  C     
27   N         6.0433   10.0909   19.7591  N     
28   C         6.8922    9.4666   18.9685  C     
29   C         2.6354    7.1260   18.7211  C     
30   C         2.3503    6.0030   17.9107  C     
31   C         1.0789    5.3999   17.9519  C     
32   C         0.1007    5.9198   18.8227  C     
33   C         0.3866    7.0410   19.6305  C     
34   C         1.6570    7.6483   19.5862  C     
35   O         3.8900    9.9601   20.3389  O     
36   O         8.0733    9.7559   18.8494  O     
37   H         5.6078    3.5911   16.3760  H     
38   H         4.5299    2.4071   14.3852  H     
39   H         2.9255    4.4114   12.7997  H     
40   H         1.8724    5.1479   15.0694  H     
41   H         3.3098    3.7180   16.5358  H     
42   H         2.8314    6.5192   13.6026  H     
43   H         0.6901    1.6338   13.3567  H     
44   H         1.8743    2.1174   12.1297  H     
45   H         0.6355    3.2760   12.6915  H     
46   H         5.6452    1.9290   12.4793  H     
47   H         4.3309    2.7666   11.6594  H     
48   H         6.3968    3.4708   10.8872  H     
49   H         6.9590    3.8792   12.3896  H     
50   H         5.7268    4.7573   11.6778  H     
51   H        10.8523    7.4730   15.4643  H     
52   H        10.3098    5.3679   14.3825  H     
53   H         8.1232    4.3581   14.6967  H     
54   H         9.2221    8.5693   16.8946  H     
55   H         6.2661   10.8677   20.2939  H     
56   H         0.8716    4.5785   17.3790  H     
57   H        -0.8229    5.4866   18.8701  H     
58   H        -0.3274    7.4173   20.2543  H     
59   H         1.8609    8.4536   20.1767  H     
@<TRIPOS>BOND
     1    1    2 1
     2    1    6 1
     3    1   12 1
     4    2    3 1
     5    3    4 1
     6    3   10 1
     7    4    5 1
     8    4    8 1
     9    5    6 1
    10    5    7 1
    11    6   23 1
    12    8    9 1
    13   10   11 1
    14   12   18 1
    15   12   20 1
    16   13   14 2
    17   13   16 1
    18   14   15 1
    19   15   18 2
    20   16   17 2
    21   17   18 1
    22   17   19 1
    23   19   20 2
    24   19   24 1
    25   20   22 1
    26   21   22 2
    27   21   25 1
    28   21   29 1
    29   22   23 1
    30   23   30 1
    31   24   25 2
    32   24   28 1
    33   25   26 1
    34   26   27 1
    35   26   35 2
    36   27   28 1
    37   28   36 2
    38   29   30 2
    39   29   34 1
    40   30   31 1
    41   31   32 2
    42   32   33 1
    43   33   34 2
    44    1   37 1
    45    3   38 1
    46    4   39 1
    47    5   40 1
    48    6   41 1
    49    7   42 1
    50    9   43 1
    51    9   44 1
    52    9   45 1
    53   10   46 1
    54   10   47 1
    55   11   48 1
    56   11   49 1
    57   11   50 1
    58   13   51 1
    59   14   52 1
    60   15   53 1
    61   16   54 1
    62   27   55 1
    63   31   56 1
    64   32   57 1
    65   33   58 1
    66   34   59 1
@<TRIPOS>PROPERTY_DATA
  Total_Score	| 9.6772
  Crash		| -0.9108
  Polar		| 5.3473
  FragIndex	| 1
  FragRMSD	| 0.949

