@<TRIPOS>MOLECULE
BindingDB_50260343
 36 41 0 0 0
SMALL
NO_CHARGES


@<TRIPOS>ATOM
1    C         3.9462    7.4027   18.5105  C     
2    C         4.2300    6.3218   17.6624  C     
3    N         3.1461    5.5459   17.5193  N     
4    C         5.5040    6.1790   17.0934  C     
5    C         6.5133    7.1172   17.3629  C     
6    N         5.9637    5.2283   16.2659  N     
7    C         6.2389    8.1987   18.2341  C     
8    C         4.9590    8.3447   18.7983  C     
9    C         5.0033    9.4726   19.5620  C     
10   N         6.2193    9.9626   19.4910  N     
11   C         6.9842    9.2358   18.7133  C     
12   C         2.6106    7.2367   18.8789  C     
13   C         2.1478    6.0767   18.2364  C     
14   C         0.8296    5.6215   18.3802  C     
15   C        -0.0208    6.3704   19.2169  C     
16   N         0.4416    7.4947   19.8432  N     
17   C         1.7175    7.9486   19.7019  C     
18   C         7.2399    5.5088   15.9739  C     
19   C         7.6194    6.6830   16.6323  C     
20   C         8.9199    7.1884   16.4668  C     
21   C         8.1338    4.8029   15.1590  C     
22   O         4.1179   10.0145   20.2041  O     
23   O         8.1570    9.5103   18.5202  O     
24   C         9.4524    5.2904   15.0270  C     
25   C         9.8455    6.4784   15.6784  C     
26   O        10.3712    4.5974   14.3072  O     
27   H         3.0899    4.7419   16.9863  H     
28   H         5.4586    4.4699   15.9382  H     
29   H         6.5119   10.7665   19.9488  H     
30   H         0.4992    4.7952   17.9040  H     
31   H        -0.9953    6.0824   19.3639  H     
32   H         1.9962    8.7846   20.1946  H     
33   H         9.2014    8.0552   16.9167  H     
34   H         7.8419    3.9441   14.6873  H     
35   H        10.8038    6.8217   15.5904  H     
36   H         9.8482    3.8798   13.8593  H     
@<TRIPOS>BOND
     1    1    2 2
     2    1    8 1
     3    1   12 1
     4    2    3 1
     5    2    4 1
     6    3   13 1
     7    4    5 2
     8    4    6 1
     9    5    7 1
    10    5   19 1
    11    6   18 1
    12    7    8 2
    13    7   11 1
    14    8    9 1
    15    9   10 1
    16    9   22 2
    17   10   11 1
    18   11   23 2
    19   12   13 2
    20   12   17 1
    21   13   14 1
    22   14   15 2
    23   15   16 1
    24   16   17 2
    25   18   19 2
    26   18   21 1
    27   19   20 1
    28   20   25 2
    29   21   24 2
    30   24   25 1
    31   24   26 1
    32    3   27 1
    33    6   28 1
    34   10   29 1
    35   14   30 1
    36   15   31 1
    37   17   32 1
    38   20   33 1
    39   21   34 1
    40   25   35 1
    41   26   36 1
@<TRIPOS>PROPERTY_DATA
  Total_Score	| 6.0191
  Crash		| -0.7422
  Polar		| 3.0599
  FragIndex	| 1
  FragRMSD	| 1.428

