@<TRIPOS>MOLECULE
BindingDB_50302898
 49 53 0 0 0
SMALL
NO_CHARGES


@<TRIPOS>ATOM
1    C        22.0157   10.7980   56.9200  C     
2    C        23.1380   11.6591   56.9465  C     
3    C        24.2825   11.2750   57.6673  C     
4    N        24.3018   10.1083   58.3601  N     
5    C        22.0613    9.5763   57.6522  C     
6    C        23.2435    9.2557   58.3805  C     
7    C        23.3163    8.0699   59.1423  C     
8    C        22.2067    7.2031   59.2218  C     
9    C        21.0343    7.5053   58.4991  C     
10   C        20.9665    8.6756   57.7126  C     
11   O        22.2337    6.0458   59.9501  O     
12   C        22.6901    6.2165   61.2954  C     
13   C        17.4863   13.2539   58.0958  C     
14   C        17.5092   14.5859   58.5296  C     
15   C        18.5091   15.4268   58.1578  C     
16   N        18.4428   12.8837   57.2982  N     
17   N        19.3825   13.6635   56.8954  N     
18   C        19.4718   14.9439   57.2910  C     
19   N        20.5233   15.5002   56.6756  N     
20   N        21.0725   14.5757   55.9233  N     
21   C        20.3838   13.4249   56.0408  C     
22   C        20.5763   12.1371   55.3211  C     
23   O        20.8340   11.0803   56.2675  O     
24   C        16.5525   12.2796   58.5088  C     
25   C        16.3281   11.0985   57.7396  C     
26   C        15.4127   10.1147   58.1504  C     
27   C        14.7077   10.2722   59.3557  C     
28   C        14.9086   11.4231   60.1380  C     
29   C        15.8320   12.3992   59.7309  C     
30   C        21.5565   12.2051   54.1294  C     
31   H        23.1159   12.6117   56.5895  H     
32   H        25.0874   11.9071   57.7092  H     
33   H        24.1662    7.8422   59.6600  H     
34   H        20.2270    6.8739   58.5539  H     
35   H        20.0865    8.8658   57.2220  H     
36   H        23.7631    6.4071   61.3028  H     
37   H        22.5182    5.2944   61.8452  H     
38   H        22.1724    7.0193   61.8188  H     
39   H        16.7519   14.9630   59.0488  H     
40   H        18.5234   16.3771   58.4571  H     
41   H        19.5901   11.8987   54.8864  H     
42   H        16.8285   10.9444   56.8585  H     
43   H        15.2595    9.2801   57.5741  H     
44   H        14.0528    9.5539   59.6589  H     
45   H        14.3927   11.5427   61.0145  H     
46   H        15.9833   13.2013   60.3501  H     
47   H        21.1667   12.8459   53.3274  H     
48   H        21.7384   11.2070   53.7184  H     
49   H        22.4888   12.6227   54.4734  H     
@<TRIPOS>BOND
     1    1    2 2
     2    1    5 1
     3    1   23 1
     4    2    3 1
     5    3    4 2
     6    4    6 1
     7    5    6 2
     8    5   10 1
     9    6    7 1
    10    7    8 2
    11    8    9 1
    12    8   11 1
    13    9   10 2
    14   11   12 1
    15   13   14 1
    16   13   16 2
    17   13   24 1
    18   14   15 2
    19   15   18 1
    20   16   17 1
    21   17   18 1
    22   17   21 1
    23   18   19 2
    24   19   20 1
    25   20   21 2
    26   21   22 1
    27   22   23 1
    28   22   30 1
    29   24   25 2
    30   24   29 1
    31   25   26 1
    32   26   27 2
    33   27   28 1
    34   28   29 2
    35    2   31 1
    36    3   32 1
    37    7   33 1
    38    9   34 1
    39   10   35 1
    40   12   36 1
    41   12   37 1
    42   12   38 1
    43   14   39 1
    44   15   40 1
    45   22   41 1
    46   25   42 1
    47   26   43 1
    48   27   44 1
    49   28   45 1
    50   29   46 1
    51   30   47 1
    52   30   48 1
    53   30   49 1
@<TRIPOS>PROPERTY_DATA
  Total_Score	| 10.8508
  Crash		| -1.3021
  Polar		| 2.1173
  FragIndex	| 1
  FragRMSD	| 0.237

