@<TRIPOS>MOLECULE
BindingDB_50302902
 46 50 0 0 0
SMALL
NO_CHARGES


@<TRIPOS>ATOM
1    C        22.1978   10.9841   56.9076  C     
2    C        23.3165   11.8514   57.0403  C     
3    C        24.3823   11.4934   57.8833  C     
4    N        24.3532   10.3178   58.5605  N     
5    C        22.1943    9.7720   57.6486  C     
6    C        23.3109    9.4590   58.4741  C     
7    C        23.3221    8.2473   59.1929  C     
8    C        22.2104    7.3799   59.1544  C     
9    C        21.1363    7.7247   58.3150  C     
10   N        21.1609    8.8834   57.6085  N     
11   O        22.1745    6.1832   59.8147  O     
12   C        22.5706    6.2032   61.2045  C     
13   C        17.8537   13.4112   58.0592  C     
14   C        17.9412   14.7348   58.5127  C     
15   C        18.9152   15.5699   58.0835  C     
16   N        18.7548   13.0399   57.1963  N     
17   N        19.7012   13.8105   56.7583  N     
18   C        19.8246   15.0815   57.1700  C     
19   N        20.8805   15.6361   56.5587  N     
20   N        21.4064   14.7279   55.7836  N     
21   C        20.6997   13.5873   55.8926  C     
22   C        20.9752   12.3261   55.1758  C     
23   N        21.1477   11.2372   56.0830  N     
24   C        16.8643   12.4737   58.4657  C     
25   C        16.0573   12.6468   59.6241  C     
26   C        15.0677   11.7142   59.9971  C     
27   C        14.8574   10.5651   59.2275  C     
28   C        15.6439   10.3468   58.0864  C     
29   C        16.6303   11.2833   57.7210  C     
30   F        13.9389    9.7065   59.5810  F     
31   F        15.4730    9.2695   57.3698  F     
32   H        23.3710   12.7302   56.5257  H     
33   H        25.1900   12.1074   57.9792  H     
34   H        24.1437    8.0005   59.7500  H     
35   H        20.3301    7.1083   58.2244  H     
36   H        23.6492    6.3703   61.3010  H     
37   H        22.3490    5.2295   61.6478  H     
38   H        22.0323    6.9691   61.7761  H     
39   H        17.2749   15.1010   59.1477  H     
40   H        18.9797   16.4998   58.4056  H     
41   H        20.1088   12.1147   54.5476  H     
42   H        21.8419   12.4277   54.5198  H     
43   H        20.4302   10.5851   56.0868  H     
44   H        16.1843   13.4537   60.2325  H     
45   H        14.4990   11.8837   60.8304  H     
46   H        17.1725   11.0891   56.8789  H     
@<TRIPOS>BOND
     1    1    2 2
     2    1    5 1
     3    1   23 1
     4    2    3 1
     5    3    4 2
     6    4    6 1
     7    5    6 2
     8    5   10 1
     9    6    7 1
    10    7    8 2
    11    8    9 1
    12    8   11 1
    13    9   10 2
    14   11   12 1
    15   13   14 1
    16   13   16 2
    17   13   24 1
    18   14   15 2
    19   15   18 1
    20   16   17 1
    21   17   18 1
    22   17   21 1
    23   18   19 2
    24   19   20 1
    25   20   21 2
    26   21   22 1
    27   22   23 1
    28   24   25 2
    29   24   29 1
    30   25   26 1
    31   26   27 2
    32   27   28 1
    33   27   30 1
    34   28   29 2
    35   28   31 1
    36    2   32 1
    37    3   33 1
    38    7   34 1
    39    9   35 1
    40   12   36 1
    41   12   37 1
    42   12   38 1
    43   14   39 1
    44   15   40 1
    45   22   41 1
    46   22   42 1
    47   23   43 1
    48   25   44 1
    49   26   45 1
    50   29   46 1
@<TRIPOS>PROPERTY_DATA
  Total_Score	| 11.5431
  Crash		| -0.5522
  Polar		| 2.3023
  FragIndex	| 1
  FragRMSD	| 0.238

