@<TRIPOS>MOLECULE
BindingDB_50302900
 46 50 0 0 0
SMALL
NO_CHARGES


@<TRIPOS>ATOM
1    C        22.0984   10.5171   56.8376  C     
2    C        23.2607   11.2779   56.6733  C     
3    C        24.2906   11.1430   57.6198  C     
4    N        24.2636   10.0745   58.4424  N     
5    C        22.0535    9.4431   57.7600  C     
6    C        23.2384    9.1652   58.5025  C     
7    C        23.3239    8.0011   59.2965  C     
8    C        22.1840    7.1911   59.5075  C     
9    C        20.9945    7.4885   58.8169  C     
10   C        20.9298    8.6030   57.9663  C     
11   O        22.2426    6.0059   60.1992  O     
12   C        22.6628    6.0385   61.5752  C     
13   C        17.7562   13.2519   58.0167  C     
14   C        17.7056   14.5498   58.5067  C     
15   C        18.6654   15.4679   58.1894  C     
16   N        18.7223   12.9707   57.1884  N     
17   N        19.6180   13.8372   56.7934  N     
18   C        19.6275   15.0885   57.2438  C     
19   N        20.6297   15.7622   56.6698  N     
20   N        21.2757   14.9432   55.8798  N     
21   C        20.6552   13.7433   55.9346  C     
22   C        20.9684   12.5739   55.1285  C     
23   S        20.6840   10.9578   55.9146  S     
24   C        16.7949   12.2482   58.3331  C     
25   C        15.9629   12.3326   59.4811  C     
26   C        14.9714   11.3643   59.7468  C     
27   C        14.7867   10.2764   58.8697  C     
28   C        15.6328   10.1491   57.7479  C     
29   C        16.6257   11.1181   57.4980  C     
30   H        23.3388   11.9867   55.9483  H     
31   H        25.0605   11.8160   57.6736  H     
32   H        24.2350    7.7363   59.6737  H     
33   H        20.1794    6.8678   58.8995  H     
34   H        20.0361    8.7956   57.4686  H     
35   H        23.7255    6.2897   61.6798  H     
36   H        22.5069    5.0579   62.0193  H     
37   H        22.0400    6.7454   62.1103  H     
38   H        16.9828   14.8392   59.1314  H     
39   H        18.7025   16.3617   58.6068  H     
40   H        20.3861   12.6224   54.2327  H     
41   H        21.9816   12.6275   54.7412  H     
42   H        16.0769   13.0919   60.1648  H     
43   H        14.3860   11.4474   60.5803  H     
44   H        14.0546    9.5838   59.0499  H     
45   H        15.5187    9.3639   57.1070  H     
46   H        17.2043   10.9853   56.6547  H     
@<TRIPOS>BOND
     1    1    2 2
     2    1    5 1
     3    1   23 1
     4    2    3 1
     5    3    4 2
     6    4    6 1
     7    5    6 2
     8    5   10 1
     9    6    7 1
    10    7    8 2
    11    8    9 1
    12    8   11 1
    13    9   10 2
    14   11   12 1
    15   13   14 1
    16   13   16 2
    17   13   24 1
    18   14   15 2
    19   15   18 1
    20   16   17 1
    21   17   18 1
    22   17   21 1
    23   18   19 2
    24   19   20 1
    25   20   21 2
    26   21   22 1
    27   22   23 1
    28   24   25 2
    29   24   29 1
    30   25   26 1
    31   26   27 2
    32   27   28 1
    33   28   29 2
    34    2   30 1
    35    3   31 1
    36    7   32 1
    37    9   33 1
    38   10   34 1
    39   12   35 1
    40   12   36 1
    41   12   37 1
    42   14   38 1
    43   15   39 1
    44   22   40 1
    45   22   41 1
    46   25   42 1
    47   26   43 1
    48   27   44 1
    49   28   45 1
    50   29   46 1
@<TRIPOS>PROPERTY_DATA
  Total_Score	| 10.4306
  Crash		| -1.2973
  Polar		| 2.3456
  FragIndex	| 1
  FragRMSD	| 0.182

