@<TRIPOS>MOLECULE
BindingDB_50302901
 46 50 0 0 0
SMALL
NO_CHARGES


@<TRIPOS>ATOM
1    C        22.2760   10.9890   56.8389  C     
2    C        23.4106   11.8319   56.9427  C     
3    C        24.4775   11.4760   57.7911  C     
4    N        24.4202   10.3262   58.5035  N     
5    C        22.2535    9.7921   57.6008  C     
6    C        23.3612    9.4798   58.4407  C     
7    C        23.3580    8.2884   59.1921  C     
8    C        22.2507    7.4140   59.1197  C     
9    C        21.1798    7.7523   58.2612  C     
10   N        21.2172    8.9073   57.5450  N     
11   O        22.2351    6.1987   59.7621  O     
12   C        22.6329    6.2167   61.1439  C     
13   C        17.6953   13.3123   57.9923  C     
14   C        17.7020   14.6262   58.4770  C     
15   C        18.6886   15.4934   58.1451  C     
16   N        18.6458   12.9889   57.1597  N     
17   N        19.5912   13.7961   56.8019  N     
18   C        19.6665   15.0518   57.2785  C     
19   N        20.7467   15.6585   56.7584  N     
20   N        21.3341   14.7946   55.9718  N     
21   C        20.6475   13.6286   55.9957  C     
22   C        20.9870   12.4181   55.2248  C     
23   N        21.2015   11.2729   56.0514  N     
24   C        16.7603   12.3151   58.3591  C     
25   C        16.0051   12.3927   59.5629  C     
26   C        15.1042   11.3779   59.9413  C     
27   C        14.9257   10.2464   59.1306  C     
28   C        15.6454   10.1425   57.9269  C     
29   C        16.5453   11.1594   57.5537  C     
30   H        23.4763   12.6963   56.4096  H     
31   H        25.2940   12.0839   57.8790  H     
32   H        24.1674    8.0427   59.7742  H     
33   H        20.3868    7.1196   58.1495  H     
34   H        23.7112    6.3485   61.2354  H     
35   H        22.3715    5.2584   61.5886  H     
36   H        22.1160    7.0016   61.6967  H     
37   H        16.9491   14.9718   59.0334  H     
38   H        18.7206   16.4195   58.4972  H     
39   H        20.1467   12.1981   54.5618  H     
40   H        21.8607   12.6077   54.5957  H     
41   H        20.5029   10.5995   56.0289  H     
42   H        16.1220   13.1727   60.2078  H     
43   H        14.5795   11.4580   60.8167  H     
44   H        14.2716    9.5078   59.4077  H     
45   H        15.5183    9.3219   57.3251  H     
46   H        17.0355   11.0451   56.6606  H     
@<TRIPOS>BOND
     1    1    2 2
     2    1    5 1
     3    1   23 1
     4    2    3 1
     5    3    4 2
     6    4    6 1
     7    5    6 2
     8    5   10 1
     9    6    7 1
    10    7    8 2
    11    8    9 1
    12    8   11 1
    13    9   10 2
    14   11   12 1
    15   13   14 1
    16   13   16 2
    17   13   24 1
    18   14   15 2
    19   15   18 1
    20   16   17 1
    21   17   18 1
    22   17   21 1
    23   18   19 2
    24   19   20 1
    25   20   21 2
    26   21   22 1
    27   22   23 1
    28   24   25 2
    29   24   29 1
    30   25   26 1
    31   26   27 2
    32   27   28 1
    33   28   29 2
    34    2   30 1
    35    3   31 1
    36    7   32 1
    37    9   33 1
    38   12   34 1
    39   12   35 1
    40   12   36 1
    41   14   37 1
    42   15   38 1
    43   22   39 1
    44   22   40 1
    45   23   41 1
    46   25   42 1
    47   26   43 1
    48   27   44 1
    49   28   45 1
    50   29   46 1
@<TRIPOS>PROPERTY_DATA
  Total_Score	| 11.2879
  Crash		| -0.6133
  Polar		| 2.3286
  FragIndex	| 1
  FragRMSD	| 0.106

