@<TRIPOS>MOLECULE
BindingDB_24472
 46 50 0 0 0
SMALL
NO_CHARGES


@<TRIPOS>ATOM
1    C        15.5940   10.1883   57.8826  C     
2    C        14.8042   10.3352   59.0318  C     
3    C        14.9940   11.4529   59.8688  C     
4    C        15.9552   12.4268   59.5263  C     
5    C        16.5531   11.1639   57.5497  C     
6    C        16.7483   12.3216   58.3549  C     
7    C        17.6990   13.2998   57.9953  C     
8    C        17.6984   14.6096   58.4764  C     
9    C        20.6391   13.6081   55.9958  C     
10   C        19.6628   15.0390   57.2720  C     
11   N        19.5949   13.7809   56.8137  N     
12   N        21.3277   14.7692   55.9712  N     
13   N        20.7385   15.6375   56.7438  N     
14   C        20.9684   12.3890   55.2345  C     
15   C        18.6761   15.4795   58.1405  C     
16   N        18.6527   12.9720   57.1728  N     
17   O        21.1037   11.2274   56.0758  O     
18   C        22.2058   10.9619   56.8680  C     
19   C        23.3445   11.7940   56.9531  C     
20   C        24.4348   11.4210   57.7554  C     
21   C        23.3295    9.4183   58.4138  C     
22   C        22.2463    7.3562   59.1611  C     
23   C        21.1119    7.7023   58.4047  C     
24   C        21.0809    8.8833   57.6444  C     
25   C        22.1891    9.7602   57.6241  C     
26   C        23.3637    8.2208   59.1686  C     
27   N        24.3972   10.2567   58.4469  N     
28   O        22.2202    6.1463   59.8107  O     
29   C        22.6386    6.1772   61.1888  C     
30   F        14.2898   11.5855   60.9528  F     
31   H        15.4712    9.3692   57.2790  H     
32   H        14.1019    9.6293   59.2665  H     
33   H        16.0764   13.2096   60.1741  H     
34   H        17.0961   11.0159   56.6996  H     
35   H        16.9491   14.9452   59.0314  H     
36   H        20.1390   12.1930   54.5525  H     
37   H        21.8640   12.5364   54.6243  H     
38   H        18.6770   16.4137   58.4783  H     
39   H        23.3944   12.6738   56.4390  H     
40   H        25.2611   12.0204   57.8181  H     
41   H        20.2948    7.0871   58.4052  H     
42   H        20.2305    9.0984   57.1175  H     
43   H        24.1905    7.9780   59.7251  H     
44   H        23.7123    6.3617   61.2372  H     
45   H        22.4271    5.1970   61.6485  H     
46   H        22.0976    6.9324   61.7688  H     
@<TRIPOS>BOND
     1    1    2 2
     2    1    5 1
     3    2    3 1
     4    3    4 2
     5    3   30 1
     6    4    6 1
     7    5    6 2
     8    6    7 1
     9    7    8 1
    10    7   16 2
    11    8   15 2
    12    9   11 1
    13    9   12 2
    14    9   14 1
    15   10   11 1
    16   10   13 2
    17   10   15 1
    18   11   16 1
    19   12   13 1
    20   14   17 1
    21   17   18 1
    22   18   19 2
    23   18   25 1
    24   19   20 1
    25   20   27 2
    26   21   25 2
    27   21   26 1
    28   21   27 1
    29   22   23 1
    30   22   26 2
    31   22   28 1
    32   23   24 2
    33   24   25 1
    34   28   29 1
    35    1   31 1
    36    2   32 1
    37    4   33 1
    38    5   34 1
    39    8   35 1
    40   14   36 1
    41   14   37 1
    42   15   38 1
    43   19   39 1
    44   20   40 1
    45   23   41 1
    46   24   42 1
    47   26   43 1
    48   29   44 1
    49   29   45 1
    50   29   46 1
@<TRIPOS>PROPERTY_DATA
  Total_Score	| 11.2279
  Crash		| -0.6115
  Polar		| 2.3329
  FragIndex	| 1
  FragRMSD	| 0.119

