@<TRIPOS>MOLECULE
BindingDB_24475
 46 50 0 0 0
SMALL
NO_CHARGES


@<TRIPOS>ATOM
1    C        15.1126   11.5549   60.0940  C     
2    C        14.9263   10.3888   59.3410  C     
3    C        15.6469   10.2068   58.1430  C     
4    C        16.5528   11.2020   57.7109  C     
5    C        16.0215   12.5457   59.6579  C     
6    C        16.7670   12.3969   58.4500  C     
7    C        17.7020   13.3611   58.0266  C     
8    C        17.7266   14.6900   58.4577  C     
9    C        20.6831   13.5553   56.0469  C     
10   C        19.7373   15.0202   57.3100  C     
11   N        19.6332   13.7541   56.8630  N     
12   N        21.4035   14.6959   56.0234  N     
13   N        20.8368   15.5850   56.7879  N     
14   C        20.9603   12.3748   55.2095  C     
15   C        18.7420   15.5168   58.1361  C     
16   N        18.6623   12.9844   57.2265  N     
17   O        21.1001   11.1280   55.9162  O     
18   C        22.1670   10.8723   56.7582  C     
19   C        23.3638   11.6315   56.7361  C     
20   C        24.4142   11.3054   57.6168  C     
21   C        23.2341    9.3906   58.3983  C     
22   C        22.1306    7.3365   59.1462  C     
23   C        20.9973    7.6821   58.3819  C     
24   C        20.9760    8.8712   57.6325  C     
25   C        22.1027    9.7298   57.5995  C     
26   C        23.2516    8.1999   59.1510  C     
27   N        24.3279   10.1986   58.3955  N     
28   O        22.1274    6.1122   59.7709  O     
29   C        22.4883    6.1101   61.1588  C     
30   F        15.4710    9.1214   57.4426  F     
31   F        14.4398   11.7162   61.2091  F     
32   H        14.2689    9.6624   59.6551  H     
33   H        17.0444   11.0354   56.8277  H     
34   H        16.1344   13.3608   60.2584  H     
35   H        16.9771   15.0684   58.9850  H     
36   H        20.1069   12.2512   54.5307  H     
37   H        21.8399   12.5737   54.6040  H     
38   H        18.7700   16.4595   58.4562  H     
39   H        23.4984   12.3837   56.0628  H     
40   H        25.2745   11.8585   57.6319  H     
41   H        20.1801    7.0608   58.3670  H     
42   H        20.1393    9.0942   57.0850  H     
43   H        24.0856    7.9353   59.6901  H     
44   H        23.5503    6.3431   61.2714  H     
45   H        22.2988    5.1112   61.5646  H     
46   H        21.8910    6.8277   61.7229  H     
@<TRIPOS>BOND
     1    1    2 2
     2    1    5 1
     3    1   31 1
     4    2    3 1
     5    3    4 2
     6    3   30 1
     7    4    6 1
     8    5    6 2
     9    6    7 1
    10    7    8 1
    11    7   16 2
    12    8   15 2
    13    9   11 1
    14    9   12 2
    15    9   14 1
    16   10   11 1
    17   10   13 2
    18   10   15 1
    19   11   16 1
    20   12   13 1
    21   14   17 1
    22   17   18 1
    23   18   19 2
    24   18   25 1
    25   19   20 1
    26   20   27 2
    27   21   25 2
    28   21   26 1
    29   21   27 1
    30   22   23 1
    31   22   26 2
    32   22   28 1
    33   23   24 2
    34   24   25 1
    35   28   29 1
    36    2   32 1
    37    4   33 1
    38    5   34 1
    39    8   35 1
    40   14   36 1
    41   14   37 1
    42   15   38 1
    43   19   39 1
    44   20   40 1
    45   23   41 1
    46   24   42 1
    47   26   43 1
    48   29   44 1
    49   29   45 1
    50   29   46 1
@<TRIPOS>PROPERTY_DATA
  Total_Score	| 11.2100
  Crash		| -0.6485
  Polar		| 2.3154
  FragIndex	| 1
  FragRMSD	| 0.200

