@<TRIPOS>MOLECULE
BindingDB_50302905
 45 49 0 0 0
SMALL
NO_CHARGES


@<TRIPOS>ATOM
1    C        22.1651   10.9585   56.8456  C     
2    C        23.3131   11.7925   56.8653  C     
3    C        24.4333   11.4183   57.6308  C     
4    N        24.4241   10.2638   58.3374  N     
5    C        22.1875    9.7669   57.6133  C     
6    C        23.3537    9.4319   58.3556  C     
7    C        23.3860    8.2377   59.0946  C     
8    C        22.2507    7.3947   59.1295  C     
9    C        21.1251    7.7635   58.3656  C     
10   N        21.1201    8.9149   57.6556  N     
11   O        22.2341    6.1845   59.7801  O     
12   C        22.5883    6.2159   61.1802  C     
13   C        17.6487   13.3910   58.0861  C     
14   C        17.7017   14.7045   58.5443  C     
15   C        18.6870   15.5392   58.1545  C     
16   N        18.5688   13.0213   57.2445  N     
17   N        19.5208   13.7907   56.8354  N     
18   C        19.6272   15.0570   57.2642  C     
19   N        20.6926   15.6249   56.6857  N     
20   N        21.2380   14.7324   55.9129  N     
21   C        20.5366   13.5820   55.9850  C     
22   C        20.8182   12.3406   55.2384  C     
23   N        21.0542   11.2261   56.1081  N     
24   C        16.7038   12.4763   58.4940  C     
25   S        15.5558   12.7461   59.7381  S     
26   N        14.9808   11.2141   59.5270  N     
27   C        15.5795   10.5410   58.6187  C     
28   C        16.5507   11.2336   58.0099  C     
29   C        15.2109    9.1721   58.3324  C     
30   H        23.3599   12.6515   56.3196  H     
31   H        25.2645   12.0146   57.6496  H     
32   H        24.2247    7.9803   59.6181  H     
33   H        20.2972    7.1567   58.3293  H     
34   H        23.6645    6.3645   61.2998  H     
35   H        22.3355    5.2472   61.6163  H     
36   H        22.0395    6.9937   61.7264  H     
37   H        17.0093   15.0592   59.1558  H     
38   H        18.7414   16.4705   58.4895  H     
39   H        19.9372   12.1123   54.6424  H     
40   H        21.6540   12.4726   54.5536  H     
41   H        20.3505   10.5538   56.1411  H     
42   H        17.1075   10.8486   57.2807  H     
43   H        15.3357    8.5607   59.2362  H     
44   H        15.8322    8.7473   57.5409  H     
45   H        14.1614    9.1339   58.0198  H     
@<TRIPOS>BOND
     1    1    2 2
     2    1    5 1
     3    1   23 1
     4    2    3 1
     5    3    4 2
     6    4    6 1
     7    5    6 2
     8    5   10 1
     9    6    7 1
    10    7    8 2
    11    8    9 1
    12    8   11 1
    13    9   10 2
    14   11   12 1
    15   13   14 1
    16   13   16 2
    17   13   24 1
    18   14   15 2
    19   15   18 1
    20   16   17 1
    21   17   18 1
    22   17   21 1
    23   18   19 2
    24   19   20 1
    25   20   21 2
    26   21   22 1
    27   22   23 1
    28   24   25 1
    29   24   28 2
    30   25   26 1
    31   26   27 2
    32   27   28 1
    33   27   29 1
    34    2   30 1
    35    3   31 1
    36    7   32 1
    37    9   33 1
    38   12   34 1
    39   12   35 1
    40   12   36 1
    41   14   37 1
    42   15   38 1
    43   22   39 1
    44   22   40 1
    45   23   41 1
    46   28   42 1
    47   29   43 1
    48   29   44 1
    49   29   45 1
@<TRIPOS>PROPERTY_DATA
  Total_Score	| 9.9319
  Crash		| -0.7014
  Polar		| 2.2992
  FragIndex	| 1
  FragRMSD	| 0.335

