@<TRIPOS>MOLECULE
BindingDB_50302897
 49 53 0 0 0
SMALL
NO_CHARGES


@<TRIPOS>ATOM
1    C        22.3882   10.8960   57.0490  C     
2    C        23.5552   11.6905   57.1181  C     
3    C        24.6471   11.2660   57.9029  C     
4    N        24.5747   10.0837   58.5556  N     
5    C        22.3377    9.6802   57.7863  C     
6    C        23.4843    9.2827   58.5269  C     
7    C        23.4964    8.0702   59.2442  C     
8    C        22.3416    7.2607   59.2926  C     
9    C        21.1967    7.6617   58.5800  C     
10   C        21.1928    8.8471   57.8253  C     
11   O        22.3164    6.0523   59.9455  O     
12   C        22.6792    6.0815   61.3348  C     
13   C        17.8224   13.2467   57.8703  C     
14   C        17.7623   14.5727   58.3003  C     
15   C        18.7127   15.4696   57.9520  C     
16   N        18.8238   12.9251   57.0952  N     
17   N        19.7429   13.7544   56.7304  N     
18   C        19.7380   15.0350   57.1359  C     
19   N        20.8204   15.6555   56.6445  N     
20   N        21.4905   14.7758   55.9605  N     
21   C        20.8498   13.5903   55.9900  C     
22   C        21.3433   12.3507   55.3513  C     
23   O        21.2980   11.2434   56.2802  O     
24   C        16.9112   12.2466   58.2619  C     
25   C        16.7197   11.0776   57.4750  C     
26   C        15.8098   10.0733   57.8551  C     
27   C        15.0710   10.2060   59.0418  C     
28   C        15.2553   11.3353   59.8545  C     
29   C        16.1653   12.3377   59.4718  C     
30   C        20.5037   11.9845   54.1042  C     
31   H        23.6324   12.5635   56.5861  H     
32   H        25.4865   11.8360   57.9736  H     
33   H        24.3399    7.7761   59.7416  H     
34   H        20.3598    7.0777   58.6019  H     
35   H        20.3468    9.1046   57.3212  H     
36   H        23.7449    6.2644   61.4540  H     
37   H        22.4656    5.0985   61.7593  H     
38   H        22.1143    6.8310   61.8903  H     
39   H        16.9910   14.8996   58.8335  H     
40   H        18.6795   16.4073   58.2791  H     
41   H        22.3748   12.5190   55.0256  H     
42   H        17.2305   10.9473   56.5976  H     
43   H        15.6845    9.2465   57.2680  H     
44   H        14.4106    9.4773   59.3201  H     
45   H        14.7329   11.4262   60.7280  H     
46   H        16.2893   13.1278   60.1075  H     
47   H        19.4608   11.8109   54.3680  H     
48   H        20.9000   11.0749   53.6464  H     
49   H        20.5607   12.7776   53.3533  H     
@<TRIPOS>BOND
     1    1    2 2
     2    1    5 1
     3    1   23 1
     4    2    3 1
     5    3    4 2
     6    4    6 1
     7    5    6 2
     8    5   10 1
     9    6    7 1
    10    7    8 2
    11    8    9 1
    12    8   11 1
    13    9   10 2
    14   11   12 1
    15   13   14 1
    16   13   16 2
    17   13   24 1
    18   14   15 2
    19   15   18 1
    20   16   17 1
    21   17   18 1
    22   17   21 1
    23   18   19 2
    24   19   20 1
    25   20   21 2
    26   21   22 1
    27   22   23 1
    28   22   30 1
    29   24   25 2
    30   24   29 1
    31   25   26 1
    32   26   27 2
    33   27   28 1
    34   28   29 2
    35    2   31 1
    36    3   32 1
    37    7   33 1
    38    9   34 1
    39   10   35 1
    40   12   36 1
    41   12   37 1
    42   12   38 1
    43   14   39 1
    44   15   40 1
    45   22   41 1
    46   25   42 1
    47   26   43 1
    48   27   44 1
    49   28   45 1
    50   29   46 1
    51   30   47 1
    52   30   48 1
    53   30   49 1
@<TRIPOS>PROPERTY_DATA
  Total_Score	| 11.6094
  Crash		| -1.2380
  Polar		| 2.1173
  FragIndex	| 1
  FragRMSD	| 0.246

