@<TRIPOS>MOLECULE
BindingDB_24477
 53 57 0 0 0
SMALL
NO_CHARGES


@<TRIPOS>ATOM
1    C        15.0782   11.3246   60.1228  C     
2    C        14.8335   10.1692   59.3420  C     
3    C        15.5446   10.0599   58.1182  C     
4    C        16.4559   11.0442   57.7008  C     
5    C        15.9815   12.3196   59.6997  C     
6    C        16.6783   12.2136   58.4674  C     
7    C        17.5589   13.2142   58.0162  C     
8    C        17.4669   14.5453   58.4078  C     
9    C        20.5611   13.5977   56.1180  C     
10   C        19.4891   14.9983   57.3350  C     
11   N        19.4754   13.7301   56.8842  N     
12   N        21.2000   14.7842   56.0932  N     
13   N        20.5533   15.6373   56.8310  N     
14   C        20.9593   12.4334   55.3181  C     
15   C        18.4528   15.4223   58.1361  C     
16   N        18.5537   12.8932   57.2350  N     
17   O        21.1443   11.2019   56.0506  O     
18   C        22.2409   10.9601   56.8536  C     
19   C        23.4003   11.7780   56.8936  C     
20   C        24.4400   11.4587   57.7878  C     
21   C        23.3517    9.4479   58.4547  C     
22   C        22.3060    7.3536   59.1802  C     
23   C        21.1772    7.6872   58.4132  C     
24   C        21.1311    8.8666   57.6500  C     
25   C        22.2223    9.7761   57.6446  C     
26   C        23.4171    8.2334   59.1732  C     
27   N        24.3867   10.3188   58.5174  N     
28   O        22.3224    6.1487   59.8245  O     
29   C        22.6748    6.1755   61.2253  C     
30   C        13.9277    9.1711   59.7463  C     
31   O        13.5802    8.3232   58.9312  O     
32   N        13.4278    9.0950   60.9785  N     
33   C        12.4488    8.1501   61.4136  C     
34   H        14.5840   11.4702   61.0042  H     
35   H        15.4304    9.2454   57.5092  H     
36   H        16.9425   10.9035   56.8084  H     
37   H        16.1350   13.1198   60.3184  H     
38   H        16.6293   14.8896   58.8192  H     
39   H        20.1527   12.2484   54.6066  H     
40   H        21.8391   12.7014   54.7290  H     
41   H        18.4043   16.3641   58.4364  H     
42   H        23.4923   12.5775   56.2439  H     
43   H        25.2415   12.0801   57.8755  H     
44   H        20.3804    7.0409   58.3765  H     
45   H        20.3023    9.0592   57.0887  H     
46   H        24.2696    7.9602   59.6753  H     
47   H        23.7608    6.2013   61.3426  H     
48   H        22.3025    5.2542   61.6854  H     
49   H        22.2289    7.0178   61.7647  H     
50   H        13.7513    9.7204   61.6494  H     
51   H        11.5224    8.2787   60.8551  H     
52   H        12.2370    8.3097   62.4703  H     
53   H        12.8054    7.1289   61.2828  H     
@<TRIPOS>BOND
     1    1    2 2
     2    1    5 1
     3    2    3 1
     4    2   30 1
     5    3    4 2
     6    4    6 1
     7    5    6 2
     8    6    7 1
     9    7    8 1
    10    7   16 2
    11    8   15 2
    12    9   11 1
    13    9   12 2
    14    9   14 1
    15   10   11 1
    16   10   13 2
    17   10   15 1
    18   11   16 1
    19   12   13 1
    20   14   17 1
    21   17   18 1
    22   18   19 2
    23   18   25 1
    24   19   20 1
    25   20   27 2
    26   21   25 2
    27   21   26 1
    28   21   27 1
    29   22   23 1
    30   22   26 2
    31   22   28 1
    32   23   24 2
    33   24   25 1
    34   28   29 1
    35   30   31 2
    36   30   32 am
    37   32   33 1
    38    1   34 1
    39    3   35 1
    40    4   36 1
    41    5   37 1
    42    8   38 1
    43   14   39 1
    44   14   40 1
    45   15   41 1
    46   19   42 1
    47   20   43 1
    48   23   44 1
    49   24   45 1
    50   26   46 1
    51   29   47 1
    52   29   48 1
    53   29   49 1
    54   32   50 1
    55   33   51 1
    56   33   52 1
    57   33   53 1
@<TRIPOS>PROPERTY_DATA
  Total_Score	| 11.3694
  Crash		| -0.5875
  Polar		| 2.9891
  FragIndex	| 1
  FragRMSD	| 0.140

