@<TRIPOS>MOLECULE
BindingDB_50302899
 47 51 0 0 0
SMALL
NO_CHARGES


@<TRIPOS>ATOM
1    C        22.2015   10.9098   56.8795  C     
2    C        23.3607   11.7145   56.9361  C     
3    C        24.4697   11.3180   57.7060  C     
4    N        24.4238   10.1541   58.3981  N     
5    C        22.1773    9.7043   57.6469  C     
6    C        23.3358    9.3464   58.4034  C     
7    C        23.3756    8.1495   59.1604  C     
8    C        22.2415    7.3108   59.2205  C     
9    C        21.0961    7.6586   58.4766  C     
10   C        21.0605    8.8356   57.7090  C     
11   O        22.2288    6.1157   59.8944  O     
12   C        22.6351    6.1618   61.2728  C     
13   C        17.7309   13.3040   57.9998  C     
14   C        17.7466   14.6102   58.4934  C     
15   C        18.7172   15.4842   58.1400  C     
16   N        18.6787   12.9833   57.1669  N     
17   N        19.6174   13.7902   56.7958  N     
18   C        19.6852   15.0520   57.2500  C     
19   N        20.7519   15.6530   56.7043  N     
20   N        21.3343   14.7826   55.9315  N     
21   C        20.6574   13.6192   55.9710  C     
22   C        20.9882   12.3897   55.2220  C     
23   N        21.1431   11.2515   56.0825  N     
24   C        16.7703   12.3258   58.3438  C     
25   C        16.6207   11.1488   57.5559  C     
26   C        15.6592   10.1687   57.8628  C     
27   C        14.8127   10.3351   58.9704  C     
28   C        14.9478   11.4718   59.7817  C     
29   C        15.9171   12.4476   59.4767  C     
30   H        23.4277   12.5955   56.4209  H     
31   H        25.3080   11.8971   57.7414  H     
32   H        24.2224    7.8933   59.6703  H     
33   H        20.2776    7.0421   58.4941  H     
34   H        20.2000    9.0425   57.2010  H     
35   H        23.7140    6.3247   61.3473  H     
36   H        22.3990    5.1938   61.7330  H     
37   H        22.1066    6.9344   61.8380  H     
38   H        17.0288   14.9348   59.1014  H     
39   H        18.7359   16.4104   58.4991  H     
40   H        20.1550   12.1910   54.5439  H     
41   H        21.8778   12.5369   54.6043  H     
42   H        20.3983   10.6330   56.0633  H     
43   H        17.2033   10.9878   56.7316  H     
44   H        15.5701    9.3346   57.2737  H     
45   H        14.1059    9.6324   59.1879  H     
46   H        14.3432   11.5924   60.5971  H     
47   H        15.9966   13.2459   60.1126  H     
@<TRIPOS>BOND
     1    1    2 2
     2    1    5 1
     3    1   23 1
     4    2    3 1
     5    3    4 2
     6    4    6 1
     7    5    6 2
     8    5   10 1
     9    6    7 1
    10    7    8 2
    11    8    9 1
    12    8   11 1
    13    9   10 2
    14   11   12 1
    15   13   14 1
    16   13   16 2
    17   13   24 1
    18   14   15 2
    19   15   18 1
    20   16   17 1
    21   17   18 1
    22   17   21 1
    23   18   19 2
    24   19   20 1
    25   20   21 2
    26   21   22 1
    27   22   23 1
    28   24   25 2
    29   24   29 1
    30   25   26 1
    31   26   27 2
    32   27   28 1
    33   28   29 2
    34    2   30 1
    35    3   31 1
    36    7   32 1
    37    9   33 1
    38   10   34 1
    39   12   35 1
    40   12   36 1
    41   12   37 1
    42   14   38 1
    43   15   39 1
    44   22   40 1
    45   22   41 1
    46   23   42 1
    47   25   43 1
    48   26   44 1
    49   27   45 1
    50   28   46 1
    51   29   47 1
@<TRIPOS>PROPERTY_DATA
  Total_Score	| 11.3140
  Crash		| -0.6600
  Polar		| 2.3413
  FragIndex	| 1
  FragRMSD	| 0.129

