@<TRIPOS>MOLECULE
BindingDB_24473
 46 50 0 0 0
SMALL
NO_CHARGES


@<TRIPOS>ATOM
1    C        15.0189   11.4303   59.8884  C     
2    C        14.8380   10.2866   59.0954  C     
3    C        15.6284   10.1107   57.9439  C     
4    C        16.5812   11.0824   57.5814  C     
5    C        15.9733   12.3999   59.5270  C     
6    C        16.7717   12.2699   58.3537  C     
7    C        17.7116   13.2636   58.0042  C     
8    C        17.6896   14.5801   58.4698  C     
9    C        20.6703   13.5976   56.0338  C     
10   C        19.6709   15.0271   57.2971  C     
11   N        19.6236   13.7624   56.8505  N     
12   N        21.3462   14.7646   56.0043  N     
13   N        20.7437   15.6301   56.7676  N     
14   C        20.9957   12.3766   55.2689  C     
15   C        18.6673   15.4596   58.1453  C     
16   N        18.6872   12.9413   57.2057  N     
17   O        21.1128   11.2159   56.1138  O     
18   C        22.2167   10.9361   56.8969  C     
19   C        23.3690   11.7543   56.9723  C     
20   C        24.4604   11.3601   57.7628  C     
21   C        23.3299    9.3716   58.4219  C     
22   C        22.2233    7.3288   59.1927  C     
23   C        21.0849    7.6832   58.4440  C     
24   C        21.0647    8.8672   57.6832  C     
25   C        22.1868    9.7318   57.6535  C     
26   C        23.3551    8.1695   59.1702  C     
27   N        24.4108   10.1931   58.4489  N     
28   O        22.1966    6.1288   59.8567  O     
29   C        22.5905    6.1745   61.2409  C     
30   F        17.2562   10.8350   56.4849  F     
31   H        14.4565   11.5533   60.7352  H     
32   H        14.1451    9.5836   59.3535  H     
33   H        15.4991    9.2695   57.3769  H     
34   H        16.0860   13.1967   60.1550  H     
35   H        16.9317   14.9130   59.0193  H     
36   H        20.1631   12.1895   54.5838  H     
37   H        21.8925   12.5170   54.6592  H     
38   H        18.6577   16.3955   58.4857  H     
39   H        23.4339   12.6338   56.4568  H     
40   H        25.2966   11.9461   57.8243  H     
41   H        20.2618    7.0768   58.4505  H     
42   H        20.2159    9.0946   57.1613  H     
43   H        24.1835    7.9065   59.7105  H     
44   H        23.6652    6.3636   61.3161  H     
45   H        22.3716    5.1948   61.6924  H     
46   H        22.0352    6.9369   61.7993  H     
@<TRIPOS>BOND
     1    1    2 2
     2    1    5 1
     3    2    3 1
     4    3    4 2
     5    4    6 1
     6    4   30 1
     7    5    6 2
     8    6    7 1
     9    7    8 1
    10    7   16 2
    11    8   15 2
    12    9   11 1
    13    9   12 2
    14    9   14 1
    15   10   11 1
    16   10   13 2
    17   10   15 1
    18   11   16 1
    19   12   13 1
    20   14   17 1
    21   17   18 1
    22   18   19 2
    23   18   25 1
    24   19   20 1
    25   20   27 2
    26   21   25 2
    27   21   26 1
    28   21   27 1
    29   22   23 1
    30   22   26 2
    31   22   28 1
    32   23   24 2
    33   24   25 1
    34   28   29 1
    35    1   31 1
    36    2   32 1
    37    3   33 1
    38    5   34 1
    39    8   35 1
    40   14   36 1
    41   14   37 1
    42   15   38 1
    43   19   39 1
    44   20   40 1
    45   23   41 1
    46   24   42 1
    47   26   43 1
    48   29   44 1
    49   29   45 1
    50   29   46 1
@<TRIPOS>PROPERTY_DATA
  Total_Score	| 11.2599
  Crash		| -0.5609
  Polar		| 2.3310
  FragIndex	| 1
  FragRMSD	| 0.095

