@<TRIPOS>MOLECULE
BindingDB_50302904
 46 50 0 0 0
SMALL
NO_CHARGES


@<TRIPOS>ATOM
1    C        22.2031   10.9945   56.9030  C     
2    C        23.3207   11.8542   57.0021  C     
3    C        24.4220   11.5066   57.8055  C     
4    N        24.4032   10.3396   58.4971  N     
5    C        22.2136    9.7975   57.6633  C     
6    C        23.3539    9.4826   58.4562  C     
7    C        23.3821    8.2698   59.1830  C     
8    C        22.2660    7.4049   59.1595  C     
9    C        21.1625    7.7700   58.3637  C     
10   N        21.1701    8.9298   57.6546  N     
11   O        22.2332    6.1901   59.7910  O     
12   C        22.5910    6.1638   61.1810  C     
13   C        17.7585   13.3753   58.0572  C     
14   C        17.8155   14.6822   58.5423  C     
15   C        18.7982   15.5317   58.1651  C     
16   N        18.6796   13.0325   57.2017  N     
17   N        19.6220   13.8157   56.8007  N     
18   C        19.7300   15.0778   57.2498  C     
19   N        20.7948   15.6543   56.6727  N     
20   N        21.3392   14.7664   55.8876  N     
21   C        20.6367   13.6184   55.9493  C     
22   C        20.9376   12.3731   55.2120  C     
23   N        21.1404   11.2534   56.0883  N     
24   C        16.8008   12.4125   58.4412  C     
25   C        16.6056   11.2365   57.6643  C     
26   C        15.6658   10.2542   58.0304  C     
27   C        14.8757   10.4326   59.1781  C     
28   C        15.0490   11.5768   59.9728  C     
29   C        16.0074   12.5466   59.6158  C     
30   F        14.3331   11.7321   61.0558  F     
31   F        15.5193    9.1847   57.2985  F     
32   H        23.3558   12.7359   56.4872  H     
33   H        25.2346   12.1270   57.8673  H     
34   H        24.2189    8.0168   59.7210  H     
35   H        20.3419    7.1576   58.3032  H     
36   H        23.6652    6.3264   61.3066  H     
37   H        22.3424    5.1745   61.5822  H     
38   H        22.0354    6.9108   61.7561  H     
39   H        17.1239   15.0255   59.1694  H     
40   H        18.8522   16.4569   58.5297  H     
41   H        20.0805   12.1535   54.5721  H     
42   H        21.8016   12.5123   54.5604  H     
43   H        20.4435   10.5786   56.0712  H     
44   H        17.1571   11.0695   56.8151  H     
45   H        14.1797    9.7287   59.4361  H     
46   H        16.1198   13.3491   60.2389  H     
@<TRIPOS>BOND
     1    1    2 2
     2    1    5 1
     3    1   23 1
     4    2    3 1
     5    3    4 2
     6    4    6 1
     7    5    6 2
     8    5   10 1
     9    6    7 1
    10    7    8 2
    11    8    9 1
    12    8   11 1
    13    9   10 2
    14   11   12 1
    15   13   14 1
    16   13   16 2
    17   13   24 1
    18   14   15 2
    19   15   18 1
    20   16   17 1
    21   17   18 1
    22   17   21 1
    23   18   19 2
    24   19   20 1
    25   20   21 2
    26   21   22 1
    27   22   23 1
    28   24   25 2
    29   24   29 1
    30   25   26 1
    31   26   27 2
    32   26   31 1
    33   27   28 1
    34   28   29 2
    35   28   30 1
    36    2   32 1
    37    3   33 1
    38    7   34 1
    39    9   35 1
    40   12   36 1
    41   12   37 1
    42   12   38 1
    43   14   39 1
    44   15   40 1
    45   22   41 1
    46   22   42 1
    47   23   43 1
    48   25   44 1
    49   27   45 1
    50   29   46 1
@<TRIPOS>PROPERTY_DATA
  Total_Score	| 11.5376
  Crash		| -0.5053
  Polar		| 2.3245
  FragIndex	| 1
  FragRMSD	| 0.163

