@<TRIPOS>MOLECULE
BindingDB_24470
 46 50 0 0 0
SMALL
NO_CHARGES


@<TRIPOS>ATOM
1    C        15.0921   11.3820   60.0214  C     
2    C        14.8941   10.2515   59.2081  C     
3    C        15.6122   10.1218   58.0108  C     
4    C        16.5247   11.1237   57.6219  C     
5    C        15.9992   12.3853   59.6288  C     
6    C        16.7332   12.2847   58.4144  C     
7    C        17.6457   13.2804   58.0254  C     
8    C        17.6120   14.6001   58.4682  C     
9    C        20.5864   13.5866   56.0330  C     
10   C        19.5760   15.0368   57.2671  C     
11   N        19.5354   13.7634   56.8428  N     
12   N        21.2609   14.7525   55.9830  N     
13   N        20.6516   15.6369   56.7288  N     
14   C        20.9241   12.3520   55.3085  C     
15   C        18.5736   15.4827   58.1104  C     
16   N        18.6095   12.9450   57.2187  N     
17   O        21.0479   11.2357   56.2030  O     
18   C        22.1570   11.0025   56.9914  C     
19   C        23.2667   11.8776   57.0982  C     
20   C        24.3668   11.5108   57.8909  C     
21   C        23.3141    9.4576   58.5021  C     
22   C        22.2759    7.3619   59.2287  C     
23   C        21.1299    7.6914   58.4860  C     
24   C        21.0733    8.8840   57.7427  C     
25   C        22.1631    9.7888   57.7293  C     
26   C        23.3745    8.2437   59.2323  C     
27   N        24.3579   10.3272   58.5509  N     
28   O        22.3072    6.1521   59.8640  O     
29   C        22.6886    6.1863   61.2436  C     
30   H        14.5817   11.4660   60.9041  H     
31   H        14.2367    9.5217   59.4921  H     
32   H        15.4778    9.2996   57.4206  H     
33   H        17.0273   10.9964   56.7401  H     
34   H        16.1370   13.1759   60.2600  H     
35   H        16.8576   14.9296   59.0231  H     
36   H        20.0898   12.1207   54.6402  H     
37   H        21.8214   12.4729   54.6916  H     
38   H        18.5563   16.4225   58.4278  H     
39   H        23.2980   12.7679   56.6017  H     
40   H        25.1805   12.1200   57.9738  H     
41   H        20.3278    7.0559   58.4920  H     
42   H        20.2162    9.0861   57.2229  H     
43   H        24.2059    8.0067   59.7825  H     
44   H        23.7610    6.3840   61.3224  H     
45   H        22.4799    5.1952   61.6786  H     
46   H        22.1240    6.9387   61.8090  H     
@<TRIPOS>BOND
     1    1    2 2
     2    1    5 1
     3    2    3 1
     4    3    4 2
     5    4    6 1
     6    5    6 2
     7    6    7 1
     8    7    8 1
     9    7   16 2
    10    8   15 2
    11    9   11 1
    12    9   12 2
    13    9   14 1
    14   10   11 1
    15   10   13 2
    16   10   15 1
    17   11   16 1
    18   12   13 1
    19   14   17 1
    20   17   18 1
    21   18   19 2
    22   18   25 1
    23   19   20 1
    24   20   27 2
    25   21   25 2
    26   21   26 1
    27   21   27 1
    28   22   23 1
    29   22   26 2
    30   22   28 1
    31   23   24 2
    32   24   25 1
    33   28   29 1
    34    1   30 1
    35    2   31 1
    36    3   32 1
    37    4   33 1
    38    5   34 1
    39    8   35 1
    40   14   36 1
    41   14   37 1
    42   15   38 1
    43   19   39 1
    44   20   40 1
    45   23   41 1
    46   24   42 1
    47   26   43 1
    48   29   44 1
    49   29   45 1
    50   29   46 1
@<TRIPOS>PROPERTY_DATA
  Total_Score	| 11.2153
  Crash		| -0.6622
  Polar		| 2.3021
  FragIndex	| 1
  FragRMSD	| 0.081

