@<TRIPOS>MOLECULE
BindingDB_50302903
 46 50 0 0 0
SMALL
NO_CHARGES


@<TRIPOS>ATOM
1    C        22.1791   10.9684   56.8974  C     
2    C        23.2993   11.8312   57.0006  C     
3    C        24.3799   11.4916   57.8331  C     
4    N        24.3600   10.3278   58.5282  N     
5    C        22.1953    9.7639   57.6436  C     
6    C        23.3204    9.4608   58.4581  C     
7    C        23.3467    8.2540   59.1851  C     
8    C        22.2453    7.3714   59.1398  C     
9    C        21.1592    7.7103   58.3072  C     
10   N        21.1685    8.8708   57.6038  N     
11   O        22.2098    6.1672   59.8001  O     
12   C        22.6082    6.1781   61.1828  C     
13   C        17.7631   13.3921   58.0427  C     
14   C        17.8606   14.7102   58.5161  C     
15   C        18.8368   15.5474   58.0995  C     
16   N        18.6729   13.0312   57.1796  N     
17   N        19.6235   13.8025   56.7596  N     
18   C        19.7521   15.0713   57.1821  C     
19   N        20.8101   15.6330   56.5801  N     
20   N        21.3396   14.7276   55.8040  N     
21   C        20.6309   13.5840   55.9019  C     
22   C        20.9130   12.3192   55.1965  C     
23   N        21.1046   11.2228   56.0983  N     
24   C        16.7809   12.4329   58.4280  C     
25   C        15.9632   12.5817   59.5855  C     
26   C        15.0021   11.6191   59.9625  C     
27   C        14.8243   10.4549   59.1933  C     
28   C        15.6168   10.2660   58.0466  C     
29   C        16.5689   11.2380   57.6748  C     
30   F        13.9348    9.5632   59.5456  F     
31   F        15.4674    9.1939   57.3158  F     
32   F        14.2937   11.8112   61.0447  F     
33   H        23.3468   12.7069   56.4774  H     
34   H        25.1838   12.1155   57.9185  H     
35   H        24.1671    8.0211   59.7475  H     
36   H        20.3587    7.0817   58.2193  H     
37   H        23.6922    6.2707   61.2691  H     
38   H        22.3162    5.2297   61.6317  H     
39   H        22.1259    6.9840   61.7410  H     
40   H        17.1971   15.0697   59.1608  H     
41   H        18.9049   16.4841   58.4329  H     
42   H        20.0570   12.0948   54.5577  H     
43   H        21.7883   12.4214   54.5516  H     
44   H        20.3988   10.5551   56.1007  H     
45   H        16.0677   13.3911   60.1960  H     
46   H        17.1128   11.0543   56.8304  H     
@<TRIPOS>BOND
     1    1    2 2
     2    1    5 1
     3    1   23 1
     4    2    3 1
     5    3    4 2
     6    4    6 1
     7    5    6 2
     8    5   10 1
     9    6    7 1
    10    7    8 2
    11    8    9 1
    12    8   11 1
    13    9   10 2
    14   11   12 1
    15   13   14 1
    16   13   16 2
    17   13   24 1
    18   14   15 2
    19   15   18 1
    20   16   17 1
    21   17   18 1
    22   17   21 1
    23   18   19 2
    24   19   20 1
    25   20   21 2
    26   21   22 1
    27   22   23 1
    28   24   25 2
    29   24   29 1
    30   25   26 1
    31   26   27 2
    32   26   32 1
    33   27   28 1
    34   27   30 1
    35   28   29 2
    36   28   31 1
    37    2   33 1
    38    3   34 1
    39    7   35 1
    40    9   36 1
    41   12   37 1
    42   12   38 1
    43   12   39 1
    44   14   40 1
    45   15   41 1
    46   22   42 1
    47   22   43 1
    48   23   44 1
    49   25   45 1
    50   29   46 1
@<TRIPOS>PROPERTY_DATA
  Total_Score	| 11.4573
  Crash		| -0.5704
  Polar		| 2.2997
  FragIndex	| 1
  FragRMSD	| 0.184

