@<TRIPOS>MOLECULE
BindingDB_24471
 46 50 0 0 0
SMALL
NO_CHARGES


@<TRIPOS>ATOM
1    C        15.6374   10.0815   57.9309  C     
2    C        14.8788   10.1951   59.1088  C     
3    C        15.0504   11.3171   59.9379  C     
4    C        15.9621   12.3299   59.5779  C     
5    C        16.5475   11.0958   57.5783  C     
6    C        16.7253   12.2562   58.3810  C     
7    C        17.6366   13.2627   58.0105  C     
8    C        17.5875   14.5792   58.4734  C     
9    C        20.5808   13.6330   56.0314  C     
10   C        19.5493   15.0580   57.2782  C     
11   N        19.5235   13.7886   56.8363  N     
12   N        21.2357   14.8132   55.9979  N     
13   N        20.6155   15.6799   56.7534  N     
14   C        20.9413   12.4132   55.2889  C     
15   C        18.5410   15.4769   58.1321  C     
16   N        18.6045   12.9536   57.1991  N     
17   O        21.0612   11.2651   56.1460  O     
18   C        22.1687   10.9952   56.9311  C     
19   C        23.2951   11.8436   57.0357  C     
20   C        24.3986   11.4583   57.8188  C     
21   C        23.3129    9.4265   58.4329  C     
22   C        22.2386    7.3530   59.1689  C     
23   C        21.0961    7.7092   58.4266  C     
24   C        21.0581    8.8974   57.6802  C     
25   C        22.1645    9.7793   57.6651  C     
26   C        23.3573    8.2120   59.1644  C     
27   N        24.3775   10.2728   58.4771  N     
28   O        22.2249    6.1490   59.8233  O     
29   C        22.6233    6.1873   61.2021  C     
30   F        14.0274    9.2627   59.4349  F     
31   H        15.5324    9.2643   57.3304  H     
32   H        14.5193   11.3986   60.8058  H     
33   H        16.0714   13.1126   60.2243  H     
34   H        17.0716   10.9764   56.7093  H     
35   H        16.8250   14.8936   59.0254  H     
36   H        20.1241   12.2076   54.5941  H     
37   H        21.8434   12.5649   54.6961  H     
38   H        18.5129   16.4121   58.4638  H     
39   H        23.3280   12.7367   56.5430  H     
40   H        25.2122   12.0669   57.8949  H     
41   H        20.2807    7.0910   58.4327  H     
42   H        20.2022    9.1166   57.1691  H     
43   H        24.1954    7.9611   59.7024  H     
44   H        23.6968    6.3674   61.2637  H     
45   H        22.4047    5.2138   61.6635  H     
46   H        22.0837    6.9495   61.7724  H     
@<TRIPOS>BOND
     1    1    2 2
     2    1    5 1
     3    2    3 1
     4    2   30 1
     5    3    4 2
     6    4    6 1
     7    5    6 2
     8    6    7 1
     9    7    8 1
    10    7   16 2
    11    8   15 2
    12    9   11 1
    13    9   12 2
    14    9   14 1
    15   10   11 1
    16   10   13 2
    17   10   15 1
    18   11   16 1
    19   12   13 1
    20   14   17 1
    21   17   18 1
    22   18   19 2
    23   18   25 1
    24   19   20 1
    25   20   27 2
    26   21   25 2
    27   21   26 1
    28   21   27 1
    29   22   23 1
    30   22   26 2
    31   22   28 1
    32   23   24 2
    33   24   25 1
    34   28   29 1
    35    1   31 1
    36    3   32 1
    37    4   33 1
    38    5   34 1
    39    8   35 1
    40   14   36 1
    41   14   37 1
    42   15   38 1
    43   19   39 1
    44   20   40 1
    45   23   41 1
    46   24   42 1
    47   26   43 1
    48   29   44 1
    49   29   45 1
    50   29   46 1
@<TRIPOS>PROPERTY_DATA
  Total_Score	| 11.1764
  Crash		| -0.5840
  Polar		| 2.3290
  FragIndex	| 1
  FragRMSD	| 0.063

