@<TRIPOS>MOLECULE
BindingDB_50259376
 37 39 0 0 0
SMALL
NO_CHARGES


@<TRIPOS>ATOM
1    C       231.9880   81.6227  184.3658  C     
2    C       233.1643   81.0224  184.6005  C     
3    C       232.5391   79.9662  185.1219  C     
4    C       231.3520   80.5642  184.9118  C     
5    O       230.3542   80.0097  184.4605  O     
6    O       231.6972   82.0911  183.2671  O     
7    N       232.9650   78.8090  185.5347  N     
8    N       234.4448   81.2275  184.3178  N     
9    C       235.0895   82.3658  183.9649  C     
10   C       236.4580   82.2622  183.6270  C     
11   C       237.1790   83.4152  183.2598  C     
12   N       236.5700   84.6255  183.2544  N     
13   C       235.2630   84.7769  183.5843  C     
14   C       234.4883   83.6521  183.9389  C     
15   C       232.1656   77.7687  186.0400  C     
16   C       231.7128   76.8616  184.9419  C     
17   C       232.6447   76.1957  184.1066  C     
18   C       232.2127   75.3459  183.0686  C     
19   C       230.8362   75.1478  182.8521  C     
20   C       229.8975   75.7971  183.6695  C     
21   C       230.3320   76.6440  184.7037  C     
22   C       232.9232   76.9846  187.1474  C     
23   H       233.8841   78.6417  185.4582  H     
24   H       235.0076   80.4370  184.3838  H     
25   H       236.9283   81.3505  183.6320  H     
26   H       238.1607   83.3360  182.9973  H     
27   H       234.8463   85.7103  183.5853  H     
28   H       233.4996   83.7834  184.1884  H     
29   H       231.2954   78.2075  186.5460  H     
30   H       233.6496   76.3240  184.2440  H     
31   H       232.8960   74.8757  182.4703  H     
32   H       230.5201   74.5286  182.0980  H     
33   H       228.8962   75.6529  183.5131  H     
34   H       229.6278   77.1078  185.2876  H     
35   H       233.8511   76.5537  186.7666  H     
36   H       232.2940   76.1757  187.5305  H     
37   H       233.1642   77.6524  187.9793  H     
@<TRIPOS>BOND
     1    1    2 1
     2    1    4 1
     3    1    6 2
     4    2    3 2
     5    2    8 1
     6    3    4 1
     7    3    7 1
     8    4    5 2
     9    7   15 1
    10    8    9 1
    11    9   10 2
    12    9   14 1
    13   10   11 1
    14   11   12 2
    15   12   13 1
    16   13   14 2
    17   15   16 1
    18   15   22 1
    19   16   17 2
    20   16   21 1
    21   17   18 1
    22   18   19 2
    23   19   20 1
    24   20   21 2
    25    7   23 1
    26    8   24 1
    27   10   25 1
    28   11   26 1
    29   13   27 1
    30   14   28 1
    31   15   29 1
    32   17   30 1
    33   18   31 1
    34   19   32 1
    35   20   33 1
    36   21   34 1
    37   22   35 1
    38   22   36 1
    39   22   37 1
@<TRIPOS>PROPERTY_DATA
  Total_Score	| 6.7491
  Crash		| -0.2217
  Polar		| 2.4235
  FragIndex	| 1
  FragRMSD	| 0.353

