@<TRIPOS>MOLECULE
BindingDB_50259483
 38 40 0 0 0
SMALL
NO_CHARGES


@<TRIPOS>ATOM
1    C       231.8210   81.4357  184.0372  C     
2    C       233.0258   81.0060  184.4316  C     
3    C       232.4603   79.9373  184.9950  C     
4    C       231.2476   80.3957  184.6684  C     
5    O       230.3523   79.7174  184.1735  O     
6    O       231.4021   82.5758  184.1983  O     
7    N       232.9388   78.9326  185.6677  N     
8    N       234.2967   81.3883  184.4242  N     
9    C       234.8981   82.4660  183.8544  C     
10   C       236.2584   82.6573  184.1633  C     
11   C       236.9474   83.7765  183.6465  C     
12   N       236.2938   84.6634  182.8450  N     
13   C       234.9830   84.5057  182.5234  C     
14   C       234.2518   83.3914  182.9954  C     
15   C       232.1882   77.8604  186.1776  C     
16   C       231.7117   76.9383  185.0919  C     
17   C       230.3528   76.5377  185.0177  C     
18   C       229.9044   75.6893  183.9857  C     
19   C       230.8058   75.2222  183.0148  C     
20   C       232.1606   75.6089  183.0687  C     
21   C       232.6022   76.4635  184.0974  C     
22   C       233.0285   77.1039  187.2353  C     
23   O       233.0519   75.1980  182.1342  O     
24   H       233.8578   78.9414  185.8566  H     
25   H       234.8903   80.8077  184.9452  H     
26   H       236.7472   81.9993  184.7834  H     
27   H       237.9359   83.9117  183.8746  H     
28   H       234.5384   85.1944  181.9102  H     
29   H       233.2697   83.2576  182.7112  H     
30   H       231.3301   78.2829  186.7216  H     
31   H       229.6738   76.8664  185.7079  H     
32   H       228.9190   75.4152  183.9365  H     
33   H       230.4795   74.6061  182.2672  H     
34   H       233.5829   76.7544  184.1133  H     
35   H       233.9538   76.7132  186.7995  H     
36   H       232.4518   76.2742  187.6478  H     
37   H       233.2928   77.7795  188.0563  H     
38   H       232.6752   74.3916  181.7247  H     
@<TRIPOS>BOND
     1    1    2 1
     2    1    4 1
     3    1    6 2
     4    2    3 2
     5    2    8 1
     6    3    4 1
     7    3    7 1
     8    4    5 2
     9    7   15 1
    10    8    9 1
    11    9   10 2
    12    9   14 1
    13   10   11 1
    14   11   12 2
    15   12   13 1
    16   13   14 2
    17   15   16 1
    18   15   22 1
    19   16   17 2
    20   16   21 1
    21   17   18 1
    22   18   19 2
    23   19   20 1
    24   20   21 2
    25   20   23 1
    26    7   24 1
    27    8   25 1
    28   10   26 1
    29   11   27 1
    30   13   28 1
    31   14   29 1
    32   15   30 1
    33   17   31 1
    34   18   32 1
    35   19   33 1
    36   21   34 1
    37   22   35 1
    38   22   36 1
    39   22   37 1
    40   23   38 1
@<TRIPOS>PROPERTY_DATA
  Total_Score	| 6.8124
  Crash		| -0.6578
  Polar		| 3.2760
  FragIndex	| 1
  FragRMSD	| 0.582

