@<TRIPOS>MOLECULE
BindingDB_50259599
 37 39 0 0 0
SMALL
NO_CHARGES


@<TRIPOS>ATOM
1    C       231.8932   81.2311  183.7221  C     
2    C       233.0756   80.8129  184.2177  C     
3    C       232.4947   79.6916  184.6520  C     
4    C       231.3151   80.0905  184.1502  C     
5    O       230.2404   79.9897  184.7343  O     
6    O       231.4171   82.3351  183.9707  O     
7    N       232.9427   78.7194  185.3926  N     
8    N       234.3293   81.2209  184.3993  N     
9    C       234.9733   82.3380  183.9713  C     
10   C       236.3338   82.4655  184.3334  C     
11   C       237.0639   83.6073  183.9541  C     
12   N       236.4673   84.5965  183.2471  N     
13   C       235.1633   84.5145  182.8735  C     
14   C       234.3881   83.3817  183.2110  C     
15   C       232.1869   77.6497  185.9020  C     
16   C       231.6907   76.7543  184.8072  C     
17   C       230.3039   76.5463  184.6107  C     
18   C       229.8355   75.7280  183.5672  C     
19   C       230.7455   75.0935  182.7017  C     
20   C       232.1251   75.2963  182.8747  C     
21   C       232.5905   76.1178  183.9174  C     
22   C       233.0179   76.8553  186.9450  C     
23   Cl      234.4946   85.7895  181.9827  Cl    
24   H       233.8507   78.7574  185.6315  H     
25   H       234.8722   80.6117  184.9219  H     
26   H       236.8041   81.7253  184.8720  H     
27   H       238.0409   83.7035  184.2213  H     
28   H       233.4153   83.3332  182.8928  H     
29   H       231.3445   78.0807  186.4598  H     
30   H       229.6192   77.0022  185.2203  H     
31   H       228.8279   75.5927  183.4305  H     
32   H       230.4048   74.4968  181.9446  H     
33   H       232.7908   74.8507  182.2359  H     
34   H       233.5976   76.2574  184.0172  H     
35   H       233.9398   76.4698  186.5081  H     
36   H       232.4351   76.0180  187.3284  H     
37   H       233.2814   77.4971  187.7884  H     
@<TRIPOS>BOND
     1    1    2 1
     2    1    4 1
     3    1    6 2
     4    2    3 2
     5    2    8 1
     6    3    4 1
     7    3    7 1
     8    4    5 2
     9    7   15 1
    10    8    9 1
    11    9   10 2
    12    9   14 1
    13   10   11 1
    14   11   12 2
    15   12   13 1
    16   13   14 2
    17   13   23 1
    18   15   16 1
    19   15   22 1
    20   16   17 2
    21   16   21 1
    22   17   18 1
    23   18   19 2
    24   19   20 1
    25   20   21 2
    26    7   24 1
    27    8   25 1
    28   10   26 1
    29   11   27 1
    30   14   28 1
    31   15   29 1
    32   17   30 1
    33   18   31 1
    34   19   32 1
    35   20   33 1
    36   21   34 1
    37   22   35 1
    38   22   36 1
    39   22   37 1
@<TRIPOS>PROPERTY_DATA
  Total_Score	| 6.1089
  Crash		| -0.8620
  Polar		| 2.4802
  FragIndex	| 1
  FragRMSD	| 0.437

