@<TRIPOS>MOLECULE
BindingDB_50259377
 37 39 0 0 0
SMALL
NO_CHARGES


@<TRIPOS>ATOM
1    C       231.8471   81.2193  183.7641  C     
2    C       233.0664   80.8881  184.2173  C     
3    C       232.6174   79.6884  184.5761  C     
4    C       231.3961   79.9983  184.1110  C     
5    O       230.3460   79.7903  184.7112  O     
6    O       231.2726   82.2519  184.0866  O     
7    N       233.2584   78.6697  185.0749  N     
8    N       234.2932   81.3829  184.3440  N     
9    C       234.8296   82.5330  183.8658  C     
10   C       236.1874   82.7599  184.1887  C     
11   C       236.8403   83.9155  183.7219  C     
12   N       236.1668   84.8203  182.9687  N     
13   C       234.8613   84.6462  182.6328  C     
14   C       234.1674   83.4990  183.0659  C     
15   C       232.7160   77.5207  185.6734  C     
16   C       231.9889   76.6426  184.6898  C     
17   C       230.6573   76.1861  184.8696  C     
18   C       230.0149   75.4032  183.8800  C     
19   C       230.6934   75.0526  182.7011  C     
20   C       232.0251   75.4608  182.5179  C     
21   C       232.6624   76.2511  183.5003  C     
22   C       231.9845   77.8928  186.9961  C     
23   H       234.1937   78.6984  185.0210  H     
24   H       234.9121   80.8186  184.8307  H     
25   H       236.7083   82.0907  184.7647  H     
26   H       237.8279   84.0772  183.9422  H     
27   H       234.3922   85.3426  182.0488  H     
28   H       233.1977   83.3785  182.7785  H     
29   H       233.5756   76.9255  186.0097  H     
30   H       230.1238   76.4294  185.7050  H     
31   H       229.0499   75.0933  184.0149  H     
32   H       230.2305   74.4856  181.9820  H     
33   H       232.5356   75.1965  181.6701  H     
34   H       233.6259   76.5612  183.3333  H     
35   H       232.6800   78.3636  187.6943  H     
36   H       231.5891   76.9886  187.4688  H     
37   H       231.1522   78.5852  186.8182  H     
@<TRIPOS>BOND
     1    1    2 1
     2    1    4 1
     3    1    6 2
     4    2    3 2
     5    2    8 1
     6    3    4 1
     7    3    7 1
     8    4    5 2
     9    7   15 1
    10    8    9 1
    11    9   10 2
    12    9   14 1
    13   10   11 1
    14   11   12 2
    15   12   13 1
    16   13   14 2
    17   15   16 1
    18   15   22 1
    19   16   17 2
    20   16   21 1
    21   17   18 1
    22   18   19 2
    23   19   20 1
    24   20   21 2
    25    7   23 1
    26    8   24 1
    27   10   25 1
    28   11   26 1
    29   13   27 1
    30   14   28 1
    31   15   29 1
    32   17   30 1
    33   18   31 1
    34   19   32 1
    35   20   33 1
    36   21   34 1
    37   22   35 1
    38   22   36 1
    39   22   37 1
@<TRIPOS>PROPERTY_DATA
  Total_Score	| 6.9108
  Crash		| -0.3867
  Polar		| 2.5369
  FragIndex	| 1
  FragRMSD	| 0.675

