@<TRIPOS>MOLECULE
BindingDB_50259480
 38 40 0 0 0
SMALL
NO_CHARGES


@<TRIPOS>ATOM
1    C       232.0121   81.6782  184.4842  C     
2    C       233.1846   81.0582  184.6874  C     
3    C       232.5475   79.9962  185.1841  C     
4    C       231.3685   80.6130  185.0000  C     
5    O       230.3710   80.0843  184.5207  O     
6    O       231.7102   82.2023  183.4178  O     
7    N       232.9295   78.7784  185.4461  N     
8    N       234.4513   81.2337  184.3355  N     
9    C       235.0977   82.3639  183.9558  C     
10   C       234.5270   83.6603  183.9577  C     
11   C       235.3102   84.7743  183.5824  C     
12   N       236.6041   84.6045  183.2067  N     
13   C       237.1837   83.3794  183.1828  C     
14   C       236.4444   82.2391  183.5542  C     
15   C       232.1163   77.7516  185.9611  C     
16   C       231.6704   76.8506  184.8460  C     
17   C       232.6308   76.1995  184.0288  C     
18   C       232.2390   75.3689  182.9619  C     
19   C       230.8748   75.1675  182.6934  C     
20   C       229.9071   75.7899  183.4980  C     
21   C       230.2941   76.6294  184.5624  C     
22   C       232.8600   76.9702  187.0778  C     
23   O       229.2899   77.1798  185.2911  O     
24   H       233.7985   78.5387  185.1856  H     
25   H       235.0018   80.4306  184.3693  H     
26   H       233.5577   83.8140  184.2524  H     
27   H       234.9129   85.7163  183.5989  H     
28   H       238.1624   83.2873  182.9095  H     
29   H       236.8958   81.3201  183.5402  H     
30   H       231.2476   78.1970  186.4677  H     
31   H       233.6325   76.3265  184.2006  H     
32   H       232.9446   74.9083  182.3816  H     
33   H       230.5846   74.5745  181.9129  H     
34   H       228.9140   75.6362  183.3025  H     
35   H       233.8044   76.5647  186.7093  H     
36   H       232.2455   76.1445  187.4444  H     
37   H       233.0751   77.6308  187.9220  H     
38   H       229.3234   78.1390  185.0983  H     
@<TRIPOS>BOND
     1    1    2 1
     2    1    4 1
     3    1    6 2
     4    2    3 2
     5    2    8 1
     6    3    4 1
     7    3    7 1
     8    4    5 2
     9    7   15 1
    10    8    9 1
    11    9   10 2
    12    9   14 1
    13   10   11 1
    14   11   12 2
    15   12   13 1
    16   13   14 2
    17   15   16 1
    18   15   22 1
    19   16   17 2
    20   16   21 1
    21   17   18 1
    22   18   19 2
    23   19   20 1
    24   20   21 2
    25   21   23 1
    26    7   24 1
    27    8   25 1
    28   10   26 1
    29   11   27 1
    30   13   28 1
    31   14   29 1
    32   15   30 1
    33   17   31 1
    34   18   32 1
    35   19   33 1
    36   20   34 1
    37   22   35 1
    38   22   36 1
    39   22   37 1
    40   23   38 1
@<TRIPOS>PROPERTY_DATA
  Total_Score	| 6.5572
  Crash		| -0.2377
  Polar		| 2.4619
  FragIndex	| 1
  FragRMSD	| 0.415

