@<TRIPOS>MOLECULE
BindingDB_50259531
 38 40 0 0 0
SMALL
NO_CHARGES


@<TRIPOS>ATOM
1    C       231.7096   81.4763  184.0623  C     
2    C       232.9254   81.0940  184.4752  C     
3    C       232.3962   80.0004  185.0198  C     
4    C       231.1679   80.4098  184.6763  C     
5    O       230.3211   79.6970  184.1543  O     
6    O       231.2557   82.5996  184.2287  O     
7    N       232.9169   79.0165  185.6884  N     
8    N       234.1987   81.4961  184.4925  N     
9    C       234.7802   82.5906  183.9285  C     
10   C       236.1537   82.7709  184.1999  C     
11   C       236.8268   83.9008  183.6900  C     
12   N       236.1618   84.8041  182.9316  N     
13   C       234.8498   84.6567  182.6193  C     
14   C       234.1310   83.5448  183.1077  C     
15   C       232.2420   77.9019  186.2159  C     
16   C       231.7481   76.9723  185.1608  C     
17   C       232.6398   76.3709  184.2344  C     
18   C       232.1480   75.5794  183.1694  C     
19   C       230.7628   75.3795  183.0243  C     
20   C       229.8701   75.9173  183.9722  C     
21   C       230.3600   76.7092  185.0301  C     
22   C       233.1639   77.1455  187.2036  C     
23   O       230.2652   74.6855  181.9742  O     
24   H       233.8399   79.0560  185.8363  H     
25   H       234.7982   80.9249  184.9950  H     
26   H       236.6727   82.1014  184.7765  H     
27   H       237.8210   84.0480  183.8919  H     
28   H       234.3839   85.3465  182.0313  H     
29   H       233.1573   83.4414  182.8355  H     
30   H       231.3984   78.2779  186.8074  H     
31   H       233.6436   76.5500  184.2881  H     
32   H       232.8057   75.1650  182.5039  H     
33   H       228.8643   75.7720  183.8730  H     
34   H       229.6859   77.1155  185.6879  H     
35   H       234.0956   76.8438  186.7036  H     
36   H       232.6693   76.2420  187.5944  H     
37   H       233.4247   77.7925  188.0514  H     
38   H       230.6580   75.1252  181.1896  H     
@<TRIPOS>BOND
     1    1    2 1
     2    1    4 1
     3    1    6 2
     4    2    3 2
     5    2    8 1
     6    3    4 1
     7    3    7 1
     8    4    5 2
     9    7   15 1
    10    8    9 1
    11    9   10 2
    12    9   14 1
    13   10   11 1
    14   11   12 2
    15   12   13 1
    16   13   14 2
    17   15   16 1
    18   15   22 1
    19   16   17 2
    20   16   21 1
    21   17   18 1
    22   18   19 2
    23   19   20 1
    24   19   23 1
    25   20   21 2
    26    7   24 1
    27    8   25 1
    28   10   26 1
    29   11   27 1
    30   13   28 1
    31   14   29 1
    32   15   30 1
    33   17   31 1
    34   18   32 1
    35   20   33 1
    36   21   34 1
    37   22   35 1
    38   22   36 1
    39   22   37 1
    40   23   38 1
@<TRIPOS>PROPERTY_DATA
  Total_Score	| 6.1513
  Crash		| -0.5496
  Polar		| 2.3728
  FragIndex	| 1
  FragRMSD	| 0.610

