@<TRIPOS>MOLECULE
BindingDB_50259481
 40 42 0 0 0
SMALL
NO_CHARGES


@<TRIPOS>ATOM
1    C       231.8087   81.4821  184.0153  C     
2    C       233.0336   81.0732  184.3861  C     
3    C       232.4916   80.0211  185.0059  C     
4    C       231.2651   80.4712  184.7084  C     
5    O       230.3454   79.7792  184.2857  O     
6    O       231.3967   82.6317  184.1318  O     
7    N       233.0257   79.0444  185.6811  N     
8    N       234.3129   81.4550  184.3712  N     
9    C       234.9151   82.5256  183.7916  C     
10   C       236.2921   82.6920  184.0843  C     
11   C       236.9971   83.7848  183.5547  C     
12   N       236.3646   84.6758  182.7584  N     
13   C       235.0489   84.5594  182.4371  C     
14   C       234.3004   83.4764  182.9380  C     
15   C       232.3480   77.9774  186.2946  C     
16   C       231.6990   77.0357  185.3227  C     
17   C       230.4254   76.4889  185.5985  C     
18   C       229.8132   75.5894  184.7086  C     
19   C       230.4652   75.2114  183.5277  C     
20   C       231.7375   75.7386  183.2209  C     
21   C       232.3427   76.6448  184.1209  C     
22   C       233.3227   77.1942  187.2127  C     
23   C       232.4101   75.3269  181.9721  C     
24   H       233.9583   79.0687  185.7869  H     
25   H       234.9088   80.8895  184.8910  H     
26   H       236.7796   82.0282  184.6890  H     
27   H       237.9876   83.9116  183.7653  H     
28   H       234.6143   85.2517  181.8280  H     
29   H       233.3229   83.3884  182.6629  H     
30   H       231.5928   78.4138  186.9585  H     
31   H       229.9323   76.7366  186.4572  H     
32   H       228.8909   75.2039  184.9292  H     
33   H       230.0054   74.5548  182.8912  H     
34   H       233.2681   77.0283  183.9029  H     
35   H       234.1159   76.7200  186.6263  H     
36   H       232.7836   76.4232  187.7659  H     
37   H       233.7840   77.8612  187.9450  H     
38   H       232.5925   74.2547  181.9992  H     
39   H       233.3721   75.8283  181.8402  H     
40   H       231.7684   75.5579  181.1170  H     
@<TRIPOS>BOND
     1    1    2 1
     2    1    4 1
     3    1    6 2
     4    2    3 2
     5    2    8 1
     6    3    4 1
     7    3    7 1
     8    4    5 2
     9    7   15 1
    10    8    9 1
    11    9   10 2
    12    9   14 1
    13   10   11 1
    14   11   12 2
    15   12   13 1
    16   13   14 2
    17   15   16 1
    18   15   22 1
    19   16   17 2
    20   16   21 1
    21   17   18 1
    22   18   19 2
    23   19   20 1
    24   20   21 2
    25   20   23 1
    26    7   24 1
    27    8   25 1
    28   10   26 1
    29   11   27 1
    30   13   28 1
    31   14   29 1
    32   15   30 1
    33   17   31 1
    34   18   32 1
    35   19   33 1
    36   21   34 1
    37   22   35 1
    38   22   36 1
    39   22   37 1
    40   23   38 1
    41   23   39 1
    42   23   40 1
@<TRIPOS>PROPERTY_DATA
  Total_Score	| 7.1053
  Crash		| -0.8567
  Polar		| 2.4567
  FragIndex	| 1
  FragRMSD	| 0.715

