@<TRIPOS>MOLECULE
BindingDB_50259482
 39 41 0 0 0
SMALL
NO_CHARGES


@<TRIPOS>ATOM
1    C       231.8515   81.3939  183.9080  C     
2    C       233.0553   81.0010  184.3525  C     
3    C       232.4937   79.9465  184.9541  C     
4    C       231.2827   80.3824  184.5736  C     
5    O       230.3831   79.6811  184.1217  O     
6    O       231.4234   82.5389  184.0304  O     
7    N       232.9554   79.0008  185.7149  N     
8    N       234.3194   81.4112  184.4048  N     
9    C       234.9417   82.4725  183.8339  C     
10   C       236.2995   82.6783  184.1595  C     
11   C       236.9970   83.7727  183.6201  C     
12   N       236.3703   84.6258  182.7751  N     
13   C       235.0665   84.4599  182.4333  C     
14   C       234.3167   83.3823  182.9528  C     
15   C       232.2220   77.9355  186.2682  C     
16   C       231.7085   76.9763  185.2392  C     
17   C       230.4170   76.4154  185.3825  C     
18   C       229.9308   75.4644  184.4636  C     
19   C       230.7366   75.0610  183.3822  C     
20   C       232.0352   75.5814  183.2318  C     
21   C       232.5136   76.5330  184.1541  C     
22   C       233.0700   77.1662  187.3145  C     
23   N       232.8059   75.1676  182.2129  N     
24   H       233.8682   79.0363  185.9345  H     
25   H       234.8962   80.8494  184.9588  H     
26   H       236.7667   82.0389  184.8075  H     
27   H       237.9781   83.9106  183.8668  H     
28   H       234.6168   85.1213  181.7979  H     
29   H       233.3347   83.2712  182.6700  H     
30   H       231.3840   78.3838  186.8266  H     
31   H       229.8230   76.6811  186.1679  H     
32   H       229.0009   75.0597  184.5860  H     
33   H       230.3856   74.3576  182.7265  H     
34   H       233.4589   76.9086  184.0272  H     
35   H       233.9348   76.6800  186.8491  H     
36   H       232.4567   76.4015  187.7994  H     
37   H       233.4318   77.8530  188.0869  H     
38   H       233.6914   75.5392  182.0878  H     
39   H       232.4842   74.4741  181.6178  H     
@<TRIPOS>BOND
     1    1    2 1
     2    1    4 1
     3    1    6 2
     4    2    3 2
     5    2    8 1
     6    3    4 1
     7    3    7 1
     8    4    5 2
     9    7   15 1
    10    8    9 1
    11    9   10 2
    12    9   14 1
    13   10   11 1
    14   11   12 2
    15   12   13 1
    16   13   14 2
    17   15   16 1
    18   15   22 1
    19   16   17 2
    20   16   21 1
    21   17   18 1
    22   18   19 2
    23   19   20 1
    24   20   21 2
    25   20   23 1
    26    7   24 1
    27    8   25 1
    28   10   26 1
    29   11   27 1
    30   13   28 1
    31   14   29 1
    32   15   30 1
    33   17   31 1
    34   18   32 1
    35   19   33 1
    36   21   34 1
    37   22   35 1
    38   22   36 1
    39   22   37 1
    40   23   38 1
    41   23   39 1
@<TRIPOS>PROPERTY_DATA
  Total_Score	| 7.0377
  Crash		| -0.7642
  Polar		| 3.1081
  FragIndex	| 1
  FragRMSD	| 0.592

