@<TRIPOS>MOLECULE
BindingDB_50259379
 40 42 0 0 0
SMALL
NO_CHARGES


@<TRIPOS>ATOM
1    C       231.8884   81.2323  183.9827  C     
2    C       233.1416   80.8422  184.2438  C     
3    C       232.6887   79.6897  184.7510  C     
4    C       231.4299   80.1126  184.5805  C     
5    O       230.4984   79.4323  184.1532  O     
6    O       231.4255   82.3361  184.2591  O     
7    N       233.3113   78.6857  185.2964  N     
8    N       234.3777   81.3205  184.2152  N     
9    C       234.8794   82.4624  183.6771  C     
10   C       234.1440   83.3781  182.8866  C     
11   C       234.7858   84.5381  182.4049  C     
12   N       236.0968   84.7655  182.6819  N     
13   C       236.8374   83.9000  183.4248  C     
14   C       236.2432   82.7309  183.9395  C     
15   C       232.7625   77.4984  185.8438  C     
16   C       232.0656   76.6664  184.7849  C     
17   C       233.9589   76.6513  186.3998  C     
18   C       231.8921   77.8973  187.0813  C     
19   C       232.7843   76.2908  183.6175  C     
20   C       232.2268   75.4603  182.6347  C     
21   C       230.9020   74.9955  182.7740  C     
22   C       230.1537   75.3705  183.9062  C     
23   C       230.7267   76.1870  184.8977  C     
24   H       234.2455   78.7642  185.3293  H     
25   H       235.0413   80.7484  184.6675  H     
26   H       233.1520   83.1812  182.6579  H     
27   H       234.2918   85.2212  181.8258  H     
28   H       237.8324   84.0853  183.6026  H     
29   H       236.8018   82.0731  184.4963  H     
30   H       234.6865   76.4231  185.6156  H     
31   H       233.6005   75.7050  186.8130  H     
32   H       234.4867   77.1885  187.1896  H     
33   H       232.4595   78.5858  187.7211  H     
34   H       231.6135   77.0207  187.6723  H     
35   H       230.9792   78.4087  186.7720  H     
36   H       233.7457   76.6183  183.4838  H     
37   H       232.7831   75.1896  181.8177  H     
38   H       230.4950   74.3943  182.0556  H     
39   H       229.1953   75.0259  184.0026  H     
40   H       230.1586   76.4040  185.7262  H     
@<TRIPOS>BOND
     1    1    2 1
     2    1    4 1
     3    1    6 2
     4    2    3 2
     5    2    8 1
     6    3    4 1
     7    3    7 1
     8    4    5 2
     9    7   15 1
    10    8    9 1
    11    9   10 2
    12    9   14 1
    13   10   11 1
    14   11   12 2
    15   12   13 1
    16   13   14 2
    17   15   16 1
    18   15   17 1
    19   15   18 1
    20   16   19 2
    21   16   23 1
    22   19   20 1
    23   20   21 2
    24   21   22 1
    25   22   23 2
    26    7   24 1
    27    8   25 1
    28   10   26 1
    29   11   27 1
    30   13   28 1
    31   14   29 1
    32   17   30 1
    33   17   31 1
    34   17   32 1
    35   18   33 1
    36   18   34 1
    37   18   35 1
    38   19   36 1
    39   20   37 1
    40   21   38 1
    41   22   39 1
    42   23   40 1
@<TRIPOS>PROPERTY_DATA
  Total_Score	| 6.4212
  Crash		| -0.7948
  Polar		| 2.1096
  FragIndex	| 1
  FragRMSD	| 0.752

