@<TRIPOS>MOLECULE
BindingDB_50259479
 37 39 0 0 0
SMALL
NO_CHARGES


@<TRIPOS>ATOM
1    C       231.9634   81.6650  184.3793  C     
2    C       233.1352   81.0581  184.6190  C     
3    C       232.5093   80.0099  185.1468  C     
4    C       231.3292   80.6061  184.9207  C     
5    O       230.3364   80.0477  184.4713  O     
6    O       231.6737   82.1388  183.2857  O     
7    N       232.9092   78.8201  185.4958  N     
8    N       234.4031   81.2481  184.2843  N     
9    C       235.0491   82.3918  183.9315  C     
10   C       236.3962   82.2482  183.5591  C     
11   C       237.1604   83.3862  183.2302  C     
12   N       236.5821   84.6154  183.2574  N     
13   C       235.2823   84.7922  183.5953  C     
14   C       234.4792   83.6846  183.9443  C     
15   C       232.1043   77.7928  186.0093  C     
16   C       231.6623   76.8872  184.8961  C     
17   C       232.6214   76.2233  184.0879  C     
18   C       232.2248   75.3746  183.0363  C     
19   C       230.8607   75.1812  182.7703  C     
20   C       229.8942   75.8240  183.5565  C     
21   C       230.2816   76.6776  184.6073  C     
22   C       232.8467   77.0195  187.1268  C     
23   F       229.3369   77.2369  185.3113  F     
24   H       233.8052   78.5991  185.2927  H     
25   H       234.9622   80.4421  184.3291  H     
26   H       236.8384   81.3201  183.5350  H     
27   H       238.1529   83.2834  182.9839  H     
28   H       234.9115   85.7420  183.6112  H     
29   H       233.4985   83.8207  184.2394  H     
30   H       231.2336   78.2460  186.5088  H     
31   H       233.6223   76.3458  184.2631  H     
32   H       232.9280   74.8996  182.4698  H     
33   H       230.5702   74.5703  182.0054  H     
34   H       228.9045   75.6747  183.3633  H     
35   H       233.7664   76.5780  186.7487  H     
36   H       232.2158   76.2229  187.5265  H     
37   H       233.0990   77.6920  187.9514  H     
@<TRIPOS>BOND
     1    1    2 1
     2    1    4 1
     3    1    6 2
     4    2    3 2
     5    2    8 1
     6    3    4 1
     7    3    7 1
     8    4    5 2
     9    7   15 1
    10    8    9 1
    11    9   10 2
    12    9   14 1
    13   10   11 1
    14   11   12 2
    15   12   13 1
    16   13   14 2
    17   15   16 1
    18   15   22 1
    19   16   17 2
    20   16   21 1
    21   17   18 1
    22   18   19 2
    23   19   20 1
    24   20   21 2
    25   21   23 1
    26    7   24 1
    27    8   25 1
    28   10   26 1
    29   11   27 1
    30   13   28 1
    31   14   29 1
    32   15   30 1
    33   17   31 1
    34   18   32 1
    35   19   33 1
    36   20   34 1
    37   22   35 1
    38   22   36 1
    39   22   37 1
@<TRIPOS>PROPERTY_DATA
  Total_Score	| 6.9909
  Crash		| -0.2292
  Polar		| 2.4185
  FragIndex	| 1
  FragRMSD	| 0.377

