@<TRIPOS>MOLECULE
BindingDB_50259565
 40 42 0 0 0
SMALL
NO_CHARGES


@<TRIPOS>ATOM
1    C       231.8806   81.4951  184.3318  C     
2    C       233.0914   80.9799  184.5751  C     
3    C       232.5764   79.9165  185.1870  C     
4    C       231.3378   80.4167  184.9545  C     
5    O       230.3850   79.7749  184.5292  O     
6    O       231.5420   81.8999  183.2264  O     
7    N       233.0485   78.8446  185.8384  N     
8    N       234.3692   81.2936  184.2972  N     
9    C       234.9746   82.4567  184.0058  C     
10   C       236.3752   82.3700  183.8236  C     
11   C       237.1119   83.5260  183.5120  C     
12   N       236.4721   84.7156  183.4023  N     
13   C       235.1357   84.8513  183.5925  C     
14   C       234.3517   83.7237  183.9072  C     
15   C       232.1667   77.7964  186.2840  C     
16   C       231.7921   76.8745  185.1501  C     
17   C       230.4322   76.5345  184.9453  C     
18   C       230.0396   75.7210  183.8688  C     
19   C       231.0075   75.2315  182.9650  C     
20   C       232.3555   75.5392  183.1590  C     
21   C       232.7469   76.3303  184.2542  C     
22   C       232.5472   76.9312  187.5402  C     
23   C       234.4775   78.7344  186.0265  C     
24   H       234.9748   80.5487  184.3579  H     
25   H       236.8676   81.4721  183.9060  H     
26   H       238.1192   83.4737  183.3702  H     
27   H       234.7057   85.7688  183.5160  H     
28   H       233.3506   83.8309  184.0620  H     
29   H       231.2617   78.3095  186.6410  H     
30   H       229.7275   76.8899  185.5796  H     
31   H       229.0595   75.4862  183.7447  H     
32   H       230.7121   74.6414  182.1801  H     
33   H       233.0606   75.1832  182.5024  H     
34   H       233.7540   76.5292  184.3574  H     
35   H       233.3007   76.1756  187.3125  H     
36   H       231.6490   76.4207  187.9310  H     
37   H       232.9246   77.5956  188.3158  H     
38   H       234.9525   78.6876  185.0328  H     
39   H       234.8362   77.8564  186.5892  H     
40   H       234.8254   79.6358  186.5603  H     
@<TRIPOS>BOND
     1    1    2 1
     2    1    4 1
     3    1    6 2
     4    2    3 2
     5    2    8 1
     6    3    4 1
     7    3    7 1
     8    4    5 2
     9    7   15 1
    10    7   23 1
    11    8    9 1
    12    9   10 2
    13    9   14 1
    14   10   11 1
    15   11   12 2
    16   12   13 1
    17   13   14 2
    18   15   16 1
    19   15   22 1
    20   16   17 2
    21   16   21 1
    22   17   18 1
    23   18   19 2
    24   19   20 1
    25   20   21 2
    26    8   24 1
    27   10   25 1
    28   11   26 1
    29   13   27 1
    30   14   28 1
    31   15   29 1
    32   17   30 1
    33   18   31 1
    34   19   32 1
    35   20   33 1
    36   21   34 1
    37   22   35 1
    38   22   36 1
    39   22   37 1
    40   23   38 1
    41   23   39 1
    42   23   40 1
@<TRIPOS>PROPERTY_DATA
  Total_Score	| 6.7690
  Crash		| -0.4348
  Polar		| 2.4108
  FragIndex	| 1
  FragRMSD	| 0.354

