@<TRIPOS>MOLECULE
BindingDB_50259378
 34 36 0 0 0
SMALL
NO_CHARGES


@<TRIPOS>ATOM
1    C       231.8352   81.4115  183.9201  C     
2    C       233.0592   80.9823  184.2793  C     
3    C       232.5206   79.8764  184.7878  C     
4    C       231.2918   80.3357  184.5079  C     
5    O       230.3942   79.6791  183.9986  O     
6    O       231.4124   82.5385  184.1376  O     
7    N       233.0382   78.8506  185.3924  N     
8    N       234.3220   81.4127  184.3305  N     
9    C       234.8934   82.5245  183.7944  C     
10   C       234.2637   83.4492  182.9235  C     
11   C       234.9721   84.5680  182.4492  C     
12   N       236.2621   84.7569  182.8120  N     
13   C       236.9140   83.8992  183.6318  C     
14   C       236.2449   82.7657  184.1395  C     
15   C       232.3322   77.7564  185.9027  C     
16   C       231.8032   76.8608  184.8385  C     
17   C       232.6858   76.1712  183.9705  C     
18   C       232.1906   75.3215  182.9643  C     
19   C       230.8032   75.1537  182.8019  C     
20   C       229.9138   75.8218  183.6631  C     
21   C       230.4088   76.6590  184.6776  C     
22   H       233.9671   78.8581  185.5243  H     
23   H       234.9160   80.8590  184.8630  H     
24   H       233.3040   83.3133  182.6115  H     
25   H       234.5197   85.2379  181.8255  H     
26   H       237.8923   84.0704  183.8663  H     
27   H       236.7501   82.1279  184.7586  H     
28   H       233.0143   77.1709  186.5259  H     
29   H       231.5369   78.1151  186.5638  H     
30   H       233.6972   76.2841  184.0726  H     
31   H       232.8379   74.8293  182.3439  H     
32   H       230.4389   74.5381  182.0713  H     
33   H       228.9019   75.7015  183.5492  H     
34   H       229.7405   77.1453  185.2882  H     
@<TRIPOS>BOND
     1    1    2 1
     2    1    4 1
     3    1    6 2
     4    2    3 2
     5    2    8 1
     6    3    4 1
     7    3    7 1
     8    4    5 2
     9    7   15 1
    10    8    9 1
    11    9   10 2
    12    9   14 1
    13   10   11 1
    14   11   12 2
    15   12   13 1
    16   13   14 2
    17   15   16 1
    18   16   17 2
    19   16   21 1
    20   17   18 1
    21   18   19 2
    22   19   20 1
    23   20   21 2
    24    7   22 1
    25    8   23 1
    26   10   24 1
    27   11   25 1
    28   13   26 1
    29   14   27 1
    30   15   28 1
    31   15   29 1
    32   17   30 1
    33   18   31 1
    34   19   32 1
    35   20   33 1
    36   21   34 1
@<TRIPOS>PROPERTY_DATA
  Total_Score	| 5.7416
  Crash		| -0.3402
  Polar		| 2.2691
  FragIndex	| 1
  FragRMSD	| 0.601

