@<TRIPOS>MOLECULE
BindingDB_50259564
 38 40 0 0 0
SMALL
NO_CHARGES


@<TRIPOS>ATOM
1    C       231.8621   81.1782  183.6559  C     
2    C       233.0319   80.8367  184.2171  C     
3    C       232.4741   79.7224  184.6925  C     
4    C       231.3001   80.0601  184.1397  C     
5    O       230.2172   79.9833  184.7041  O     
6    O       231.3628   82.2889  183.7759  O     
7    N       232.9343   78.7570  185.4327  N     
8    N       234.2763   81.2976  184.3661  N     
9    C       234.8911   82.3839  183.8227  C     
10   C       234.3040   83.2998  182.9070  C     
11   C       235.0585   84.4002  182.4509  C     
12   N       236.3366   84.5831  182.8777  N     
13   C       236.9353   83.7203  183.7445  C     
14   C       236.2330   82.5921  184.2202  C     
15   C       232.2276   77.6408  185.9138  C     
16   C       231.7370   76.7670  184.7966  C     
17   C       230.3524   76.5936  184.5684  C     
18   C       229.8863   75.7887  183.5127  C     
19   C       230.8042   75.1396  182.6664  C     
20   C       232.1870   75.3203  182.8634  C     
21   C       232.6474   76.1339  183.9147  C     
22   C       233.1165   76.8753  186.9365  C     
23   O       232.6340   75.5594  187.2102  O     
24   H       233.8374   78.8205  185.6771  H     
25   H       234.8433   80.7469  184.9404  H     
26   H       233.3473   83.1646  182.5669  H     
27   H       234.6616   85.0675  181.7801  H     
28   H       237.8996   83.8879  184.0433  H     
29   H       236.7082   81.9402  184.8619  H     
30   H       231.3760   78.0174  186.4948  H     
31   H       229.6653   77.0624  185.1659  H     
32   H       228.8818   75.6764  183.3567  H     
33   H       230.4636   74.5404  181.9095  H     
34   H       232.8497   74.8644  182.2318  H     
35   H       233.6562   76.2683  184.0244  H     
36   H       234.1439   76.8037  186.5677  H     
37   H       233.1379   77.4232  187.8791  H     
38   H       233.1495   74.9610  186.6234  H     
@<TRIPOS>BOND
     1    1    2 1
     2    1    4 1
     3    1    6 2
     4    2    3 2
     5    2    8 1
     6    3    4 1
     7    3    7 1
     8    4    5 2
     9    7   15 1
    10    8    9 1
    11    9   10 2
    12    9   14 1
    13   10   11 1
    14   11   12 2
    15   12   13 1
    16   13   14 2
    17   15   16 1
    18   15   22 1
    19   16   17 2
    20   16   21 1
    21   17   18 1
    22   18   19 2
    23   19   20 1
    24   20   21 2
    25   22   23 1
    26    7   24 1
    27    8   25 1
    28   10   26 1
    29   11   27 1
    30   13   28 1
    31   14   29 1
    32   15   30 1
    33   17   31 1
    34   18   32 1
    35   19   33 1
    36   20   34 1
    37   21   35 1
    38   22   36 1
    39   22   37 1
    40   23   38 1
@<TRIPOS>PROPERTY_DATA
  Total_Score	| 6.9298
  Crash		| -0.4186
  Polar		| 3.4737
  FragIndex	| 1
  FragRMSD	| 0.491

