@<TRIPOS>MOLECULE
BindingDB_50259566
 40 42 0 0 0
SMALL
NO_CHARGES


@<TRIPOS>ATOM
1    C       232.2123   81.2781  183.9716  C     
2    C       233.3252   80.8671  184.6209  C     
3    C       232.5764   79.9412  185.2401  C     
4    C       231.4637   80.4265  184.6771  C     
5    O       230.5374   79.7788  184.2113  O     
6    O       231.8594   82.4184  183.6986  O     
7    N       232.8752   78.9336  186.0079  N     
8    N       234.6653   81.1089  184.4912  N     
9    C       235.1637   82.2636  183.9228  C     
10   C       236.3367   82.2518  183.1162  C     
11   C       236.8570   83.4477  182.5861  C     
12   N       236.2503   84.6317  182.8511  N     
13   C       235.1363   84.7080  183.6200  C     
14   C       234.5771   83.5343  184.1657  C     
15   C       232.0465   77.8523  186.3389  C     
16   C       231.7277   76.9716  185.1655  C     
17   C       230.3951   76.5675  184.9102  C     
18   C       230.0899   75.7270  183.8223  C     
19   C       231.1142   75.2654  182.9749  C     
20   C       232.4456   75.6562  183.2122  C     
21   C       232.7490   76.4936  184.3020  C     
22   C       232.7228   77.0156  187.4558  C     
23   C       235.5811   80.1123  185.0215  C     
24   H       233.7275   78.9403  186.3915  H     
25   H       236.7900   81.3701  182.8662  H     
26   H       237.6883   83.4285  181.9929  H     
27   H       234.7178   85.6211  183.8107  H     
28   H       233.7763   83.6223  184.7876  H     
29   H       231.1245   78.2609  186.7705  H     
30   H       229.6336   76.8813  185.5214  H     
31   H       229.1189   75.4533  183.6472  H     
32   H       230.8911   74.6514  182.1902  H     
33   H       233.1899   75.3342  182.5893  H     
34   H       233.7262   76.7575  184.4634  H     
35   H       233.6500   76.5576  187.1017  H     
36   H       232.0448   76.2250  187.7830  H     
37   H       232.9577   77.6431  188.3199  H     
38   H       235.4213   79.9964  186.0971  H     
39   H       236.6382   80.3580  184.9163  H     
40   H       235.4134   79.1509  184.5310  H     
@<TRIPOS>BOND
     1    1    2 1
     2    1    4 1
     3    1    6 2
     4    2    3 2
     5    2    8 1
     6    3    4 1
     7    3    7 1
     8    4    5 2
     9    7   15 1
    10    8    9 1
    11    8   23 1
    12    9   10 2
    13    9   14 1
    14   10   11 1
    15   11   12 2
    16   12   13 1
    17   13   14 2
    18   15   16 1
    19   15   22 1
    20   16   17 2
    21   16   21 1
    22   17   18 1
    23   18   19 2
    24   19   20 1
    25   20   21 2
    26    7   24 1
    27   10   25 1
    28   11   26 1
    29   13   27 1
    30   14   28 1
    31   15   29 1
    32   17   30 1
    33   18   31 1
    34   19   32 1
    35   20   33 1
    36   21   34 1
    37   22   35 1
    38   22   36 1
    39   22   37 1
    40   23   38 1
    41   23   39 1
    42   23   40 1
@<TRIPOS>PROPERTY_DATA
  Total_Score	| 6.3868
  Crash		| -0.8580
  Polar		| 2.1355
  FragIndex	| 1
  FragRMSD	| 0.565

