@<TRIPOS>MOLECULE
BindingDB_50259530
 37 39 0 0 0
SMALL
NO_CHARGES


@<TRIPOS>ATOM
1    C       232.0103   81.5911  184.3407  C     
2    C       233.1755   81.0161  184.6474  C     
3    C       232.5445   79.9762  185.1845  C     
4    C       231.3644   80.5471  184.9048  C     
5    O       230.3835   79.9680  184.4544  O     
6    O       231.7641   81.9994  183.2120  O     
7    N       232.9517   78.8414  185.6800  N     
8    N       234.4605   81.2563  184.4274  N     
9    C       235.0913   82.4101  184.0731  C     
10   C       236.4722   82.3011  183.8205  C     
11   C       237.2087   83.4390  183.4349  C     
12   N       236.5748   84.6390  183.3243  N     
13   C       235.2511   84.7835  183.5689  C     
14   C       234.4654   83.6676  183.9408  C     
15   C       232.1323   77.8270  186.1879  C     
16   C       231.6739   76.9144  185.0891  C     
17   C       232.6012   76.2622  184.2378  C     
18   C       232.1599   75.4303  183.1922  C     
19   C       230.7828   75.2360  182.9813  C     
20   C       229.8476   75.8897  183.8027  C     
21   C       230.2899   76.7229  184.8468  C     
22   C       232.8538   77.0574  187.3253  C     
23   F       230.3696   74.4543  182.0213  F     
24   H       233.8764   78.6873  185.6878  H     
25   H       235.0547   80.4830  184.5735  H     
26   H       236.9593   81.3943  183.9153  H     
27   H       238.2066   83.3577  183.2410  H     
28   H       234.8485   85.7188  183.4846  H     
29   H       233.4592   83.7746  184.1383  H     
30   H       231.2594   78.2839  186.6760  H     
31   H       233.6069   76.3972  184.3716  H     
32   H       232.8428   74.9631  182.5933  H     
33   H       228.8475   75.7630  183.6471  H     
34   H       229.5912   77.1881  185.4305  H     
35   H       233.7851   76.6096  186.9831  H     
36   H       232.2031   76.2608  187.7167  H     
37   H       233.0793   77.7391  188.1565  H     
@<TRIPOS>BOND
     1    1    2 1
     2    1    4 1
     3    1    6 2
     4    2    3 2
     5    2    8 1
     6    3    4 1
     7    3    7 1
     8    4    5 2
     9    7   15 1
    10    8    9 1
    11    9   10 2
    12    9   14 1
    13   10   11 1
    14   11   12 2
    15   12   13 1
    16   13   14 2
    17   15   16 1
    18   15   22 1
    19   16   17 2
    20   16   21 1
    21   17   18 1
    22   18   19 2
    23   19   20 1
    24   19   23 1
    25   20   21 2
    26    7   24 1
    27    8   25 1
    28   10   26 1
    29   11   27 1
    30   13   28 1
    31   14   29 1
    32   15   30 1
    33   17   31 1
    34   18   32 1
    35   20   33 1
    36   21   34 1
    37   22   35 1
    38   22   36 1
    39   22   37 1
@<TRIPOS>PROPERTY_DATA
  Total_Score	| 6.8922
  Crash		| -0.2422
  Polar		| 2.4272
  FragIndex	| 1
  FragRMSD	| 0.326

