@<TRIPOS>MOLECULE
BindingDB_29221
 32 33 0 0 0
SMALL
NO_CHARGES


@<TRIPOS>ATOM
1    C        -5.4606   -4.3516  -15.3972  C     
2    C        -4.5270   -3.5342  -16.0703  C     
3    C        -3.3441   -4.1403  -16.5289  C     
4    C        -3.1071   -5.5203  -16.4181  C     
5    C        -4.0645   -6.3640  -15.7798  C     
6    C        -5.2376   -5.7515  -15.2116  C     
7    C        -6.1105   -6.5550  -14.4439  C     
8    N        -3.8665   -7.7554  -15.5920  N     
9    C        -4.6844   -8.4129  -14.7539  C     
10   C        -5.7977   -7.8522  -14.2272  C     
11   O        -4.4442   -9.5682  -14.4034  O     
12   C        -7.3042   -6.0154  -13.8003  C     
13   O        -1.8658   -5.9852  -16.7862  O     
14   C        -1.1896   -5.4023  -17.9292  C     
15   O        -4.7973   -2.2084  -16.3877  O     
16   C        -3.9423   -1.2178  -15.7771  C     
17   C        -2.8085   -8.5217  -16.2645  C     
18   H        -6.3053   -3.8837  -15.0354  H     
19   H        -2.6218   -3.5476  -16.9319  H     
20   H        -6.3977   -8.4374  -13.6935  H     
21   H        -6.9775   -5.2357  -13.1240  H     
22   H        -7.8787   -6.7359  -13.2199  H     
23   H        -7.9637   -5.6013  -14.5550  H     
24   H        -1.7795   -5.4679  -18.8500  H     
25   H        -0.2714   -5.9810  -18.0562  H     
26   H        -0.8782   -4.3613  -17.7751  H     
27   H        -3.8527   -1.3949  -14.7040  H     
28   H        -4.3723   -0.2247  -15.8973  H     
29   H        -2.9562   -1.2175  -16.2491  H     
30   H        -2.8336   -8.3881  -17.3589  H     
31   H        -2.8579   -9.6091  -16.1071  H     
32   H        -1.8178   -8.2387  -15.8851  H     
@<TRIPOS>BOND
     1    1    2 1
     2    1    6 2
     3    2    3 2
     4    2   15 1
     5    3    4 1
     6    4    5 2
     7    4   13 1
     8    5    6 1
     9    5    8 1
    10    6    7 1
    11    7   10 2
    12    7   12 1
    13    8    9 1
    14    8   17 1
    15    9   10 1
    16    9   11 2
    17   13   14 1
    18   15   16 1
    19    1   18 1
    20    3   19 1
    21   10   20 1
    22   12   21 1
    23   12   22 1
    24   12   23 1
    25   14   24 1
    26   14   25 1
    27   14   26 1
    28   16   27 1
    29   16   28 1
    30   16   29 1
    31   17   30 1
    32   17   31 1
    33   17   32 1
@<TRIPOS>PROPERTY_DATA
  Total_Score	| 4.4387
  Crash		| -0.7647
  Polar		| 1.5728
  FragIndex	| 1
  FragRMSD	| 0.419

