@<TRIPOS>MOLECULE
BindingDB_29219
 32 33 0 0 0
SMALL
NO_CHARGES


@<TRIPOS>ATOM
1    C        -4.8191   -4.4100  -15.6145  C     
2    C        -3.8642   -3.8810  -16.4841  C     
3    C        -2.8796   -4.7175  -17.0377  C     
4    C        -2.8857   -6.1011  -16.7390  C     
5    C        -3.8664   -6.6745  -15.8630  C     
6    C        -4.8493   -5.7924  -15.2972  C     
7    C        -5.8629   -6.3103  -14.4553  C     
8    N        -3.9453   -8.0425  -15.4958  N     
9    C        -4.8855   -8.4583  -14.6112  C     
10   C        -5.8344   -7.6180  -14.1306  C     
11   O        -4.9593   -9.6175  -14.2116  O     
12   C        -6.9608   -5.4839  -13.9358  C     
13   O        -1.9833   -6.8890  -17.4163  O     
14   C        -0.5944   -6.7899  -17.0260  C     
15   O        -1.9638   -4.2116  -17.9287  O     
16   C        -0.9697   -3.3345  -17.3650  C     
17   C        -3.0332   -9.0403  -16.0450  C     
18   H        -5.4991   -3.7518  -15.2330  H     
19   H        -3.8901   -2.8858  -16.7136  H     
20   H        -6.5411   -7.9946  -13.5362  H     
21   H        -6.5508   -4.6941  -13.2957  H     
22   H        -7.6969   -6.0351  -13.3308  H     
23   H        -7.5096   -5.0215  -14.7681  H     
24   H        -0.1483   -5.9152  -17.5241  H     
25   H        -0.0590   -7.6909  -17.3621  H     
26   H        -0.4737   -6.7123  -15.9343  H     
27   H        -1.4066   -2.4032  -16.9941  H     
28   H        -0.2550   -3.0734  -18.1473  H     
29   H        -0.4328   -3.8255  -16.5534  H     
30   H        -3.1018   -9.0557  -17.1344  H     
31   H        -3.2243  -10.0706  -15.7268  H     
32   H        -2.0085   -8.8185  -15.7412  H     
@<TRIPOS>BOND
     1    1    2 1
     2    1    6 2
     3    2    3 2
     4    3    4 1
     5    3   15 1
     6    4    5 2
     7    4   13 1
     8    5    6 1
     9    5    8 1
    10    6    7 1
    11    7   10 2
    12    7   12 1
    13    8    9 1
    14    8   17 1
    15    9   10 1
    16    9   11 2
    17   13   14 1
    18   15   16 1
    19    1   18 1
    20    2   19 1
    21   10   20 1
    22   12   21 1
    23   12   22 1
    24   12   23 1
    25   14   24 1
    26   14   25 1
    27   14   26 1
    28   16   27 1
    29   16   28 1
    30   16   29 1
    31   17   30 1
    32   17   31 1
    33   17   32 1
@<TRIPOS>PROPERTY_DATA
  Total_Score	| 5.0407
  Crash		| -0.4983
  Polar		| 1.2740
  FragIndex	| 1
  FragRMSD	| 0.262

