@<TRIPOS>MOLECULE
BindingDB_29210
 28 30 0 0 0
SMALL
NO_CHARGES


@<TRIPOS>ATOM
1    C        -5.1773   -4.3029  -15.6773  C     
2    C        -4.1315   -3.6902  -16.3855  C     
3    C        -3.0831   -4.4868  -16.8617  C     
4    C        -3.0467   -5.8536  -16.6142  C     
5    C        -4.0680   -6.5076  -15.8635  C     
6    C        -5.1667   -5.6994  -15.4235  C     
7    C        -6.2423   -6.3187  -14.7611  C     
8    N        -4.0698   -7.8813  -15.5436  N     
9    C        -5.1075   -8.3989  -14.8415  C     
10   C        -6.2012   -7.6436  -14.5118  C     
11   O        -5.1352   -9.5696  -14.4712  O     
12   C        -2.9625   -8.7375  -15.9520  C     
13   O        -7.3771   -5.6140  -14.5518  O     
14   C        -7.8846   -5.5530  -13.1961  C     
15   O        -2.0344   -4.0674  -17.5893  O     
16   C        -1.4963   -5.3124  -18.0491  C     
17   O        -1.9377   -6.3738  -17.1882  O     
18   H        -5.9561   -3.7184  -15.3594  H     
19   H        -4.1479   -2.6867  -16.5669  H     
20   H        -7.0061   -8.0830  -14.1278  H     
21   H        -2.8971   -8.7650  -17.0431  H     
22   H        -3.0381   -9.7755  -15.6235  H     
23   H        -2.0238   -8.3559  -15.5474  H     
24   H        -8.2040   -6.5451  -12.8569  H     
25   H        -8.7386   -4.8961  -13.1895  H     
26   H        -7.1281   -5.1594  -12.5083  H     
27   H        -1.8408   -5.5039  -19.0697  H     
28   H        -0.4060   -5.2649  -18.0545  H     
@<TRIPOS>BOND
     1    1    2 1
     2    1    6 2
     3    2    3 2
     4    3    4 1
     5    3   15 1
     6    4    5 2
     7    4   17 1
     8    5    6 1
     9    5    8 1
    10    6    7 1
    11    7   10 2
    12    7   13 1
    13    8    9 1
    14    8   12 1
    15    9   10 1
    16    9   11 2
    17   13   14 1
    18   15   16 1
    19   16   17 1
    20    1   18 1
    21    2   19 1
    22   10   20 1
    23   12   21 1
    24   12   22 1
    25   12   23 1
    26   14   24 1
    27   14   25 1
    28   14   26 1
    29   16   27 1
    30   16   28 1
@<TRIPOS>PROPERTY_DATA
  Total_Score	| 4.5514
  Crash		| -0.3095
  Polar		| 1.2441
  FragIndex	| 1
  FragRMSD	| 0.489

