@<TRIPOS>MOLECULE
BindingDB_29217
 28 29 0 0 0
SMALL
NO_CHARGES


@<TRIPOS>ATOM
1    C        -4.9856   -4.3461  -15.5129  C     
2    C        -4.0796   -3.7509  -16.3989  C     
3    C        -3.1174   -4.5426  -17.0301  C     
4    C        -3.0132   -5.9231  -16.7476  C     
5    C        -3.9392   -6.5637  -15.8532  C     
6    C        -4.9551   -5.7396  -15.2423  C     
7    C        -5.9201   -6.3384  -14.3844  C     
8    N        -3.9316   -7.9483  -15.5378  N     
9    C        -4.8618   -8.4417  -14.6868  C     
10   C        -5.8406   -7.6617  -14.1492  C     
11   O        -4.8931   -9.6262  -14.3555  O     
12   C        -7.0290   -5.5761  -13.7859  C     
13   C        -2.9420   -8.8659  -16.0931  C     
14   O        -2.0314   -6.5906  -17.4375  O     
15   C        -0.7001   -6.3951  -16.9195  C     
16   H        -5.6787   -3.7311  -15.0810  H     
17   H        -4.1292   -2.7418  -16.5743  H     
18   H        -2.4480   -4.0966  -17.6688  H     
19   H        -6.5321   -8.0955  -13.5791  H     
20   H        -6.6180   -4.7981  -13.1381  H     
21   H        -7.7110   -6.1883  -13.1850  H     
22   H        -7.6200   -5.1196  -14.5809  H     
23   H        -3.0153   -8.8939  -17.1841  H     
24   H        -3.0319   -9.9072  -15.7637  H     
25   H        -1.9314   -8.5546  -15.8088  H     
26   H        -0.3308   -5.3915  -17.1376  H     
27   H        -0.0431   -7.1183  -17.4014  H     
28   H        -0.6585   -6.5623  -15.8375  H     
@<TRIPOS>BOND
     1    1    2 1
     2    1    6 2
     3    2    3 2
     4    3    4 1
     5    4    5 2
     6    4   14 1
     7    5    6 1
     8    5    8 1
     9    6    7 1
    10    7   10 2
    11    7   12 1
    12    8    9 1
    13    8   13 1
    14    9   10 1
    15    9   11 2
    16   14   15 1
    17    1   16 1
    18    2   17 1
    19    3   18 1
    20   10   19 1
    21   12   20 1
    22   12   21 1
    23   12   22 1
    24   13   23 1
    25   13   24 1
    26   13   25 1
    27   15   26 1
    28   15   27 1
    29   15   28 1
@<TRIPOS>PROPERTY_DATA
  Total_Score	| 4.0839
  Crash		| -0.4257
  Polar		| 1.3412
  FragIndex	| 1
  FragRMSD	| 0.517

