@<TRIPOS>MOLECULE
BindingDB_29213
 27 29 0 0 0
SMALL
NO_CHARGES


@<TRIPOS>ATOM
1    C        -5.1068   -4.3418  -15.5430  C     
2    C        -4.1569   -3.7305  -16.3735  C     
3    C        -3.1198   -4.5091  -16.8879  C     
4    C        -3.0376   -5.8699  -16.6208  C     
5    C        -3.9763   -6.5294  -15.7857  C     
6    C        -5.0330   -5.7281  -15.2274  C     
7    C        -5.9782   -6.3488  -14.3756  C     
8    N        -3.9186   -7.8978  -15.4639  N     
9    C        -4.8463   -8.4199  -14.6328  C     
10   C        -5.8640   -7.6698  -14.1268  C     
11   O        -4.8349   -9.5992  -14.2920  O     
12   O        -2.1034   -4.0624  -17.6551  O     
13   C        -1.5398   -5.3042  -18.0975  C     
14   O        -1.9466   -6.3776  -17.2373  O     
15   C        -7.0914   -5.6077  -13.7727  C     
16   C        -2.8762   -8.7566  -16.0109  C     
17   H        -5.8488   -3.7461  -15.1715  H     
18   H        -4.2171   -2.7355  -16.5938  H     
19   H        -6.5562   -8.1264  -13.5726  H     
20   H        -1.8869   -5.5079  -19.1136  H     
21   H        -0.4522   -5.2363  -18.1029  H     
22   H        -6.7020   -4.8027  -13.1468  H     
23   H        -7.7361   -6.2237  -13.1409  H     
24   H        -7.7197   -5.1801  -14.5550  H     
25   H        -2.9165   -8.7509  -17.1028  H     
26   H        -2.9395   -9.8062  -15.7124  H     
27   H        -1.8965   -8.4017  -15.6845  H     
@<TRIPOS>BOND
     1    1    2 1
     2    1    6 2
     3    2    3 2
     4    3    4 1
     5    3   12 1
     6    4    5 2
     7    4   14 1
     8    5    6 1
     9    5    8 1
    10    6    7 1
    11    7   10 2
    12    7   15 1
    13    8    9 1
    14    8   16 1
    15    9   10 1
    16    9   11 2
    17   12   13 1
    18   13   14 1
    19    1   17 1
    20    2   18 1
    21   10   19 1
    22   13   20 1
    23   13   21 1
    24   15   22 1
    25   15   23 1
    26   15   24 1
    27   16   25 1
    28   16   26 1
    29   16   27 1
@<TRIPOS>PROPERTY_DATA
  Total_Score	| 4.5398
  Crash		| -0.3840
  Polar		| 1.4055
  FragIndex	| 1
  FragRMSD	| 0.092

