@<TRIPOS>MOLECULE
BindingDB_29229
 40 41 0 0 0
SMALL
NO_CHARGES


@<TRIPOS>ATOM
1    C        -5.3571   -4.6756  -15.4331  C     
2    C        -4.3351   -3.9491  -16.0942  C     
3    C        -3.1219   -4.5847  -16.4309  C     
4    C        -2.9243   -5.9343  -16.0867  C     
5    C        -4.0146   -6.7237  -15.6304  C     
6    C        -5.2516   -6.0855  -15.2695  C     
7    C        -6.2617   -6.9197  -14.7022  C     
8    N        -3.8952   -8.1039  -15.4365  N     
9    C        -4.7189   -8.7119  -14.5681  C     
10   C        -5.9150   -8.1469  -14.2534  C     
11   O        -4.5650   -9.8826  -14.2408  O     
12   C        -7.7038   -6.6397  -14.6661  C     
13   O        -1.6591   -6.4443  -16.2314  O     
14   C        -0.9854   -6.7262  -14.9937  C     
15   O        -4.4987   -2.6688  -16.5748  O     
16   C        -4.4693   -1.5617  -15.6493  C     
17   O        -6.4304   -3.9470  -15.0071  O     
18   C        -6.6117   -3.9043  -13.5739  C     
19   O        -2.1286   -3.8587  -17.0508  O     
20   C        -1.5269   -4.4992  -18.1869  C     
21   C        -3.0664   -8.9442  -16.2910  C     
22   H        -6.5964   -8.7204  -13.8064  H     
23   H        -7.9898   -5.6548  -15.0187  H     
24   H        -8.0814   -6.7382  -13.6433  H     
25   H        -8.2381   -7.3615  -15.2878  H     
26   H        -0.8210   -5.8143  -14.4101  H     
27   H        -0.0108   -7.1543  -15.2349  H     
28   H        -1.5422   -7.4505  -14.3904  H     
29   H        -5.4343   -1.4738  -15.1349  H     
30   H        -4.3067   -0.6434  -16.2110  H     
31   H        -3.6656   -1.6622  -14.9099  H     
32   H        -6.8712   -4.8821  -13.1562  H     
33   H        -7.4303   -3.2167  -13.3630  H     
34   H        -5.7180   -3.5276  -13.0729  H     
35   H        -0.8413   -5.2849  -17.8723  H     
36   H        -0.9521   -3.7525  -18.7266  H     
37   H        -2.2685   -4.9148  -18.8668  H     
38   H        -2.6896   -8.4314  -17.1729  H     
39   H        -3.6570   -9.7853  -16.6742  H     
40   H        -2.2164   -9.3387  -15.7231  H     
@<TRIPOS>BOND
     1    1    2 1
     2    1    6 2
     3    1   17 1
     4    2    3 2
     5    2   15 1
     6    3    4 1
     7    3   19 1
     8    4    5 2
     9    4   13 1
    10    5    6 1
    11    5    8 1
    12    6    7 1
    13    7   10 2
    14    7   12 1
    15    8    9 1
    16    8   21 1
    17    9   10 1
    18    9   11 2
    19   13   14 1
    20   15   16 1
    21   17   18 1
    22   19   20 1
    23   10   22 1
    24   12   23 1
    25   12   24 1
    26   12   25 1
    27   14   26 1
    28   14   27 1
    29   14   28 1
    30   16   29 1
    31   16   30 1
    32   16   31 1
    33   18   32 1
    34   18   33 1
    35   18   34 1
    36   20   35 1
    37   20   36 1
    38   20   37 1
    39   21   38 1
    40   21   39 1
    41   21   40 1
@<TRIPOS>PROPERTY_DATA
  Total_Score	| 4.2851
  Crash		| -0.9706
  Polar		| 1.5464
  FragIndex	| 1
  FragRMSD	| 1.346

