@<TRIPOS>MOLECULE
BindingDB_29212
 24 26 0 0 0
SMALL
NO_CHARGES


@<TRIPOS>ATOM
1    C        -5.1812   -4.4064  -15.5573  C     
2    C        -4.2020   -3.7420  -16.3238  C     
3    C        -3.0705   -4.4539  -16.7513  C     
4    C        -2.9070   -5.7912  -16.4274  C     
5    C        -3.8762   -6.4686  -15.6666  C     
6    C        -5.0422   -5.7805  -15.2131  C     
7    C        -5.9861   -6.5231  -14.4523  C     
8    N        -3.7128   -7.7883  -15.3556  N     
9    C        -4.6103   -8.4507  -14.6351  C     
10   C        -5.7398   -7.8303  -14.1837  C     
11   O        -4.3950   -9.6267  -14.3811  O     
12   O        -2.0489   -3.9938  -17.4971  O     
13   C        -1.1180   -5.0876  -17.4080  C     
14   O        -1.7596   -6.2853  -16.9321  O     
15   C        -7.2160   -5.9065  -13.9530  C     
16   H        -5.9996   -3.8713  -15.2620  H     
17   H        -4.3129   -2.7559  -16.5687  H     
18   H        -2.9196   -8.2533  -15.6678  H     
19   H        -6.3862   -8.3628  -13.6485  H     
20   H        -0.6800   -5.2744  -18.3874  H     
21   H        -0.3122   -4.8153  -16.7188  H     
22   H        -6.9678   -5.0827  -13.2811  H     
23   H        -7.8573   -6.5985  -13.4011  H     
24   H        -7.8011   -5.5197  -14.7909  H     
@<TRIPOS>BOND
     1    1    2 1
     2    1    6 2
     3    2    3 2
     4    3    4 1
     5    3   12 1
     6    4    5 2
     7    4   14 1
     8    5    6 1
     9    5    8 1
    10    6    7 1
    11    7   10 2
    12    7   15 1
    13    8    9 1
    14    9   10 1
    15    9   11 2
    16   12   13 1
    17   13   14 1
    18    1   16 1
    19    2   17 1
    20    8   18 1
    21   10   19 1
    22   13   20 1
    23   13   21 1
    24   15   22 1
    25   15   23 1
    26   15   24 1
@<TRIPOS>PROPERTY_DATA
  Total_Score	| 3.0556
  Crash		| -0.3245
  Polar		| 1.6170
  FragIndex	| 1
  FragRMSD	| 0.362

