@<TRIPOS>MOLECULE
BindingDB_29225
 36 37 0 0 0
SMALL
NO_CHARGES


@<TRIPOS>ATOM
1    C        -5.0038   -4.4573  -15.5096  C     
2    C        -3.9318   -3.8020  -16.1477  C     
3    C        -2.8007   -4.5577  -16.5144  C     
4    C        -2.7501   -5.9469  -16.2561  C     
5    C        -3.8693   -6.6293  -15.6934  C     
6    C        -4.9818   -5.8486  -15.2392  C     
7    C        -5.9900   -6.4825  -14.4677  C     
8    N        -3.9090   -8.0201  -15.4824  N     
9    C        -4.7989   -8.5306  -14.6095  C     
10   C        -5.8306   -7.7810  -14.1351  C     
11   O        -4.7748   -9.7104  -14.2745  O     
12   C        -7.1519   -5.7617  -13.9407  C     
13   O        -1.5731   -6.5899  -16.5382  O     
14   C        -0.6623   -6.6652  -15.4228  C     
15   O        -1.7272   -3.8747  -17.0305  O     
16   O        -3.8551   -2.4443  -16.3878  O     
17   C        -4.8957   -1.5411  -15.9916  C     
18   C        -1.1761   -4.3801  -18.2580  C     
19   C        -3.1236   -8.9386  -16.2904  C     
20   H        -5.8000   -3.8953  -15.2138  H     
21   H        -6.5126   -8.2297  -13.5671  H     
22   H        -6.8112   -4.9710  -13.2726  H     
23   H        -7.8365   -6.3923  -13.3677  H     
24   H        -7.7229   -5.3170  -14.7569  H     
25   H        -0.2982   -5.6746  -15.1379  H     
26   H         0.1918   -7.2719  -15.7257  H     
27   H        -1.1264   -7.1439  -14.5563  H     
28   H        -5.8306   -1.7928  -16.4914  H     
29   H        -4.6063   -0.5307  -16.2797  H     
30   H        -5.0359   -1.5620  -14.9111  H     
31   H        -0.4847   -5.1961  -18.0408  H     
32   H        -0.6157   -3.5757  -18.7420  H     
33   H        -1.9453   -4.7328  -18.9535  H     
34   H        -2.9656   -8.5393  -17.2924  H     
35   H        -3.6205   -9.9001  -16.4404  H     
36   H        -2.1599   -9.1283  -15.8183  H     
@<TRIPOS>BOND
     1    1    2 1
     2    1    6 2
     3    2    3 2
     4    2   16 1
     5    3    4 1
     6    3   15 1
     7    4    5 2
     8    4   13 1
     9    5    6 1
    10    5    8 1
    11    6    7 1
    12    7   10 2
    13    7   12 1
    14    8    9 1
    15    8   19 1
    16    9   10 1
    17    9   11 2
    18   13   14 1
    19   15   18 1
    20   16   17 1
    21    1   20 1
    22   10   21 1
    23   12   22 1
    24   12   23 1
    25   12   24 1
    26   14   25 1
    27   14   26 1
    28   14   27 1
    29   17   28 1
    30   17   29 1
    31   17   30 1
    32   18   31 1
    33   18   32 1
    34   18   33 1
    35   19   34 1
    36   19   35 1
    37   19   36 1
@<TRIPOS>PROPERTY_DATA
  Total_Score	| 4.6689
  Crash		| -0.9777
  Polar		| 1.4594
  FragIndex	| 1
  FragRMSD	| 0.412

