@<TRIPOS>MOLECULE
BindingDB_29223
 32 33 0 0 0
SMALL
NO_CHARGES


@<TRIPOS>ATOM
1    C        -5.1049   -4.3303  -15.6037  C     
2    C        -4.0895   -3.7558  -16.3786  C     
3    C        -3.0819   -4.5393  -16.9582  C     
4    C        -3.0345   -5.9306  -16.7175  C     
5    C        -4.0303   -6.5675  -15.8980  C     
6    C        -5.0817   -5.7403  -15.3245  C     
7    C        -6.0230   -6.3805  -14.4708  C     
8    N        -3.9791   -7.9413  -15.5526  N     
9    C        -4.8265   -8.4219  -14.6252  C     
10   C        -5.8396   -7.6734  -14.1348  C     
11   O        -4.7686   -9.5772  -14.2050  O     
12   C        -7.2184   -5.7263  -13.9328  C     
13   O        -2.0025   -6.5978  -17.3458  O     
14   C        -0.6795   -6.0161  -17.2120  C     
15   O        -5.9893   -3.4620  -14.9927  O     
16   C        -6.2058   -2.1086  -15.4871  C     
17   C        -3.0234   -8.8646  -16.1572  C     
18   H        -4.0502   -2.7324  -16.4959  H     
19   H        -2.3391   -4.0760  -17.4978  H     
20   H        -6.4856   -8.1262  -13.5317  H     
21   H        -6.9390   -4.9258  -13.2578  H     
22   H        -7.8720   -6.3832  -13.3612  H     
23   H        -7.8132   -5.3311  -14.7499  H     
24   H        -0.5013   -5.2877  -18.0135  H     
25   H         0.0754   -6.8066  -17.2926  H     
26   H        -0.5350   -5.5269  -16.2402  H     
27   H        -5.3082   -1.4906  -15.3498  H     
28   H        -7.0101   -1.6668  -14.9245  H     
29   H        -6.4601   -2.1135  -16.5434  H     
30   H        -3.0885   -8.8103  -17.2472  H     
31   H        -3.1776   -9.9157  -15.9058  H     
32   H        -2.0134   -8.6122  -15.8274  H     
@<TRIPOS>BOND
     1    1    2 1
     2    1    6 2
     3    1   15 1
     4    2    3 2
     5    3    4 1
     6    4    5 2
     7    4   13 1
     8    5    6 1
     9    5    8 1
    10    6    7 1
    11    7   10 2
    12    7   12 1
    13    8    9 1
    14    8   17 1
    15    9   10 1
    16    9   11 2
    17   13   14 1
    18   15   16 1
    19    2   18 1
    20    3   19 1
    21   10   20 1
    22   12   21 1
    23   12   22 1
    24   12   23 1
    25   14   24 1
    26   14   25 1
    27   14   26 1
    28   16   27 1
    29   16   28 1
    30   16   29 1
    31   17   30 1
    32   17   31 1
    33   17   32 1
@<TRIPOS>PROPERTY_DATA
  Total_Score	| 4.6305
  Crash		| -0.8081
  Polar		| 1.3780
  FragIndex	| 1
  FragRMSD	| 0.431

