@<TRIPOS>MOLECULE
BindingDB_29226
 33 34 0 0 0
SMALL
NO_CHARGES


@<TRIPOS>ATOM
1    C        -5.2068   -4.3039  -15.3280  C     
2    C        -4.2312   -3.6100  -16.0872  C     
3    C        -3.1020   -4.2953  -16.5734  C     
4    C        -2.9172   -5.6591  -16.2925  C     
5    C        -3.8989   -6.3531  -15.5535  C     
6    C        -5.0845   -5.7092  -15.0867  C     
7    C        -6.0486   -6.5408  -14.4292  C     
8    N        -3.6981   -7.6765  -15.2751  N     
9    C        -4.5908   -8.4023  -14.6168  C     
10   C        -5.7612   -7.8475  -14.2040  C     
11   O        -4.3447   -9.5808  -14.3973  O     
12   C        -7.3797   -6.0648  -14.0414  C     
13   O        -1.7619   -6.2769  -16.6950  O     
14   C        -1.8540   -6.9542  -17.9551  C     
15   O        -4.4310   -2.2883  -16.4047  O     
16   C        -3.5101   -1.3426  -15.8361  C     
17   O        -6.2922   -3.5802  -14.9042  O     
18   C        -6.1336   -2.9746  -13.6070  C     
19   H        -2.3985   -3.8012  -17.1248  H     
20   H        -2.8750   -8.0998  -15.5672  H     
21   H        -6.4212   -8.4428  -13.7561  H     
22   H        -7.2908   -5.3392  -13.2328  H     
23   H        -8.0428   -6.8592  -13.6831  H     
24   H        -7.8756   -5.6032  -14.8999  H     
25   H        -2.6300   -7.7220  -17.9389  H     
26   H        -0.8994   -7.4497  -18.1371  H     
27   H        -2.0437   -6.2536  -18.7736  H     
28   H        -3.4283   -1.4547  -14.7508  H     
29   H        -3.8805   -0.3378  -16.0525  H     
30   H        -2.5201   -1.4431  -16.2868  H     
31   H        -5.8164   -3.6992  -12.8521  H     
32   H        -7.0994   -2.5696  -13.3063  H     
33   H        -5.4145   -2.1528  -13.6354  H     
@<TRIPOS>BOND
     1    1    2 1
     2    1    6 2
     3    1   17 1
     4    2    3 2
     5    2   15 1
     6    3    4 1
     7    4    5 2
     8    4   13 1
     9    5    6 1
    10    5    8 1
    11    6    7 1
    12    7   10 2
    13    7   12 1
    14    8    9 1
    15    9   10 1
    16    9   11 2
    17   13   14 1
    18   15   16 1
    19   17   18 1
    20    3   19 1
    21    8   20 1
    22   10   21 1
    23   12   22 1
    24   12   23 1
    25   12   24 1
    26   14   25 1
    27   14   26 1
    28   14   27 1
    29   16   28 1
    30   16   29 1
    31   16   30 1
    32   18   31 1
    33   18   32 1
    34   18   33 1
@<TRIPOS>PROPERTY_DATA
  Total_Score	| 3.8063
  Crash		| -0.3819
  Polar		| 1.6177
  FragIndex	| 1
  FragRMSD	| 0.585

