@<TRIPOS>MOLECULE
BindingDB_29228
 37 38 0 0 0
SMALL
NO_CHARGES


@<TRIPOS>ATOM
1    C        -5.1546   -4.4216  -15.4106  C     
2    C        -4.0943   -3.8201  -16.1526  C     
3    C        -2.9894   -4.5872  -16.5917  C     
4    C        -2.9059   -5.9549  -16.2510  C     
5    C        -3.9572   -6.5526  -15.5253  C     
6    C        -5.1274   -5.8255  -15.1494  C     
7    C        -6.1738   -6.5820  -14.5136  C     
8    N        -3.8316   -7.8589  -15.1387  N     
9    C        -4.7942   -8.5127  -14.5111  C     
10   C        -5.9743   -7.8953  -14.2377  C     
11   O        -4.6132   -9.6890  -14.2291  O     
12   C        -7.5020   -6.0337  -14.2094  C     
13   O        -1.7517   -6.6599  -16.5066  O     
14   C        -1.7705   -7.4615  -17.7067  C     
15   O        -4.1462   -2.4829  -16.4726  O     
16   C        -3.2058   -1.6375  -15.7681  C     
17   O        -6.1194   -3.6769  -14.7642  O     
18   C        -6.4679   -2.3272  -15.0946  C     
19   O        -1.9388   -3.9043  -17.1525  O     
20   C        -1.2967   -4.4206  -18.3257  C     
21   H        -2.9993   -8.3201  -15.3226  H     
22   H        -6.6992   -8.4467  -13.8367  H     
23   H        -7.4118   -5.3089  -13.4007  H     
24   H        -8.2246   -6.7780  -13.8724  H     
25   H        -7.9153   -5.5569  -15.1004  H     
26   H        -2.4709   -8.3012  -17.6373  H     
27   H        -0.7669   -7.8661  -17.8558  H     
28   H        -2.0204   -6.8603  -18.5811  H     
29   H        -3.2760   -1.7688  -14.6873  H     
30   H        -3.4551   -0.6018  -15.9977  H     
31   H        -2.1803   -1.8223  -16.0830  H     
32   H        -5.6957   -1.6424  -14.7217  H     
33   H        -7.4076   -2.0902  -14.5948  H     
34   H        -6.5960   -2.2007  -16.1776  H     
35   H        -0.5205   -5.1323  -18.0490  H     
36   H        -0.8143   -3.5804  -18.8235  H     
37   H        -2.0008   -4.8776  -19.0247  H     
@<TRIPOS>BOND
     1    1    2 1
     2    1    6 2
     3    1   17 1
     4    2    3 2
     5    2   15 1
     6    3    4 1
     7    3   19 1
     8    4    5 2
     9    4   13 1
    10    5    6 1
    11    5    8 1
    12    6    7 1
    13    7   10 2
    14    7   12 1
    15    8    9 1
    16    9   10 1
    17    9   11 2
    18   13   14 1
    19   15   16 1
    20   17   18 1
    21   19   20 1
    22    8   21 1
    23   10   22 1
    24   12   23 1
    25   12   24 1
    26   12   25 1
    27   14   26 1
    28   14   27 1
    29   14   28 1
    30   16   29 1
    31   16   30 1
    32   16   31 1
    33   18   32 1
    34   18   33 1
    35   18   34 1
    36   20   35 1
    37   20   36 1
    38   20   37 1
@<TRIPOS>PROPERTY_DATA
  Total_Score	| 5.0668
  Crash		| -0.9119
  Polar		| 1.6771
  FragIndex	| 1
  FragRMSD	| 0.416

