@<TRIPOS>MOLECULE
BindingDB_29218
 29 30 0 0 0
SMALL
NO_CHARGES


@<TRIPOS>ATOM
1    C        -5.1696   -4.4905  -15.6610  C     
2    C        -4.0871   -3.8638  -16.2962  C     
3    C        -2.9351   -4.5907  -16.6466  C     
4    C        -2.8817   -5.9770  -16.3839  C     
5    C        -3.9386   -6.5853  -15.6704  C     
6    C        -5.1028   -5.8540  -15.2935  C     
7    C        -6.0990   -6.5314  -14.5393  C     
8    N        -3.8196   -7.8859  -15.2671  N     
9    C        -4.7618   -8.4945  -14.5587  C     
10   C        -5.9041   -7.8310  -14.2065  C     
11   O        -4.5771   -9.6566  -14.2278  O     
12   C        -7.3248   -5.8541  -14.1088  C     
13   O        -1.7566   -6.6930  -16.7067  O     
14   C        -1.8716   -7.4190  -17.9464  C     
15   O        -1.8317   -3.8708  -17.0307  O     
16   C        -1.1249   -4.3180  -18.1889  C     
17   H        -5.9872   -3.9250  -15.4329  H     
18   H        -4.1310   -2.8603  -16.4727  H     
19   H        -3.0126   -8.3769  -15.4883  H     
20   H        -6.5962   -8.3279  -13.6852  H     
21   H        -7.0806   -5.0123  -13.4562  H     
22   H        -7.9942   -6.5034  -13.5431  H     
23   H        -7.8795   -5.4847  -14.9770  H     
24   H        -2.6430   -8.1859  -17.9074  H     
25   H        -0.9253   -7.9181  -18.1347  H     
26   H        -2.0764   -6.7500  -18.7906  H     
27   H        -0.5050   -5.1854  -17.9523  H     
28   H        -0.4679   -3.5122  -18.5109  H     
29   H        -1.7979   -4.5591  -19.0082  H     
@<TRIPOS>BOND
     1    1    2 1
     2    1    6 2
     3    2    3 2
     4    3    4 1
     5    3   15 1
     6    4    5 2
     7    4   13 1
     8    5    6 1
     9    5    8 1
    10    6    7 1
    11    7   10 2
    12    7   12 1
    13    8    9 1
    14    9   10 1
    15    9   11 2
    16   13   14 1
    17   15   16 1
    18    1   17 1
    19    2   18 1
    20    8   19 1
    21   10   20 1
    22   12   21 1
    23   12   22 1
    24   12   23 1
    25   14   24 1
    26   14   25 1
    27   14   26 1
    28   16   27 1
    29   16   28 1
    30   16   29 1
@<TRIPOS>PROPERTY_DATA
  Total_Score	| 4.6645
  Crash		| -0.7260
  Polar		| 1.6068
  FragIndex	| 1
  FragRMSD	| 0.445

