@<TRIPOS>MOLECULE
BindingDB_29224
 33 34 0 0 0
SMALL
NO_CHARGES


@<TRIPOS>ATOM
1    C        -5.1601   -4.3862  -15.5888  C     
2    C        -4.0690   -3.7094  -16.1678  C     
3    C        -2.8859   -4.3931  -16.5179  C     
4    C        -2.8179   -5.7946  -16.3005  C     
5    C        -3.8757   -6.4425  -15.6126  C     
6    C        -5.0619   -5.7484  -15.2346  C     
7    C        -6.0578   -6.4586  -14.5085  C     
8    N        -3.7600   -7.7601  -15.2608  N     
9    C        -4.7002   -8.4020  -14.5823  C     
10   C        -5.8430   -7.7605  -14.2072  C     
11   O        -4.5175   -9.5748  -14.2940  O     
12   C        -7.2970   -5.8133  -14.0710  C     
13   O        -1.7070   -6.5028  -16.6768  O     
14   C        -1.8250   -7.1444  -17.9687  C     
15   O        -1.8228   -3.6127  -16.9192  O     
16   O        -4.1801   -2.3703  -16.4093  O     
17   C        -4.0323   -1.5675  -15.2194  C     
18   C        -1.0255   -4.0332  -18.0357  C     
19   H        -5.9961   -3.8423  -15.3612  H     
20   H        -2.9510   -8.2334  -15.4992  H     
21   H        -6.5231   -8.2842  -13.7031  H     
22   H        -7.0562   -4.9847  -13.4085  H     
23   H        -7.9847   -6.4764  -13.5345  H     
24   H        -7.8273   -5.4490  -14.9502  H     
25   H        -2.6161   -7.8973  -17.9739  H     
26   H        -0.8876   -7.6587  -18.1805  H     
27   H        -2.0103   -6.4261  -18.7665  H     
28   H        -4.8185   -1.7717  -14.4793  H     
29   H        -4.1082   -0.5183  -15.5131  H     
30   H        -3.0560   -1.7086  -14.7560  H     
31   H        -0.3669   -4.8593  -17.7314  H     
32   H        -0.3982   -3.2039  -18.3617  H     
33   H        -1.6340   -4.3478  -18.8808  H     
@<TRIPOS>BOND
     1    1    2 1
     2    1    6 2
     3    2    3 2
     4    2   16 1
     5    3    4 1
     6    3   15 1
     7    4    5 2
     8    4   13 1
     9    5    6 1
    10    5    8 1
    11    6    7 1
    12    7   10 2
    13    7   12 1
    14    8    9 1
    15    9   10 1
    16    9   11 2
    17   13   14 1
    18   15   18 1
    19   16   17 1
    20    1   19 1
    21    8   20 1
    22   10   21 1
    23   12   22 1
    24   12   23 1
    25   12   24 1
    26   14   25 1
    27   14   26 1
    28   14   27 1
    29   17   28 1
    30   17   29 1
    31   17   30 1
    32   18   31 1
    33   18   32 1
    34   18   33 1
@<TRIPOS>PROPERTY_DATA
  Total_Score	| 4.4378
  Crash		| -0.6207
  Polar		| 1.6003
  FragIndex	| 1
  FragRMSD	| 0.609

