@<TRIPOS>MOLECULE
BindingDB_50236140
 19 19 0 0 0
SMALL
NO_CHARGES


@<TRIPOS>ATOM
1    C        -6.0678    3.6397   15.4122  C     
2    C        -5.2708    2.5661   15.8584  C     
3    C        -3.8822    2.5871   15.6012  C     
4    C        -3.3048    3.6873   14.9291  C     
5    C        -4.1094    4.7733   14.5137  C     
6    C        -5.4934    4.7352   14.7429  C     
7    S        -5.9841    1.2370   16.7226  S     
8    N        -7.5851    1.4944   17.1161  N     
9    O        -5.9660   -0.0319   15.7810  O     
10   O        -5.1371    0.9333   18.0308  O     
11   C        -3.5786    5.8096   13.9313  C     
12   C        -3.1054    6.7713   13.4020  C     
13   H        -7.0733    3.6537   15.5543  H     
14   H        -3.2761    1.8163   15.9046  H     
15   H        -2.2921    3.6953   14.7600  H     
16   H        -6.1084    5.4972   14.4454  H     
17   H        -8.0778    0.8349   17.6083  H     
18   H        -7.9911    2.3469   16.9234  H     
19   H        -2.7329    7.5091   12.9961  H     
@<TRIPOS>BOND
     1    1    2 2
     2    1    6 1
     3    2    3 1
     4    2    7 1
     5    3    4 2
     6    4    5 1
     7    5    6 2
     8    5   11 1
     9    7    8 am
    10    7    9 2
    11    7   10 2
    12   11   12 3
    13    1   13 1
    14    3   14 1
    15    4   15 1
    16    6   16 1
    17    8   17 1
    18    8   18 1
    19   12   19 1
@<TRIPOS>PROPERTY_DATA
  Total_Score	| 3.7946
  Crash		| -0.8191
  Polar		| 2.7810
  FragIndex	| 1
  FragRMSD	| 1.432

