@<TRIPOS>MOLECULE
BindingDB_50345226
 42 42 0 0 0
SMALL
NO_CHARGES


@<TRIPOS>ATOM
1    N        -2.2615    7.9459   14.0722  N     
2    C        -1.6019    8.9098   14.6953  C     
3    O        -1.4988    8.9027   15.9207  O     
4    C        -1.1087   10.0757   13.9689  C     
5    C        -2.2561   11.1400   13.9309  C     
6    C        -1.8568   12.5572   13.4634  C     
7    C         0.2425   10.6271   14.5544  C     
8    C         1.2606   11.1582   13.5148  C     
9    C        -2.7547    6.7499   14.6837  C     
10   C        -3.8380    6.0477   13.8281  C     
11   C        -4.4099    4.8445   14.5025  C     
12   C        -6.2878    3.6717   15.5636  C     
13   C        -3.5880    3.7297   14.7893  C     
14   C        -4.1015    2.6062   15.4558  C     
15   C        -5.4548    2.5695   15.8552  C     
16   S        -6.0446    1.1879   16.7476  S     
17   N        -7.6795    1.1678   17.1370  N     
18   O        -5.8750   -0.0701   15.7911  O     
19   O        -5.1604    0.9240   18.0413  O     
20   C        -5.7675    4.7953   14.8934  C     
21   H        -2.4021    8.0465   13.1164  H     
22   H        -0.9186    9.7780   12.9315  H     
23   H        -3.0420   10.7845   13.2573  H     
24   H        -2.7063   11.2362   14.9242  H     
25   H        -1.1715   13.0038   14.1855  H     
26   H        -2.7547   13.1826   13.3933  H     
27   H        -1.3811   12.5059   12.4805  H     
28   H         0.0295   11.4402   15.2604  H     
29   H         0.7577    9.8344   15.1056  H     
30   H         1.6166   10.3427   12.8739  H     
31   H         2.1275   11.5905   14.0322  H     
32   H         0.8187   11.9360   12.8847  H     
33   H        -1.9050    6.0778   14.8351  H     
34   H        -3.1874    6.9802   15.6669  H     
35   H        -4.6260    6.7723   13.6083  H     
36   H        -3.4060    5.7458   12.8663  H     
37   H        -7.2751    3.6625   15.8452  H     
38   H        -2.6029    3.7321   14.5163  H     
39   H        -3.4817    1.8164   15.6565  H     
40   H        -8.1337    0.3085   17.2159  H     
41   H        -8.2018    1.9858   17.0681  H     
42   H        -6.3895    5.5823   14.7031  H     
@<TRIPOS>BOND
     1    1    2 am
     2    1    9 1
     3    2    3 2
     4    2    4 1
     5    4    5 1
     6    4    7 1
     7    5    6 1
     8    7    8 1
     9    9   10 1
    10   10   11 1
    11   11   13 2
    12   11   20 1
    13   12   15 1
    14   12   20 2
    15   13   14 1
    16   14   15 2
    17   15   16 1
    18   16   17 am
    19   16   18 2
    20   16   19 2
    21    1   21 1
    22    4   22 1
    23    5   23 1
    24    5   24 1
    25    6   25 1
    26    6   26 1
    27    6   27 1
    28    7   28 1
    29    7   29 1
    30    8   30 1
    31    8   31 1
    32    8   32 1
    33    9   33 1
    34    9   34 1
    35   10   35 1
    36   10   36 1
    37   12   37 1
    38   13   38 1
    39   14   39 1
    40   17   40 1
    41   17   41 1
    42   20   42 1
@<TRIPOS>PROPERTY_DATA
  Total_Score	| 5.1921
  Crash		| -1.2540
  Polar		| 2.6680
  FragIndex	| 1
  FragRMSD	| 1.120

