@<TRIPOS>MOLECULE
BindingDB_10861
 26 26 0 0 0
SMALL
NO_CHARGES


@<TRIPOS>ATOM
1    C        -5.4326    2.5054   15.9211  C     
2    C        -6.2828    3.5829   15.5982  C     
3    C        -5.7751    4.7173   14.9354  C     
4    C        -4.4053    4.7964   14.5749  C     
5    C        -3.5653    3.7052   14.8971  C     
6    C        -4.0707    2.5679   15.5536  C     
7    O        -5.7576   -0.1749   15.8631  O     
8    O        -5.2332    0.9350   18.1283  O     
9    S        -6.0378    1.1007   16.7641  S     
10   N        -7.6833    1.0861   17.1019  N     
11   C        -3.8608    5.9619   13.8196  C     
12   C        -2.5821    6.5682   14.4488  C     
13   N        -1.9106    7.4574   13.4957  N     
14   H        -7.2796    3.5539   15.8406  H     
15   H        -6.4250    5.4747   14.6958  H     
16   H        -2.5712    3.7219   14.6377  H     
17   H        -3.4329    1.7996   15.7931  H     
18   H        -8.0739    0.2658   17.4576  H     
19   H        -8.2431    1.8488   16.8918  H     
20   H        -3.6412    5.6286   12.8041  H     
21   H        -4.6098    6.7555   13.7325  H     
22   H        -2.8544    7.1452   15.3413  H     
23   H        -1.8610    5.7917   14.7165  H     
24   H        -1.6846    6.9350   12.6474  H     
25   H        -1.0452    7.8008   13.9169  H     
26   H        -2.5234    8.2428   13.2660  H     
@<TRIPOS>BOND
     1    1    2 1
     2    1    6 2
     3    1    9 1
     4    2    3 2
     5    3    4 1
     6    4    5 2
     7    4   11 1
     8    5    6 1
     9    7    9 2
    10    8    9 2
    11    9   10 am
    12   11   12 1
    13   12   13 1
    14    2   14 1
    15    3   15 1
    16    5   16 1
    17    6   17 1
    18   10   18 1
    19   10   19 1
    20   11   20 1
    21   11   21 1
    22   12   22 1
    23   12   23 1
    24   13   24 1
    25   13   25 1
    26   13   26 1
@<TRIPOS>PROPERTY_DATA
  Total_Score	| 3.9714
  Crash		| -0.8433
  Polar		| 2.1998
  FragIndex	| 1
  FragRMSD	| 1.089

