@<TRIPOS>MOLECULE
BindingDB_14311
 75 79 0 0 0
SMALL
NO_CHARGES


@<TRIPOS>ATOM
1    C         2.4014   18.0980   70.4976  C     
2    C         1.4227   18.3847   69.5283  C     
3    C         0.8974   19.6847   69.4180  C     
4    C         1.3383   20.7374   70.2652  C     
5    C         2.3199   20.4138   71.2458  C     
6    C         2.8431   19.1154   71.3629  C     
7    F         3.7123   18.8523   72.3036  F     
8    F         2.8567   16.8784   70.6168  F     
9    C         0.7565   22.0021   70.2153  C     
10   O         0.6025   22.6273   71.2609  O     
11   N         0.3060   22.5468   69.0833  N     
12   C        -0.5295   23.7164   68.9614  C     
13   C        -1.9343   23.3124   68.8525  C     
14   O        -2.6572   23.7487   67.9653  O     
15   C         0.0264   24.6032   67.7940  C     
16   C         1.3378   25.3480   68.1815  C     
17   C         1.6636   26.6120   67.3214  C     
18   C         2.8663   26.4709   66.3424  C     
19   N         2.5554   25.6937   65.1401  N     
20   C        -2.5207   22.4460   69.7720  C     
21   N        -1.8478   21.7323   70.6942  N     
22   N        -3.8289   22.1242   69.8694  N     
23   O        -3.9707   21.2364   70.8141  O     
24   C        -2.7409   20.9732   71.3203  C     
25   C        -2.3843   20.0128   72.3819  C     
26   C        -3.0317   18.6792   72.2534  C     
27   C        -4.1504   16.7674   73.3178  C     
28   C        -4.3352   16.1150   72.0669  C     
29   C        -3.8001   16.7561   70.9215  C     
30   C        -3.1581   18.0084   71.0156  C     
31   C        -3.5254   18.0274   73.4053  C     
32   C        -5.0426   14.9009   71.9943  C     
33   O        -5.7341   14.5629   72.9502  O     
34   N        -5.0321   14.1119   70.9182  N     
35   C        -5.8396   12.9274   70.7213  C     
36   C        -5.9694   12.0065   71.9711  C     
37   C        -7.2845   13.2548   70.2394  C     
38   C        -7.4139   11.9637   72.2314  C     
39   C        -9.5523   12.7413   71.3446  C     
40   C       -10.2161   12.1002   72.4114  C     
41   C        -9.4776   11.3912   73.3853  C     
42   C        -8.0736   11.3136   73.2962  C     
43   C        -8.1453   12.6685   71.2710  C     
44   H         1.0931   17.6345   68.9097  H     
45   H         0.1691   19.8367   68.7164  H     
46   H         2.6691   21.1309   71.8836  H     
47   H         0.4818   22.0567   68.2642  H     
48   H        -0.4934   24.3386   69.8488  H     
49   H         0.2025   23.9680   66.9210  H     
50   H        -0.7368   25.3462   67.5360  H     
51   H         1.2689   25.6895   69.2248  H     
52   H         2.1926   24.6506   68.1378  H     
53   H         0.7802   26.9136   66.7512  H     
54   H         1.9106   27.4350   67.9991  H     
55   H         3.1712   27.4746   66.0167  H     
56   H         3.7184   26.0051   66.8482  H     
57   H         2.2996   24.7360   65.4005  H     
58   H         3.3843   25.6627   64.5349  H     
59   H         1.7889   26.1413   64.6365  H     
60   H        -1.3051   19.8571   72.3861  H     
61   H        -2.6322   20.4852   73.3341  H     
62   H        -4.4979   16.3415   74.1858  H     
63   H        -3.9077   16.3340   69.9961  H     
64   H        -2.7973   18.4448   70.1674  H     
65   H        -3.4505   18.4546   74.3349  H     
66   H        -4.4661   14.3730   70.1849  H     
67   H        -5.3454   12.3605   69.9275  H     
68   H        -5.6037   10.9862   71.7752  H     
69   H        -5.4517   12.4334   72.8465  H     
70   H        -7.4679   14.3323   70.1697  H     
71   H        -7.5093   12.7893   69.2700  H     
72   H       -10.0856   13.2520   70.6385  H     
73   H       -11.2368   12.1488   72.4798  H     
74   H        -9.9675   10.9256   74.1524  H     
75   H        -7.5432   10.7866   73.9883  H     
@<TRIPOS>BOND
     1    1    2 1
     2    1    6 2
     3    1    8 1
     4    2    3 2
     5    3    4 1
     6    4    5 2
     7    4    9 1
     8    5    6 1
     9    6    7 1
    10    9   10 2
    11    9   11 am
    12   11   12 1
    13   12   13 1
    14   12   15 1
    15   13   14 2
    16   13   20 1
    17   15   16 1
    18   16   17 1
    19   17   18 1
    20   18   19 1
    21   20   21 1
    22   20   22 2
    23   21   24 2
    24   22   23 1
    25   23   24 1
    26   24   25 1
    27   25   26 1
    28   26   30 1
    29   26   31 2
    30   27   28 2
    31   27   31 1
    32   28   29 1
    33   28   32 1
    34   29   30 2
    35   32   33 2
    36   32   34 am
    37   34   35 1
    38   35   36 1
    39   35   37 1
    40   36   38 1
    41   37   43 1
    42   38   42 1
    43   38   43 2
    44   39   40 2
    45   39   43 1
    46   40   41 1
    47   41   42 2
    48    2   44 1
    49    3   45 1
    50    5   46 1
    51   11   47 1
    52   12   48 1
    53   15   49 1
    54   15   50 1
    55   16   51 1
    56   16   52 1
    57   17   53 1
    58   17   54 1
    59   18   55 1
    60   18   56 1
    61   19   57 1
    62   19   58 1
    63   19   59 1
    64   25   60 1
    65   25   61 1
    66   27   62 1
    67   29   63 1
    68   30   64 1
    69   31   65 1
    70   34   66 1
    71   35   67 1
    72   36   68 1
    73   36   69 1
    74   37   70 1
    75   37   71 1
    76   39   72 1
    77   40   73 1
    78   41   74 1
    79   42   75 1
@<TRIPOS>PROPERTY_DATA
  Total_Score	| 8.3353
  Crash		| -2.8624
  Polar		| 5.7425
  FragIndex	| 1
  FragRMSD	| 0.300

