@<TRIPOS>MOLECULE
BindingDB_14318
 76 81 0 0 0
SMALL
NO_CHARGES


@<TRIPOS>ATOM
1    C         1.2269   21.8911   70.5373  C     
2    O         1.0482   22.5635   71.5390  O     
3    N         0.8082   22.3207   69.3563  N     
4    C         0.0324   23.5069   69.0421  C     
5    C        -1.4134   23.2673   69.2177  C     
6    O        -2.2040   24.0814   68.7279  O     
7    C         0.3884   23.9263   67.5878  C     
8    C         1.8150   24.5386   67.3888  C     
9    C        -1.9755   22.3290   70.0740  C     
10   N        -1.2972   21.3898   70.7844  N     
11   N        -3.2792   22.2486   70.3929  N     
12   O        -3.4456   21.2923   71.2699  O     
13   C        -2.2571   20.7064   71.5037  C     
14   C        -1.9483   19.6622   72.4779  C     
15   C        -2.8550   18.4972   72.2768  C     
16   C        -4.8576   17.2478   72.8804  C     
17   C        -4.5653   16.2351   71.9276  C     
18   C        -3.3949   16.4044   71.1464  C     
19   C        -2.5540   17.5198   71.3073  C     
20   C        -4.0219   18.3600   73.0531  C     
21   C        -5.4043   15.1195   71.7846  C     
22   O        -6.4066   15.0320   72.4890  O     
23   N        -5.1455   14.1289   70.9329  N     
24   C        -5.9040   12.9190   70.7422  C     
25   C        -6.0225   12.0282   72.0192  C     
26   C        -7.3530   13.1830   70.2309  C     
27   C        -7.4641   11.9021   72.2289  C     
28   C        -9.6111   12.5209   71.2557  C     
29   C       -10.2684   11.8188   72.2887  C     
30   C        -9.5206   11.1619   73.2875  C     
31   C        -8.1126   11.2011   73.2636  C     
32   C        -8.2054   12.5537   71.2400  C     
33   C         1.8083   20.5913   70.6744  C     
34   C         2.9747   18.0004   70.9382  C     
35   C         3.3637   19.0382   71.7883  C     
36   C         2.7824   20.3234   71.6617  C     
37   C         1.4142   19.5158   69.8367  C     
38   C         1.9924   18.2316   69.9595  C     
39   F         1.5661   17.2645   69.1881  F     
40   F         3.5365   16.8233   71.0431  F     
41   C         1.8524   26.0731   67.1132  C     
42   C         2.3386   27.0218   68.2307  C     
43   C         3.0690   26.5489   66.2900  C     
44   N         3.4613   27.4539   67.3787  N     
45   H         0.9989   21.7713   68.5752  H     
46   H         0.2853   24.3265   69.7083  H     
47   H         0.2954   23.0390   66.9494  H     
48   H        -0.3379   24.6446   67.1989  H     
49   H         2.4438   24.3025   68.2497  H     
50   H         2.2608   24.0397   66.5241  H     
51   H        -0.8947   19.3666   72.4059  H     
52   H        -2.1096   20.1153   73.4681  H     
53   H        -5.6905   17.1885   73.4688  H     
54   H        -3.1279   15.7187   70.4389  H     
55   H        -1.7163   17.6060   70.7325  H     
56   H        -4.2658   19.0602   73.7544  H     
57   H        -4.3646   14.2179   70.3625  H     
58   H        -5.3749   12.3413   69.9761  H     
59   H        -5.5841   11.0379   71.8589  H     
60   H        -5.5554   12.4861   72.8962  H     
61   H        -7.5831   14.2483   70.1478  H     
62   H        -7.5217   12.7114   69.2589  H     
63   H       -10.1509   12.9876   70.5252  H     
64   H       -11.2893   11.7805   72.3057  H     
65   H       -10.0028   10.6451   74.0267  H     
66   H        -7.5698   10.7203   73.9828  H     
67   H         4.0600   18.8667   72.5212  H     
68   H         3.0932   21.0547   72.3047  H     
69   H         0.6829   19.6286   69.1320  H     
70   H         0.9276   26.4373   66.6591  H     
71   H         1.6534   27.8433   68.4384  H     
72   H         2.6825   26.5215   69.1389  H     
73   H         3.8296   25.7870   66.1082  H     
74   H         2.7939   27.0889   65.3836  H     
75   H         3.4101   28.4376   67.0914  H     
76   H         4.3723   27.2139   67.7763  H     
@<TRIPOS>BOND
     1    1    2 2
     2    1    3 am
     3    1   33 1
     4    3    4 1
     5    4    5 1
     6    4    7 1
     7    5    6 2
     8    5    9 1
     9    7    8 1
    10    8   41 1
    11    9   10 1
    12    9   11 2
    13   10   13 2
    14   11   12 1
    15   12   13 1
    16   13   14 1
    17   14   15 1
    18   15   19 1
    19   15   20 2
    20   16   17 2
    21   16   20 1
    22   17   18 1
    23   17   21 1
    24   18   19 2
    25   21   22 2
    26   21   23 am
    27   23   24 1
    28   24   25 1
    29   24   26 1
    30   25   27 1
    31   26   32 1
    32   27   31 1
    33   27   32 2
    34   28   29 2
    35   28   32 1
    36   29   30 1
    37   30   31 2
    38   33   36 2
    39   33   37 1
    40   34   35 2
    41   34   38 1
    42   34   40 1
    43   35   36 1
    44   37   38 2
    45   38   39 1
    46   41   42 1
    47   41   43 1
    48   42   44 1
    49   43   44 1
    50    3   45 1
    51    4   46 1
    52    7   47 1
    53    7   48 1
    54    8   49 1
    55    8   50 1
    56   14   51 1
    57   14   52 1
    58   16   53 1
    59   18   54 1
    60   19   55 1
    61   20   56 1
    62   23   57 1
    63   24   58 1
    64   25   59 1
    65   25   60 1
    66   26   61 1
    67   26   62 1
    68   28   63 1
    69   29   64 1
    70   30   65 1
    71   31   66 1
    72   35   67 1
    73   36   68 1
    74   37   69 1
    75   41   70 1
    76   42   71 1
    77   42   72 1
    78   43   73 1
    79   43   74 1
    80   44   75 1
    81   44   76 1
@<TRIPOS>PROPERTY_DATA
  Total_Score	| 8.4503
  Crash		| -3.4137
  Polar		| 5.2214
  FragIndex	| 1
  FragRMSD	| 0.899

