@<TRIPOS>MOLECULE
BindingDB_14312
 72 75 0 0 0
SMALL
NO_CHARGES


@<TRIPOS>ATOM
1    C         1.4151   21.8876   70.5751  C     
2    O         2.2342   20.8040   70.6644  O     
3    N         0.8882   22.1851   69.3664  N     
4    C         0.0443   23.3143   69.0920  C     
5    C        -1.3349   22.9965   69.4810  C     
6    O        -2.2595   23.6496   69.0161  O     
7    C         0.2002   23.8057   67.6296  C     
8    C         1.5404   24.5475   67.2865  C     
9    C         1.3798   26.0963   67.2024  C     
10   C         2.7186   26.8862   67.2332  C     
11   N         2.6797   28.0330   68.1617  N     
12   C        -1.6809   21.9778   70.3688  C     
13   N        -0.8466   21.0697   70.9044  N     
14   N        -2.9287   21.7088   70.8047  N     
15   O        -2.8994   20.6573   71.5778  O     
16   C        -1.6181   20.2268   71.6264  C     
17   C        -1.1215   19.0936   72.4221  C     
18   C        -2.0408   17.9281   72.3313  C     
19   C        -2.7496   15.8267   71.2640  C     
20   C        -3.8961   15.7338   72.0975  C     
21   C        -4.0680   16.7623   73.0720  C     
22   C        -3.1640   17.8329   73.1865  C     
23   C        -1.8430   16.8992   71.3761  C     
24   C        -4.8149   14.6795   71.9822  C     
25   O        -5.6816   14.5713   72.8405  O     
26   N        -4.8236   13.8123   70.9694  N     
27   C        -5.7628   12.7370   70.7570  C     
28   C        -5.9526   11.8071   71.9923  C     
29   C        -7.1767   13.2442   70.3533  C     
30   C        -7.3715   11.9401   72.3242  C     
31   C        -9.4352   12.9923   71.5658  C     
32   C       -10.1220   12.4076   72.6502  C     
33   C        -9.4310   11.5867   73.5657  C     
34   C        -8.0527   11.3378   73.3996  C     
35   C        -8.0528   12.7517   71.4162  C     
36   O         1.0586   22.5786   71.6890  O     
37   C         1.4154   22.3337   73.0461  C     
38   C         2.8394   22.7946   73.3788  C     
39   H         1.1154   21.5951   68.6200  H     
40   H         0.3413   24.1663   69.7139  H     
41   H         0.1048   22.9608   66.9375  H     
42   H        -0.6174   24.5178   67.4187  H     
43   H         2.2948   24.2769   68.0477  H     
44   H         1.8959   24.1651   66.3127  H     
45   H         0.8680   26.3297   66.2558  H     
46   H         0.7381   26.4579   68.0155  H     
47   H         3.5354   26.2163   67.5001  H     
48   H         2.9041   27.2758   66.2362  H     
49   H         1.8106   28.5588   68.0191  H     
50   H         3.4659   28.6515   67.9437  H     
51   H         2.7450   27.7236   69.1366  H     
52   H        -0.1242   18.7998   72.0753  H     
53   H        -1.0190   19.4301   73.4588  H     
54   H        -2.5617   15.1291   70.5493  H     
55   H        -4.8812   16.7621   73.6969  H     
56   H        -3.3462   18.5570   73.8866  H     
57   H        -1.0342   16.9402   70.7428  H     
58   H        -4.1456   13.9166   70.2915  H     
59   H        -5.3659   12.1418   69.9315  H     
60   H        -5.7223   10.7645   71.7554  H     
61   H        -5.3379   12.1074   72.8434  H     
62   H        -7.2303   14.3356   70.2920  H     
63   H        -7.4887   12.8197   69.3936  H     
64   H        -9.9359   13.5782   70.8970  H     
65   H       -11.1238   12.5800   72.7737  H     
66   H        -9.9383   11.1523   74.3444  H     
67   H        -7.5597   10.7286   74.0512  H     
68   H         0.7097   22.8996   73.6575  H     
69   H         1.2901   21.2744   73.2698  H     
70   H         3.5598   22.3284   72.6996  H     
71   H         3.0790   22.5066   74.4099  H     
72   H         2.8881   23.8887   73.2800  H     
@<TRIPOS>BOND
     1    1    2 2
     2    1    3 am
     3    1   36 1
     4    3    4 1
     5    4    5 1
     6    4    7 1
     7    5    6 2
     8    5   12 1
     9    7    8 1
    10    8    9 1
    11    9   10 1
    12   10   11 1
    13   12   13 1
    14   12   14 2
    15   13   16 2
    16   14   15 1
    17   15   16 1
    18   16   17 1
    19   17   18 1
    20   18   22 1
    21   18   23 2
    22   19   20 2
    23   19   23 1
    24   20   21 1
    25   20   24 1
    26   21   22 2
    27   24   25 2
    28   24   26 am
    29   26   27 1
    30   27   28 1
    31   27   29 1
    32   28   30 1
    33   29   35 1
    34   30   34 1
    35   30   35 2
    36   31   32 2
    37   31   35 1
    38   32   33 1
    39   33   34 2
    40   36   37 1
    41   37   38 1
    42    3   39 1
    43    4   40 1
    44    7   41 1
    45    7   42 1
    46    8   43 1
    47    8   44 1
    48    9   45 1
    49    9   46 1
    50   10   47 1
    51   10   48 1
    52   11   49 1
    53   11   50 1
    54   11   51 1
    55   17   52 1
    56   17   53 1
    57   19   54 1
    58   21   55 1
    59   22   56 1
    60   23   57 1
    61   26   58 1
    62   27   59 1
    63   28   60 1
    64   28   61 1
    65   29   62 1
    66   29   63 1
    67   31   64 1
    68   32   65 1
    69   33   66 1
    70   34   67 1
    71   37   68 1
    72   37   69 1
    73   38   70 1
    74   38   71 1
    75   38   72 1
@<TRIPOS>PROPERTY_DATA
  Total_Score	| 6.6898
  Crash		| -3.0194
  Polar		| 6.4149
  FragIndex	| 1
  FragRMSD	| 0.730

