@<TRIPOS>MOLECULE
BindingDB_14316
 86 91 0 0 0
SMALL
NO_CHARGES


@<TRIPOS>ATOM
1    C         0.7222   21.7390   70.7182  C     
2    O         0.3840   22.5515   71.5730  O     
3    N         0.5345   22.0340   69.4304  N     
4    C        -0.1179   23.2215   68.9167  C     
5    C        -1.5796   23.2725   69.0624  C     
6    O        -2.1307   24.1870   68.4554  O     
7    C         0.2994   23.4532   67.4165  C     
8    C         1.5309   24.3741   67.1744  C     
9    C        -2.4292   22.4807   69.8226  C     
10   N        -3.7594   22.4604   69.6698  N     
11   N        -2.1356   21.6815   70.8645  N     
12   O        -3.2326   21.1912   71.3722  O     
13   C        -4.2565   21.6789   70.6414  C     
14   C        -5.6848   21.3978   70.8767  C     
15   C        -6.1295   19.9839   70.7030  C     
16   C        -7.6727   18.1890   71.3607  C     
17   C        -7.0319   17.2746   70.4885  C     
18   C        -5.9511   17.7414   69.7023  C     
19   C        -5.5214   19.0790   69.7947  C     
20   C        -7.2268   19.5216   71.4630  C     
21   C        -7.4407   15.9496   70.4130  C     
22   O        -6.5897   15.0772   70.2603  O     
23   N        -8.7370   15.6418   70.4201  N     
24   C        -9.3842   14.3554   70.4050  C     
25   C       -10.7496   14.4245   69.6421  C     
26   C        -8.6131   13.1565   69.7748  C     
27   C       -10.7580   13.2498   68.7760  C     
28   C        -9.3361   11.3981   68.0589  C     
29   C       -10.3489   10.9675   67.1730  C     
30   C       -11.5616   11.6806   67.0901  C     
31   C       -11.7685   12.8319   67.8798  C     
32   C        -9.5646   12.5316   68.8604  C     
33   C         1.2902   25.9064   67.4200  C     
34   C         1.7228   26.4265   68.8184  C     
35   C         2.0531   26.8442   66.4487  C     
36   C         2.6313   27.6448   68.5656  C     
37   N         3.1453   27.4480   67.2138  N     
38   C         1.1215   20.4117   71.1994  C     
39   C         0.5519   19.2183   70.3754  C     
40   C         1.7631   18.6693   69.6231  C     
41   C         2.9322   18.9982   70.5599  C     
42   N         2.5430   20.1872   71.2749  N     
43   C         3.4034   20.8610   72.0628  C     
44   C         3.0540   21.9992   72.9065  C     
45   O         4.5791   20.5187   72.1087  O     
46   H         0.7942   21.3572   68.7796  H     
47   H         0.2567   24.0614   69.4987  H     
48   H         0.5001   22.4886   66.9519  H     
49   H        -0.5224   23.8800   66.8288  H     
50   H         2.3647   24.0256   67.7794  H     
51   H         1.8191   24.2203   66.1303  H     
52   H        -5.8784   21.6997   71.9081  H     
53   H        -6.3021   22.0279   70.2266  H     
54   H        -8.4502   17.8898   71.9498  H     
55   H        -5.4712   17.1205   69.0442  H     
56   H        -4.7544   19.3824   69.1864  H     
57   H        -7.7018   20.1427   72.1246  H     
58   H        -9.3450   16.4036   70.4847  H     
59   H        -9.5941   14.1028   71.4579  H     
60   H       -11.5901   14.3956   70.3388  H     
61   H       -10.8250   15.3145   69.0118  H     
62   H        -7.7444   13.4831   69.2040  H     
63   H        -8.2994   12.4432   70.5472  H     
64   H        -8.4494   10.9009   68.1106  H     
65   H       -10.1970   10.1412   66.5877  H     
66   H       -12.2867   11.3744   66.4358  H     
67   H       -12.6333   13.3598   67.7875  H     
68   H         0.2244   26.1112   67.2892  H     
69   H         0.8578   26.7211   69.4257  H     
70   H         2.2963   25.6815   69.3776  H     
71   H         2.4555   26.3430   65.5649  H     
72   H         1.4000   27.6537   66.1140  H     
73   H         2.0588   28.5829   68.6122  H     
74   H         3.4626   27.6972   69.2745  H     
75   H         3.9451   26.8040   67.2498  H     
76   H         3.4188   28.3400   66.8023  H     
77   H         0.7297   20.2850   72.2164  H     
78   H         0.1618   18.4492   71.0406  H     
79   H        -0.2390   19.5004   69.6748  H     
80   H         1.6767   17.5965   69.4330  H     
81   H         1.8836   19.1954   68.6770  H     
82   H         3.0990   18.1760   71.2748  H     
83   H         3.8434   19.1362   69.9804  H     
84   H         2.7321   22.8356   72.2863  H     
85   H         3.9002   22.3456   73.5068  H     
86   H         2.2479   21.7211   73.5885  H     
@<TRIPOS>BOND
     1    1    2 2
     2    1    3 am
     3   38    1 1
     4    3    4 1
     5    4    5 1
     6    4    7 1
     7    5    6 2
     8    5    9 1
     9    7    8 1
    10    8   33 1
    11    9   10 1
    12    9   11 2
    13   10   13 2
    14   11   12 1
    15   12   13 1
    16   13   14 1
    17   14   15 1
    18   15   19 1
    19   15   20 2
    20   16   17 2
    21   16   20 1
    22   17   18 1
    23   17   21 1
    24   18   19 2
    25   21   22 2
    26   21   23 am
    27   23   24 1
    28   24   25 1
    29   24   26 1
    30   25   27 1
    31   26   32 1
    32   27   31 1
    33   27   32 2
    34   28   29 2
    35   28   32 1
    36   29   30 1
    37   30   31 2
    38   33   34 1
    39   33   35 1
    40   34   36 1
    41   35   37 1
    42   36   37 1
    43   38   39 1
    44   38   42 1
    45   39   40 1
    46   40   41 1
    47   41   42 1
    48   42   43 am
    49   43   44 1
    50   43   45 2
    51    3   46 1
    52    4   47 1
    53    7   48 1
    54    7   49 1
    55    8   50 1
    56    8   51 1
    57   14   52 1
    58   14   53 1
    59   16   54 1
    60   18   55 1
    61   19   56 1
    62   20   57 1
    63   23   58 1
    64   24   59 1
    65   25   60 1
    66   25   61 1
    67   26   62 1
    68   26   63 1
    69   28   64 1
    70   29   65 1
    71   30   66 1
    72   31   67 1
    73   33   68 1
    74   34   69 1
    75   34   70 1
    76   35   71 1
    77   35   72 1
    78   36   73 1
    79   36   74 1
    80   37   75 1
    81   37   76 1
    82   38   77 1
    83   39   78 1
    84   39   79 1
    85   40   80 1
    86   40   81 1
    87   41   82 1
    88   41   83 1
    89   44   84 1
    90   44   85 1
    91   44   86 1
@<TRIPOS>PROPERTY_DATA
  Total_Score	| 8.9887
  Crash		| -6.7518
  Polar		| 5.1820
  FragIndex	| 1
  FragRMSD	| 0.798

