@<TRIPOS>MOLECULE
BindingDB_14315
 73 77 0 0 0
SMALL
NO_CHARGES


@<TRIPOS>ATOM
1    C         1.8072   22.4781   70.6482  C     
2    O         1.7302   23.5053   71.5292  O     
3    N         1.1360   22.4619   69.4735  N     
4    C         0.1440   23.4057   69.0440  C     
5    C        -1.2155   23.0354   69.4813  C     
6    O        -2.0994   23.8216   69.1521  O     
7    C         0.2256   23.6107   67.4889  C     
8    C         1.3803   24.4648   66.8560  C     
9    C        -1.5803   21.9664   70.2901  C     
10   N        -0.7936   20.9639   70.7130  N     
11   N        -2.8098   21.7996   70.8154  N     
12   O        -2.7984   20.7349   71.5622  O     
13   C        -1.5595   20.1953   71.5088  C     
14   C        -1.1162   18.9876   72.2305  C     
15   C        -2.1050   17.8854   72.1245  C     
16   C        -2.8034   15.6952   71.2796  C     
17   C        -4.0538   15.7861   71.9502  C     
18   C        -4.2875   16.9509   72.7228  C     
19   C        -3.3369   17.9780   72.8067  C     
20   C        -1.8473   16.7232   71.3687  C     
21   C        -5.0259   14.7756   71.8791  C     
22   O        -5.8257   14.6404   72.8049  O     
23   N        -5.0952   13.9288   70.8571  N     
24   C        -5.9894   12.8110   70.7032  C     
25   C        -6.0638   11.8928   71.9633  C     
26   C        -7.4555   13.1957   70.3374  C     
27   C        -7.4949   11.7732   72.2383  C     
28   C        -9.6749   12.5426   71.4818  C     
29   C       -10.2856   11.8034   72.5166  C     
30   C        -9.4976   11.0446   73.4070  C     
31   C        -8.0962   11.0283   73.2721  C     
32   C        -8.2721   12.5133   71.3454  C     
33   C         2.1342   25.5290   67.7116  C     
34   C         3.2222   26.2727   66.8925  C     
35   C         1.3045   26.7314   68.2192  C     
36   C         3.4625   27.5914   67.6459  C     
37   N         2.2528   27.8372   68.4446  N     
38   O         2.5373   21.3739   70.9459  O     
39   C         3.2785   21.1420   72.1459  C     
40   H         1.2276   21.6548   68.9426  H     
41   H         0.3815   24.3701   69.5056  H     
42   H         0.2520   22.6236   67.0241  H     
43   H        -0.7003   24.0561   67.1203  H     
44   H         2.1254   23.7575   66.4740  H     
45   H         0.9955   24.9761   65.9672  H     
46   H        -0.1419   18.6820   71.8392  H     
47   H        -0.9769   19.2359   73.2863  H     
48   H        -2.5638   14.8743   70.7207  H     
49   H        -5.1631   17.0742   73.2389  H     
50   H        -3.5533   18.8002   73.3693  H     
51   H        -0.9626   16.6158   70.8672  H     
52   H        -4.4663   14.0672   70.1284  H     
53   H        -5.5780   12.2201   69.8784  H     
54   H        -5.6390   10.9050   71.7685  H     
55   H        -5.5589   12.3287   72.8305  H     
56   H        -7.6276   14.2722   70.3812  H     
57   H        -7.7139   12.8333   69.3394  H     
58   H       -10.2474   13.1004   70.8431  H     
59   H       -11.3008   11.8169   72.6230  H     
60   H        -9.9418   10.5097   74.1540  H     
61   H        -7.5201   10.4829   73.9181  H     
62   H         2.5915   25.0363   68.5716  H     
63   H         4.1388   25.6838   66.8183  H     
64   H         2.8659   26.5024   65.8806  H     
65   H         0.5725   27.0421   67.4694  H     
66   H         0.7808   26.5199   69.1525  H     
67   H         4.3268   27.5061   68.3129  H     
68   H         3.6396   28.4118   66.9448  H     
69   H         1.8124   28.7198   68.1712  H     
70   H         2.5087   27.8712   69.4363  H     
71   H         4.0355   21.9152   72.2718  H     
72   H         3.7755   20.1734   72.0777  H     
73   H         2.6165   21.1375   73.0142  H     
@<TRIPOS>BOND
     1    1    2 2
     2    1    3 am
     3    1   38 1
     4    3    4 1
     5    4    5 1
     6    4    7 1
     7    5    6 2
     8    5    9 1
     9    7    8 1
    10    8   33 1
    11    9   10 1
    12    9   11 2
    13   10   13 2
    14   11   12 1
    15   12   13 1
    16   13   14 1
    17   14   15 1
    18   15   19 1
    19   15   20 2
    20   16   17 2
    21   16   20 1
    22   17   18 1
    23   17   21 1
    24   18   19 2
    25   21   22 2
    26   21   23 am
    27   23   24 1
    28   24   25 1
    29   24   26 1
    30   25   27 1
    31   26   32 1
    32   27   31 1
    33   27   32 2
    34   28   29 2
    35   28   32 1
    36   29   30 1
    37   30   31 2
    38   33   34 1
    39   33   35 1
    40   34   36 1
    41   35   37 1
    42   36   37 1
    43   38   39 1
    44    3   40 1
    45    4   41 1
    46    7   42 1
    47    7   43 1
    48    8   44 1
    49    8   45 1
    50   14   46 1
    51   14   47 1
    52   16   48 1
    53   18   49 1
    54   19   50 1
    55   20   51 1
    56   23   52 1
    57   24   53 1
    58   25   54 1
    59   25   55 1
    60   26   56 1
    61   26   57 1
    62   28   58 1
    63   29   59 1
    64   30   60 1
    65   31   61 1
    66   33   62 1
    67   34   63 1
    68   34   64 1
    69   35   65 1
    70   35   66 1
    71   36   67 1
    72   36   68 1
    73   37   69 1
    74   37   70 1
    75   39   71 1
    76   39   72 1
    77   39   73 1
@<TRIPOS>PROPERTY_DATA
  Total_Score	| 6.3717
  Crash		| -3.3549
  Polar		| 4.2070
  FragIndex	| 1
  FragRMSD	| 1.006

