@<TRIPOS>MOLECULE
BindingDB_14314
 77 81 0 0 0
SMALL
NO_CHARGES


@<TRIPOS>ATOM
1    C         1.4729   22.2056   70.3334  C     
2    O         2.2666   21.1202   70.4467  O     
3    N         0.7449   22.3452   69.2053  N     
4    C        -0.1492   23.4308   68.8867  C     
5    C        -1.5499   23.1252   69.1819  C     
6    O        -2.4104   23.7692   68.5749  O     
7    C         0.1120   23.8188   67.3818  C     
8    C         1.5143   24.3969   67.0206  C     
9    C        -2.0248   22.1833   70.0887  C     
10   N        -1.3043   21.3653   70.8498  N     
11   N        -3.3311   21.8983   70.2884  N     
12   O        -3.4291   20.9367   71.1529  O     
13   C        -2.1786   20.5669   71.5007  C     
14   C        -1.8143   19.4721   72.4094  C     
15   C        -2.6930   18.2889   72.2261  C     
16   C        -3.1521   16.0630   71.2913  C     
17   C        -4.4296   16.0339   71.8974  C     
18   C        -4.8387   17.1762   72.6457  C     
19   C        -3.9798   18.2799   72.7967  C     
20   C        -2.2845   17.1579   71.4725  C     
21   C        -5.2890   14.9311   71.7689  C     
22   O        -6.1512   14.7441   72.6421  O     
23   N        -5.1391   14.0248   70.8134  N     
24   C        -5.9170   12.8339   70.6282  C     
25   C        -5.9914   11.9258   71.8937  C     
26   C        -7.3800   13.1318   70.1813  C     
27   C        -7.4264   11.8298   72.1756  C     
28   C        -9.6070   12.4596   71.2562  C     
29   C       -10.2400   11.8181   72.3366  C     
30   C        -9.4705   11.1872   73.3476  C     
31   C        -8.0659   11.1764   73.2524  C     
32   C        -8.1962   12.4812   71.2042  C     
33   C         1.7498   25.9199   67.2756  C     
34   C         1.9220   26.3150   68.7542  C     
35   C         3.0425   26.4863   66.6314  C     
36   C         2.6721   27.6496   68.6846  C     
37   N         3.5518   27.5457   67.5202  N     
38   O         1.2545   22.9979   71.4285  O     
39   C         1.8675   22.8852   72.7155  C     
40   C         1.0471   22.0754   73.5986  C     
41   C        -0.1437   22.4734   74.0573  C     
42   H         0.8710   21.6542   68.5309  H     
43   H         0.0951   24.2977   69.5021  H     
44   H        -0.0436   22.9073   66.7808  H     
45   H        -0.6210   24.5574   67.0440  H     
46   H         2.2781   23.8358   67.5515  H     
47   H         1.6833   24.2180   65.9507  H     
48   H        -0.7628   19.2008   72.2434  H     
49   H        -1.8715   19.8193   73.4491  H     
50   H        -2.8110   15.2745   70.7446  H     
51   H        -5.7628   17.2165   73.0871  H     
52   H        -4.3167   19.0845   73.3311  H     
53   H        -1.3818   17.1602   70.9996  H     
54   H        -4.4572   14.1933   70.1414  H     
55   H        -5.4247   12.2774   69.8231  H     
56   H        -5.5859   10.9323   71.7042  H     
57   H        -5.4817   12.3905   72.7523  H     
58   H        -7.6088   14.2006   70.1661  H     
59   H        -7.5934   12.7043   69.2020  H     
60   H       -10.1608   12.8940   70.5081  H     
61   H       -11.2675   11.8085   72.3920  H     
62   H        -9.9439   10.7347   74.1363  H     
63   H        -7.5096   10.7039   73.9680  H     
64   H         0.8987   26.4727   66.8619  H     
65   H         0.9642   26.4400   69.2619  H     
66   H         2.5328   25.5781   69.2895  H     
67   H         3.8161   25.7201   66.5455  H     
68   H         2.8441   26.9032   65.6409  H     
69   H         1.9748   28.4822   68.5463  H     
70   H         3.2721   27.8250   69.5783  H     
71   H         4.4884   27.3005   67.8438  H     
72   H         3.5820   28.4443   67.0402  H     
73   H         2.8648   22.4424   72.6271  H     
74   H         1.9955   23.8884   73.1283  H     
75   H         1.3842   21.1776   73.8692  H     
76   H        -0.6758   21.8767   74.6468  H     
77   H        -0.5070   23.3713   73.8399  H     
@<TRIPOS>BOND
     1    1    2 2
     2    1    3 am
     3    1   38 1
     4    3    4 1
     5    4    5 1
     6    4    7 1
     7    5    6 2
     8    5    9 1
     9    7    8 1
    10    8   33 1
    11    9   10 1
    12    9   11 2
    13   10   13 2
    14   11   12 1
    15   12   13 1
    16   13   14 1
    17   14   15 1
    18   15   19 1
    19   15   20 2
    20   16   17 2
    21   16   20 1
    22   17   18 1
    23   17   21 1
    24   18   19 2
    25   21   22 2
    26   21   23 am
    27   23   24 1
    28   24   25 1
    29   24   26 1
    30   25   27 1
    31   26   32 1
    32   27   31 1
    33   27   32 2
    34   28   29 2
    35   28   32 1
    36   29   30 1
    37   30   31 2
    38   33   34 1
    39   33   35 1
    40   34   36 1
    41   35   37 1
    42   36   37 1
    43   38   39 1
    44   39   40 1
    45   40   41 2
    46    3   42 1
    47    4   43 1
    48    7   44 1
    49    7   45 1
    50    8   46 1
    51    8   47 1
    52   14   48 1
    53   14   49 1
    54   16   50 1
    55   18   51 1
    56   19   52 1
    57   20   53 1
    58   23   54 1
    59   24   55 1
    60   25   56 1
    61   25   57 1
    62   26   58 1
    63   26   59 1
    64   28   60 1
    65   29   61 1
    66   30   62 1
    67   31   63 1
    68   33   64 1
    69   34   65 1
    70   34   66 1
    71   35   67 1
    72   35   68 1
    73   36   69 1
    74   36   70 1
    75   37   71 1
    76   37   72 1
    77   39   73 1
    78   39   74 1
    79   40   75 1
    80   41   76 1
    81   41   77 1
@<TRIPOS>PROPERTY_DATA
  Total_Score	| 6.1027
  Crash		| -4.4812
  Polar		| 5.1059
  FragIndex	| 1
  FragRMSD	| 0.812

