@<TRIPOS>MOLECULE
BindingDB_14317
 79 84 0 0 0
SMALL
NO_CHARGES


@<TRIPOS>ATOM
1    C         0.9686   21.9058   70.2823  C     
2    O         0.6240   22.5815   71.2538  O     
3    N         0.4289   22.2156   69.1070  N     
4    C        -0.4501   23.3215   68.8188  C     
5    C        -1.8436   23.0156   69.1892  C     
6    O        -2.7509   23.5357   68.5458  O     
7    C        -0.1821   23.7378   67.3184  C     
8    C         0.4395   25.1440   67.1065  C     
9    C        -2.2434   22.1835   70.2356  C     
10   N        -1.4663   21.4596   71.0666  N     
11   N        -3.5311   21.8799   70.5014  N     
12   O        -3.5703   20.9825   71.4446  O     
13   C        -2.2847   20.6915   71.7773  C     
14   C        -1.8596   19.6141   72.6904  C     
15   C        -2.7025   18.3992   72.4974  C     
16   C        -4.6848   17.0897   73.0850  C     
17   C        -4.4439   16.1490   72.0443  C     
18   C        -3.2902   16.3718   71.2465  C     
19   C        -2.4390   17.4783   71.4634  C     
20   C        -3.8359   18.1898   73.3086  C     
21   C        -5.3150   15.0712   71.8292  C     
22   O        -6.3359   15.0101   72.5040  O     
23   N        -5.1126   14.1200   70.9176  N     
24   C        -5.9406   12.9585   70.6695  C     
25   C        -6.2383   12.1320   71.9539  C     
26   C        -7.3141   13.2620   69.9986  C     
27   C        -7.6977   12.1146   72.0314  C     
28   C        -9.7038   12.7541   70.8044  C     
29   C       -10.5007   12.1650   71.8093  C     
30   C        -9.8892   11.5629   72.9320  C     
31   C        -8.4852   11.5358   73.0425  C     
32   C        -8.2981   12.7326   70.9336  C     
33   C         1.7927   25.3549   67.8830  C     
34   C         2.9240   26.0256   67.0680  C     
35   C         1.6787   26.3129   69.0926  C     
36   C         2.7194   27.5276   67.3065  C     
37   N         2.0764   27.6495   68.6222  N     
38   C         1.6956   20.7413   70.5060  C     
39   C         3.0850   18.3342   71.0799  C     
40   C         3.3692   19.4977   71.8086  C     
41   C         2.6819   20.6882   71.5253  C     
42   C         1.4366   19.5538   69.7684  C     
43   C         2.1092   18.3572   70.0696  C     
44   F         1.8301   17.2819   69.3877  F     
45   F         3.7346   17.2410   71.3618  F     
46   H         0.6737   21.6589   68.3508  H     
47   H        -0.1748   24.1599   69.4578  H     
48   H         0.5007   23.0295   66.8308  H     
49   H        -1.1064   23.6827   66.7366  H     
50   H         0.6214   25.2457   66.0338  H     
51   H        -0.2981   25.9068   67.3703  H     
52   H        -0.8115   19.3646   72.5023  H     
53   H        -1.9271   19.9691   73.7215  H     
54   H        -5.5019   17.0000   73.7009  H     
55   H        -3.0593   15.7401   70.4741  H     
56   H        -1.6399   17.6157   70.8389  H     
57   H        -4.0739   18.8593   74.0507  H     
58   H        -4.3126   14.1925   70.3709  H     
59   H        -5.3674   12.3255   69.9896  H     
60   H        -5.8612   11.1088   71.8643  H     
61   H        -5.8194   12.5839   72.8552  H     
62   H        -7.4758   14.3289   69.8432  H     
63   H        -7.4139   12.7382   69.0469  H     
64   H       -10.1492   13.1787   69.9861  H     
65   H       -11.5212   12.1687   71.7254  H     
66   H       -10.4684   11.1401   73.6608  H     
67   H        -8.0412   11.0929   73.8525  H     
68   H         2.1615   24.3907   68.2470  H     
69   H         3.9048   25.7388   67.4666  H     
70   H         2.8992   25.7644   66.0039  H     
71   H         0.6704   26.3460   69.5190  H     
72   H         2.3721   26.0019   69.8849  H     
73   H         3.6673   28.0682   67.2769  H     
74   H         2.0496   27.9298   66.5432  H     
75   H         1.2539   28.2470   68.5208  H     
76   H         2.7110   28.0513   69.3141  H     
77   H         4.0898   19.5020   72.5314  H     
78   H         2.9006   21.5264   72.0738  H     
79   H         0.7183   19.5374   69.0381  H     
@<TRIPOS>BOND
     1    1    2 2
     2    1    3 am
     3    1   38 1
     4    3    4 1
     5    4    5 1
     6    4    7 1
     7    5    6 2
     8    5    9 1
     9    7    8 1
    10    8   33 1
    11    9   10 1
    12    9   11 2
    13   10   13 2
    14   11   12 1
    15   12   13 1
    16   13   14 1
    17   14   15 1
    18   15   19 1
    19   15   20 2
    20   16   17 2
    21   16   20 1
    22   17   18 1
    23   17   21 1
    24   18   19 2
    25   21   22 2
    26   21   23 am
    27   23   24 1
    28   24   25 1
    29   24   26 1
    30   25   27 1
    31   26   32 1
    32   27   31 1
    33   27   32 2
    34   28   29 2
    35   28   32 1
    36   29   30 1
    37   30   31 2
    38   33   34 1
    39   33   35 1
    40   34   36 1
    41   35   37 1
    42   36   37 1
    43   38   41 2
    44   38   42 1
    45   39   40 2
    46   39   43 1
    47   39   45 1
    48   40   41 1
    49   42   43 2
    50   43   44 1
    51    3   46 1
    52    4   47 1
    53    7   48 1
    54    7   49 1
    55    8   50 1
    56    8   51 1
    57   14   52 1
    58   14   53 1
    59   16   54 1
    60   18   55 1
    61   19   56 1
    62   20   57 1
    63   23   58 1
    64   24   59 1
    65   25   60 1
    66   25   61 1
    67   26   62 1
    68   26   63 1
    69   28   64 1
    70   29   65 1
    71   30   66 1
    72   31   67 1
    73   33   68 1
    74   34   69 1
    75   34   70 1
    76   35   71 1
    77   35   72 1
    78   36   73 1
    79   36   74 1
    80   37   75 1
    81   37   76 1
    82   40   77 1
    83   41   78 1
    84   42   79 1
@<TRIPOS>PROPERTY_DATA
  Total_Score	| 9.8486
  Crash		| -3.6043
  Polar		| 5.7780
  FragIndex	| 1
  FragRMSD	| 1.096

