@<TRIPOS>MOLECULE
BindingDB_14313
 82 87 0 0 0
SMALL
NO_CHARGES


@<TRIPOS>ATOM
1    C         1.8054   21.3267   70.3803  C     
2    O         2.1312   22.1875   71.1955  O     
3    N         1.0239   21.6866   69.3609  N     
4    C         0.2427   22.8916   69.2539  C     
5    C        -1.1378   22.6212   69.6805  C     
6    O        -2.0506   23.3426   69.2664  O     
7    C         0.3913   23.4493   67.8079  C     
8    C        -0.2267   24.8659   67.6049  C     
9    C        -1.4809   21.7080   70.6678  C     
10   N        -0.6731   20.7659   71.1717  N     
11   N        -2.6899   21.5615   71.2427  N     
12   O        -2.6415   20.5646   72.0840  O     
13   C        -1.3954   20.0534   72.0432  C     
14   C        -0.9147   18.8840   72.7841  C     
15   C        -1.8773   17.7712   72.6206  C     
16   C        -3.9333   16.6377   73.3066  C     
17   C        -3.8624   15.7322   72.2085  C     
18   C        -2.7542   15.8756   71.3329  C     
19   C        -1.7865   16.8751   71.5296  C     
20   C        -2.9627   17.6248   73.5121  C     
21   C        -4.8414   14.7351   72.0332  C     
22   O        -5.7378   14.6410   72.8687  O     
23   N        -4.8402   13.8568   71.0244  N     
24   C        -5.7594   12.7612   70.8295  C     
25   C        -5.7178   11.7112   71.9824  C     
26   C        -7.2491   13.1941   70.6600  C     
27   C        -7.1043   11.6306   72.4430  C     
28   C        -9.3395   12.4801   71.9847  C     
29   C        -9.8448   11.6965   73.0417  C     
30   C        -8.9750   10.8853   73.8021  C     
31   C        -7.5993   10.8464   73.5027  C     
32   C        -7.9603   12.4463   71.7007  C     
33   C         2.1725   19.9873   70.6058  C     
34   C         2.7502   17.2582   71.2223  C     
35   C         3.2305   18.2882   72.0488  C     
36   C         2.9434   19.6300   71.7426  C     
37   C         1.7164   18.9233   69.7739  C     
38   C         2.0112   17.5771   70.0728  C     
39   F         1.5569   16.6287   69.2952  F     
40   F         3.0216   16.0144   71.5173  F     
41   C         0.7618   26.0596   67.4769  C     
42   C         1.4530   26.4430   68.8199  C     
43   C         2.3936   27.6680   68.6319  C     
44   C         2.7258   27.1165   66.2309  C     
45   C         1.8464   25.8496   66.3730  C     
46   N         3.3521   27.4860   67.5197  N     
47   H         0.8570   21.0245   68.6701  H     
48   H         0.6166   23.6573   69.9272  H     
49   H         1.4486   23.4744   67.5491  H     
50   H        -0.0820   22.7509   67.1191  H     
51   H        -0.8423   24.8516   66.6961  H     
52   H        -0.9109   25.0928   68.4459  H     
53   H         0.0688   18.5736   72.4238  H     
54   H        -0.8025   19.1702   73.8309  H     
55   H        -4.7150   16.5914   73.9670  H     
56   H        -2.6372   15.2606   70.5231  H     
57   H        -1.0174   16.9677   70.8635  H     
58   H        -3.0733   18.2651   74.3029  H     
59   H        -4.1412   13.9487   70.3513  H     
60   H        -5.4473   12.2662   69.9072  H     
61   H        -5.3891   10.7354   71.6220  H     
62   H        -5.0693   12.0171   72.8063  H     
63   H        -7.3930   14.2680   70.8084  H     
64   H        -7.6332   12.9203   69.6748  H     
65   H        -9.9671   13.0669   71.4314  H     
66   H       -10.8412   11.7150   73.2558  H     
67   H        -9.3451   10.3256   74.5691  H     
68   H        -6.9693   10.2587   74.0493  H     
69   H         3.7646   18.0601   72.8890  H     
70   H         3.2981   20.3456   72.3835  H     
71   H         1.1432   19.1133   68.9508  H     
72   H         0.1530   26.9251   67.1700  H     
73   H         0.6932   26.6869   69.5717  H     
74   H         2.0374   25.5943   69.1879  H     
75   H         1.7954   28.5660   68.4420  H     
76   H         2.9629   27.8294   69.5496  H     
77   H         3.5056   26.9236   65.4917  H     
78   H         2.1200   27.9541   65.8692  H     
79   H         2.4897   25.0008   66.6262  H     
80   H         1.3655   25.6407   65.4183  H     
81   H         3.8652   28.3616   67.3891  H     
82   H         3.9983   26.7413   67.7848  H     
@<TRIPOS>BOND
     1    1    2 2
     2    1    3 am
     3    1   33 1
     4    3    4 1
     5    4    5 1
     6    4    7 1
     7    5    6 2
     8    5    9 1
     9    7    8 1
    10    8   41 1
    11    9   10 1
    12    9   11 2
    13   10   13 2
    14   11   12 1
    15   12   13 1
    16   13   14 1
    17   14   15 1
    18   15   19 1
    19   15   20 2
    20   16   17 2
    21   16   20 1
    22   17   18 1
    23   17   21 1
    24   18   19 2
    25   21   22 2
    26   21   23 am
    27   23   24 1
    28   24   25 1
    29   24   26 1
    30   25   27 1
    31   26   32 1
    32   27   31 1
    33   27   32 2
    34   28   29 2
    35   28   32 1
    36   29   30 1
    37   30   31 2
    38   33   36 2
    39   33   37 1
    40   34   35 2
    41   34   38 1
    42   34   40 1
    43   35   36 1
    44   37   38 2
    45   38   39 1
    46   41   42 1
    47   41   45 1
    48   42   43 1
    49   43   46 1
    50   44   45 1
    51   44   46 1
    52    3   47 1
    53    4   48 1
    54    7   49 1
    55    7   50 1
    56    8   51 1
    57    8   52 1
    58   14   53 1
    59   14   54 1
    60   16   55 1
    61   18   56 1
    62   19   57 1
    63   20   58 1
    64   23   59 1
    65   24   60 1
    66   25   61 1
    67   25   62 1
    68   26   63 1
    69   26   64 1
    70   28   65 1
    71   29   66 1
    72   30   67 1
    73   31   68 1
    74   35   69 1
    75   36   70 1
    76   37   71 1
    77   41   72 1
    78   42   73 1
    79   42   74 1
    80   43   75 1
    81   43   76 1
    82   44   77 1
    83   44   78 1
    84   45   79 1
    85   45   80 1
    86   46   81 1
    87   46   82 1
@<TRIPOS>PROPERTY_DATA
  Total_Score	| 5.5763
  Crash		| -4.5687
  Polar		| 3.3725
  FragIndex	| 1
  FragRMSD	| 0.740

