@<TRIPOS>MOLECULE
BindingDB_26519
 43 44 0 0 0
SMALL
NO_CHARGES


@<TRIPOS>ATOM
1    C        15.4312   -8.8837   -1.2768  C     
2    C        16.2743  -10.6486   -2.6151  C     
3    C        14.5266   -9.3011   -3.5082  C     
4    C        14.5322   -8.5215   -2.3140  C     
5    N        16.2736   -9.9295   -1.4689  N     
6    N        15.3900  -10.3380   -3.5837  N     
7    N        17.1462  -11.6375   -2.8267  N     
8    N        15.5375   -8.2445   -0.0934  N     
9    C        13.7823   -7.4619   -2.1999  C     
10   C        13.0535   -6.5153   -2.1587  C     
11   C        11.4044   -5.2501   -3.4519  C     
12   C        11.8138   -4.2209   -4.3590  C     
13   C        10.2052   -5.9349   -3.7447  C     
14   C         9.4237   -5.6602   -4.8890  C     
15   C         9.8410   -4.6006   -5.7417  C     
16   C        11.0295   -3.9255   -5.4998  C     
17   C        12.1980   -5.4510   -2.1941  C     
18   C        13.6013   -9.1038   -4.6740  C     
19   O         8.3330   -6.4665   -5.0956  O     
20   C         7.0323   -5.8938   -5.2831  C     
21   O        12.8892   -3.4343   -4.0819  O     
22   C        14.0374   -3.6861   -4.9130  C     
23   C        14.2443   -8.2852   -5.8155  C     
24   H        17.1798  -12.0735   -3.6988  H     
25   H        17.7698  -11.9035   -2.1343  H     
26   H        16.1990   -8.5549    0.5486  H     
27   H        14.9301   -7.5138    0.1452  H     
28   H         9.8668   -6.6662   -3.1113  H     
29   H         9.3112   -4.3467   -6.5740  H     
30   H        11.2951   -3.1663   -6.1340  H     
31   H        11.5054   -5.5226   -1.3566  H     
32   H        12.8419   -4.5832   -2.0388  H     
33   H        13.3160  -10.0815   -5.0766  H     
34   H        12.6879   -8.6199   -4.3300  H     
35   H         6.7989   -5.2141   -4.4652  H     
36   H         6.2877   -6.6881   -5.2990  H     
37   H         6.9877   -5.3686   -6.2399  H     
38   H        14.3976   -4.7159   -4.8037  H     
39   H        14.8314   -3.0086   -4.6017  H     
40   H        13.8117   -3.4933   -5.9677  H     
41   H        14.4164   -7.2481   -5.5218  H     
42   H        13.5708   -8.2828   -6.6756  H     
43   H        15.2029   -8.7337   -6.1100  H     
@<TRIPOS>BOND
     1    1    4 1
     2    1    5 2
     3    1    8 1
     4    2    5 1
     5    2    6 2
     6    2    7 1
     7    3    4 2
     8    3    6 1
     9    3   18 1
    10    4    9 1
    11    9   10 3
    12   10   17 1
    13   11   12 2
    14   11   13 1
    15   11   17 1
    16   12   16 1
    17   12   21 1
    18   13   14 2
    19   14   15 1
    20   14   19 1
    21   15   16 2
    22   18   23 1
    23   19   20 1
    24   21   22 1
    25    7   24 1
    26    7   25 1
    27    8   26 1
    28    8   27 1
    29   13   28 1
    30   15   29 1
    31   16   30 1
    32   17   31 1
    33   17   32 1
    34   18   33 1
    35   18   34 1
    36   20   35 1
    37   20   36 1
    38   20   37 1
    39   22   38 1
    40   22   39 1
    41   22   40 1
    42   23   41 1
    43   23   42 1
    44   23   43 1
@<TRIPOS>PROPERTY_DATA
  Total_Score	| 8.3188
  Crash		| -1.1455
  Polar		| 2.6015
  FragIndex	| 1
  FragRMSD	| 0.740

