@<TRIPOS>MOLECULE
BindingDB_18490
 44 45 0 0 0
SMALL
NO_CHARGES


@<TRIPOS>ATOM
1    C        15.3630   -8.8931   -1.3488  C     
2    C        16.2525  -10.6923   -2.6129  C     
3    C        14.5251   -9.3601   -3.5786  C     
4    C        14.4787   -8.5575   -2.4076  C     
5    N        16.2108   -9.9460   -1.4835  N     
6    N        15.4066  -10.3918   -3.6263  N     
7    N        15.4413   -8.2149   -0.1881  N     
8    N        17.1292  -11.7011   -2.7459  N     
9    C        13.6306   -7.5622   -2.3034  C     
10   C        12.8380   -6.6714   -2.2247  C     
11   C        11.9248   -5.6574   -2.1150  C     
12   C        11.2114   -5.3791   -3.3930  C     
13   C         9.9318   -5.9298   -3.6403  C     
14   C        11.7532   -4.4898   -4.3548  C     
15   C        11.0300   -4.1327   -5.5161  C     
16   C         9.7334   -4.6690   -5.7279  C     
17   C         9.1962   -5.5817   -4.7914  C     
18   O         7.9134   -6.0450   -4.9408  O     
19   C         7.8294   -7.4712   -5.1055  C     
20   O         8.8853   -4.2430   -6.7268  O     
21   C         9.3257   -4.2876   -8.0970  C     
22   O        11.5395   -3.2122   -6.4039  O     
23   C        12.7676   -3.6325   -7.0338  C     
24   C        13.6886   -9.1269   -4.7789  C     
25   H        16.0583   -8.5156    0.4974  H     
26   H        14.9154   -7.4151   -0.0314  H     
27   H        17.1575  -12.2087   -3.5759  H     
28   H        17.7342  -11.9187   -2.0186  H     
29   H        11.2133   -5.9363   -1.3351  H     
30   H        12.4366   -4.7570   -1.7739  H     
31   H         9.5162   -6.5819   -2.9674  H     
32   H        12.6651   -4.0535   -4.1901  H     
33   H         8.3598   -7.8079   -6.0013  H     
34   H         6.7761   -7.7318   -5.2073  H     
35   H         8.2194   -7.9916   -4.2273  H     
36   H         9.8442   -3.3645   -8.3548  H     
37   H         8.4553   -4.3769   -8.7505  H     
38   H         9.9774   -5.1360   -8.2891  H     
39   H        13.5816   -3.5849   -6.3003  H     
40   H        12.9889   -2.9408   -7.8590  H     
41   H        12.7168   -4.6611   -7.4221  H     
42   H        12.6318   -9.1713   -4.5088  H     
43   H        13.8860   -9.8795   -5.5503  H     
44   H        13.9106   -8.1365   -5.1871  H     
@<TRIPOS>BOND
     1    1    4 2
     2    1    5 1
     3    1    7 1
     4    2    5 2
     5    2    6 1
     6    2    8 1
     7    3    4 1
     8    3    6 2
     9    3   24 1
    10    4    9 1
    11    9   10 3
    12   10   11 1
    13   11   12 1
    14   12   13 1
    15   12   14 2
    16   13   17 2
    17   14   15 1
    18   15   16 2
    19   15   22 1
    20   16   17 1
    21   16   20 1
    22   17   18 1
    23   18   19 1
    24   20   21 1
    25   22   23 1
    26    7   25 1
    27    7   26 1
    28    8   27 1
    29    8   28 1
    30   11   29 1
    31   11   30 1
    32   13   31 1
    33   14   32 1
    34   19   33 1
    35   19   34 1
    36   19   35 1
    37   21   36 1
    38   21   37 1
    39   21   38 1
    40   23   39 1
    41   23   40 1
    42   23   41 1
    43   24   42 1
    44   24   43 1
    45   24   44 1
@<TRIPOS>PROPERTY_DATA
  Total_Score	| 7.6024
  Crash		| -1.6765
  Polar		| 2.6040
  FragIndex	| 1
  FragRMSD	| 0.539

