@<TRIPOS>MOLECULE
BindingDB_25818
 49 51 0 0 0
SMALL
NO_CHARGES


@<TRIPOS>ATOM
1    C        15.3376   -8.8613   -1.3879  C     
2    C        16.1485  -10.6660   -2.6887  C     
3    C        14.4331   -9.2866   -3.5969  C     
4    C        14.4249   -8.5025   -2.4131  C     
5    C        13.5612   -9.0265   -4.7717  C     
6    N        15.4699   -8.2033   -0.2221  N     
7    N        16.9766  -11.7105   -2.8373  N     
8    N        16.1627   -9.9244   -1.5556  N     
9    N        15.2908  -10.3370   -3.6802  N     
10   C        13.5834   -7.5084   -2.2759  C     
11   C        12.7828   -6.6247   -2.1878  C     
12   C        11.8437   -5.6240   -2.1070  C     
13   C        12.4007   -4.4104   -1.3070  C     
14   C        11.3189   -5.2863   -3.4754  C     
15   C        11.9689   -4.3477   -4.3187  C     
16   C        10.1623   -5.9351   -3.9804  C     
17   C         9.6491   -5.6411   -5.2644  C     
18   C        10.3102   -4.6868   -6.0598  C     
19   C        11.4682   -4.0229   -5.5999  C     
20   O         8.6050   -6.3162   -5.8465  O     
21   C         7.4337   -6.5605   -5.0545  C     
22   C        12.1417   -3.0735   -6.4222  C     
23   C        13.2897   -2.5077   -8.5181  C     
24   C        12.6275   -3.4420   -7.7023  C     
25   C        12.3481   -1.7443   -5.9811  C     
26   C        13.0115   -0.8115   -6.7996  C     
27   C        13.4783   -1.1891   -8.0709  C     
28   H        12.5133   -9.0479   -4.4693  H     
29   H        13.7061   -9.7733   -5.5561  H     
30   H        13.7894   -8.0416   -5.1843  H     
31   H        16.1229   -8.5095    0.4251  H     
32   H        14.9501   -7.4077   -0.0327  H     
33   H        16.9637  -12.2271   -3.6622  H     
34   H        17.5970  -11.9482   -2.1289  H     
35   H        11.0202   -6.0334   -1.5125  H     
36   H        12.5774   -4.6774   -0.2618  H     
37   H        11.6845   -3.5875   -1.3330  H     
38   H        13.3464   -4.0558   -1.7221  H     
39   H        12.8278   -3.8993   -3.9955  H     
40   H         9.6956   -6.6530   -3.4170  H     
41   H         9.9502   -4.4916   -6.9963  H     
42   H         7.6525   -7.2898   -4.2738  H     
43   H         6.6520   -6.9730   -5.7030  H     
44   H         7.0498   -5.6389   -4.6125  H     
45   H        13.6364   -2.7868   -9.4392  H     
46   H        12.5175   -4.4025   -8.0380  H     
47   H        12.0043   -1.4409   -5.0671  H     
48   H        13.1507    0.1449   -6.4737  H     
49   H        13.9480   -0.5033   -8.6685  H     
@<TRIPOS>BOND
     1    1    4 1
     2    1    6 1
     3    1    8 2
     4    2    7 1
     5    2    8 1
     6    2    9 2
     7    3    4 2
     8    3    5 1
     9    3    9 1
    10    4   10 1
    11   10   11 3
    12   11   12 1
    13   12   13 1
    14   12   14 1
    15   14   15 2
    16   14   16 1
    17   15   19 1
    18   16   17 2
    19   17   18 1
    20   17   20 1
    21   18   19 2
    22   19   22 1
    23   20   21 1
    24   22   24 2
    25   22   25 1
    26   23   24 1
    27   23   27 2
    28   25   26 2
    29   26   27 1
    30    5   28 1
    31    5   29 1
    32    5   30 1
    33    6   31 1
    34    6   32 1
    35    7   33 1
    36    7   34 1
    37   12   35 1
    38   13   36 1
    39   13   37 1
    40   13   38 1
    41   15   39 1
    42   16   40 1
    43   18   41 1
    44   21   42 1
    45   21   43 1
    46   21   44 1
    47   23   45 1
    48   24   46 1
    49   25   47 1
    50   26   48 1
    51   27   49 1
@<TRIPOS>PROPERTY_DATA
  Total_Score	| 10.3743
  Crash		| -1.2777
  Polar		| 2.7362
  FragIndex	| 1
  FragRMSD	| 0.960

