@<TRIPOS>MOLECULE
BindingDB_18492
 47 48 0 0 0
SMALL
NO_CHARGES


@<TRIPOS>ATOM
1    C        15.3363   -8.8962   -1.3983  C     
2    C        16.1630  -10.7708   -2.6019  C     
3    C        14.4984   -9.4004   -3.6190  C     
4    C        14.4784   -8.5554   -2.4753  C     
5    N        16.1467   -9.9836   -1.4995  N     
6    N        15.3369  -10.4687   -3.6268  N     
7    N        15.4390   -8.1829   -0.2601  N     
8    N        16.9901  -11.8253   -2.6958  N     
9    C        13.7534   -7.4624   -2.4608  C     
10   C        13.1561   -6.4262   -2.4965  C     
11   C        12.5505   -5.1876   -2.5755  C     
12   C        11.5757   -5.1241   -3.7135  C     
13   C        11.8040   -4.2622   -4.8117  C     
14   C        10.4020   -5.9119   -3.7368  C     
15   C         9.5291   -5.8938   -4.8411  C     
16   C         9.8363   -5.1189   -5.9848  C     
17   C        10.9611   -4.2600   -5.9469  C     
18   O        11.1986   -3.3589   -6.9523  O     
19   C        12.4389   -3.5397   -7.6565  C     
20   O         9.0577   -5.3991   -7.0859  O     
21   C         9.2384   -4.7963   -8.3715  C     
22   O         8.4311   -6.7207   -4.8085  O     
23   C         7.1838   -6.0492   -5.0889  C     
24   C        11.9263   -4.7229   -1.2374  C     
25   C        13.6676   -9.1856   -4.8280  C     
26   H        16.0603   -8.4719    0.4235  H     
27   H        14.9328   -7.3660   -0.1247  H     
28   H        17.0168  -12.3584   -3.5100  H     
29   H        17.6024  -12.0260   -1.9714  H     
30   H        13.3757   -4.4934   -2.7660  H     
31   H        12.6105   -3.6329   -4.8047  H     
32   H        10.1918   -6.5341   -2.9512  H     
33   H        13.2910   -3.3352   -7.0071  H     
34   H        12.4618   -2.8312   -8.4863  H     
35   H        12.5272   -4.5497   -8.0607  H     
36   H         9.2562   -3.7051   -8.2914  H     
37   H         8.3914   -5.0864   -8.9942  H     
38   H        10.1598   -5.1490   -8.8518  H     
39   H         7.0596   -5.1470   -4.4854  H     
40   H         6.3719   -6.7358   -4.8490  H     
41   H         7.1031   -5.7823   -6.1483  H     
42   H        11.0666   -5.3408   -0.9619  H     
43   H        11.5866   -3.6904   -1.3463  H     
44   H        12.6652   -4.7531   -0.4280  H     
45   H        12.6118   -9.1880   -4.5555  H     
46   H        13.8330   -9.9690   -5.5708  H     
47   H        13.9139   -8.2237   -5.2815  H     
@<TRIPOS>BOND
     1    1    4 2
     2    1    5 1
     3    1    7 1
     4    2    5 2
     5    2    6 1
     6    2    8 1
     7    3    4 1
     8    3    6 2
     9    3   25 1
    10    4    9 1
    11    9   10 3
    12   10   11 1
    13   11   12 1
    14   11   24 1
    15   12   13 1
    16   12   14 2
    17   13   17 2
    18   14   15 1
    19   15   16 2
    20   15   22 1
    21   16   17 1
    22   16   20 1
    23   17   18 1
    24   18   19 1
    25   20   21 1
    26   22   23 1
    27    7   26 1
    28    7   27 1
    29    8   28 1
    30    8   29 1
    31   11   30 1
    32   13   31 1
    33   14   32 1
    34   19   33 1
    35   19   34 1
    36   19   35 1
    37   21   36 1
    38   21   37 1
    39   21   38 1
    40   23   39 1
    41   23   40 1
    42   23   41 1
    43   24   42 1
    44   24   43 1
    45   24   44 1
    46   25   45 1
    47   25   46 1
    48   25   47 1
@<TRIPOS>PROPERTY_DATA
  Total_Score	| 8.3234
  Crash		| -1.8635
  Polar		| 2.5293
  FragIndex	| 1
  FragRMSD	| 0.690

