@<TRIPOS>MOLECULE
BindingDB_26518
 40 41 0 0 0
SMALL
NO_CHARGES


@<TRIPOS>ATOM
1    C        15.4243   -8.9400   -1.3058  C     
2    C        16.3219  -10.7155   -2.5915  C     
3    C        14.5939   -9.3863   -3.5435  C     
4    C        14.5381   -8.5997   -2.3595  C     
5    N        16.2787   -9.9817   -1.4526  N     
6    N        15.4841  -10.4073   -3.6051  N     
7    N        17.1979  -11.7197   -2.7362  N     
8    N        15.5072   -8.2722   -0.1391  N     
9    C        13.6872   -7.6094   -2.2502  C     
10   C        12.8990   -6.7161   -2.1734  C     
11   C        11.3845   -5.3652   -3.4084  C     
12   C        11.9354   -4.3630   -4.2484  C     
13   C        10.2099   -6.0427   -3.8286  C     
14   C         9.5798   -5.7313   -5.0495  C     
15   C        10.1395   -4.7304   -5.8726  C     
16   C        11.2894   -4.0390   -5.4672  C     
17   C        11.9831   -5.6963   -2.0845  C     
18   C        13.7469   -9.1659   -4.7404  C     
19   O         8.5031   -6.4741   -5.4440  O     
20   C         7.2512   -5.7713   -5.4874  C     
21   O        13.0316   -3.6414   -3.8355  O     
22   C        14.2173   -3.8136   -4.6255  C     
23   H        17.2350  -12.2160   -3.5733  H     
24   H        17.8012  -11.9447   -2.0118  H     
25   H        16.1411   -8.5662    0.5334  H     
26   H        14.9875   -7.4685    0.0133  H     
27   H         9.8004   -6.7696   -3.2388  H     
28   H         9.7101   -4.5116   -6.7755  H     
29   H        11.6631   -3.2892   -6.0568  H     
30   H        11.1962   -5.9994   -1.3936  H     
31   H        12.4805   -4.8301   -1.6449  H     
32   H        12.6931   -9.2513   -4.4786  H     
33   H        13.9630   -9.9004   -5.5200  H     
34   H        13.9347   -8.1712   -5.1450  H     
35   H         6.9863   -5.3625   -4.5099  H     
36   H         6.4784   -6.4803   -5.7857  H     
37   H         7.2787   -4.9657   -6.2243  H     
38   H        14.4996   -4.8662   -4.6985  H     
39   H        15.0247   -3.2706   -4.1364  H     
40   H        14.0822   -3.3980   -5.6259  H     
@<TRIPOS>BOND
     1    1    4 1
     2    1    5 2
     3    1    8 1
     4    2    5 1
     5    2    6 2
     6    2    7 1
     7    3    4 2
     8    3    6 1
     9    3   18 1
    10    4    9 1
    11    9   10 3
    12   10   17 1
    13   11   12 2
    14   11   13 1
    15   11   17 1
    16   12   16 1
    17   12   21 1
    18   13   14 2
    19   14   15 1
    20   14   19 1
    21   15   16 2
    22   19   20 1
    23   21   22 1
    24    7   23 1
    25    7   24 1
    26    8   25 1
    27    8   26 1
    28   13   27 1
    29   15   28 1
    30   16   29 1
    31   17   30 1
    32   17   31 1
    33   18   32 1
    34   18   33 1
    35   18   34 1
    36   20   35 1
    37   20   36 1
    38   20   37 1
    39   22   38 1
    40   22   39 1
    41   22   40 1
@<TRIPOS>PROPERTY_DATA
  Total_Score	| 7.4318
  Crash		| -0.9879
  Polar		| 2.6028
  FragIndex	| 1
  FragRMSD	| 0.661

