@<TRIPOS>MOLECULE
BindingDB_26517
 37 38 0 0 0
SMALL
NO_CHARGES


@<TRIPOS>ATOM
1    C        15.5031   -8.9270   -1.2752  C     
2    C        16.3490  -10.7305   -2.5741  C     
3    C        14.6484   -9.3768   -3.4898  C     
4    C        14.6143   -8.5901   -2.3166  C     
5    N        16.3290   -9.9978   -1.4393  N     
6    N        15.5165  -10.4090   -3.5812  N     
7    N        17.1910  -11.7674   -2.7087  N     
8    N        15.5823   -8.2645   -0.1184  N     
9    C        13.6985   -7.6713   -2.1927  C     
10   C        12.8298   -6.8560   -2.1458  C     
11   C        11.3116   -5.5652   -3.4896  C     
12   C        12.1518   -5.0107   -4.4957  C     
13   C         9.9193   -5.6924   -3.7655  C     
14   C         9.3729   -5.3332   -5.0120  C     
15   C        10.2177   -4.7856   -5.9951  C     
16   C        11.5990   -4.6372   -5.7383  C     
17   C        11.8140   -5.9492   -2.1315  C     
18   O         8.0310   -5.4704   -5.2328  O     
19   C         7.5803   -6.8406   -5.2573  C     
20   O        13.5104   -4.9076   -4.3167  O     
21   C        14.0109   -3.5674   -4.4659  C     
22   H        14.0176   -9.2023   -4.2729  H     
23   H        17.2053  -12.2871   -3.5293  H     
24   H        17.7529  -12.0243   -1.9581  H     
25   H        16.2365   -8.5296    0.5373  H     
26   H        15.0623   -7.4621    0.0209  H     
27   H         9.2853   -6.0656   -3.0489  H     
28   H         9.8268   -4.5094   -6.9006  H     
29   H        12.1955   -4.2348   -6.4596  H     
30   H        10.9912   -6.4259   -1.5657  H     
31   H        12.1331   -5.0435   -1.5665  H     
32   H         8.0222   -7.4071   -6.0802  H     
33   H         6.5023   -6.8525   -5.3983  H     
34   H         7.7924   -7.3464   -4.3122  H     
35   H        13.8555   -3.2157   -5.4987  H     
36   H        15.0920   -3.5625   -4.2507  H     
37   H        13.5173   -2.8934   -3.7656  H     
@<TRIPOS>BOND
     1    1    4 1
     2    1    5 2
     3    1    8 1
     4    2    5 1
     5    2    6 2
     6    2    7 1
     7    3    4 2
     8    3    6 1
     9    4    9 1
    10    9   10 3
    11   10   17 1
    12   11   12 2
    13   11   13 1
    14   11   17 1
    15   12   16 1
    16   12   20 1
    17   13   14 2
    18   14   15 1
    19   14   18 1
    20   15   16 2
    21   18   19 1
    22   20   21 1
    23    3   22 1
    24    7   23 1
    25    7   24 1
    26    8   25 1
    27    8   26 1
    28   13   27 1
    29   15   28 1
    30   16   29 1
    31   17   30 1
    32   17   31 1
    33   19   32 1
    34   19   33 1
    35   19   34 1
    36   21   35 1
    37   21   36 1
    38   21   37 1
@<TRIPOS>PROPERTY_DATA
  Total_Score	| 6.3688
  Crash		| -0.8096
  Polar		| 2.5779
  FragIndex	| 1
  FragRMSD	| 0.287

