@<TRIPOS>MOLECULE
BindingDB_25820
 55 57 0 0 0
SMALL
NO_CHARGES


@<TRIPOS>ATOM
1    C        15.3844   -8.8823   -1.3241  C     
2    C        16.2990  -10.6898   -2.5588  C     
3    C        14.5790   -9.3924   -3.5615  C     
4    C        14.5093   -8.5733   -2.3995  C     
5    C        13.7290   -9.1903   -4.7655  C     
6    N        15.4443   -8.2194   -0.1540  N     
7    N        17.1563  -11.7113   -2.6786  N     
8    N        16.2456   -9.9199   -1.4444  N     
9    N        15.4708  -10.4159   -3.5877  N     
10   C        13.6617   -7.5799   -2.3655  C     
11   C        12.8321   -6.7095   -2.4469  C     
12   C        11.8569   -5.7485   -2.5076  C     
13   C        12.3237   -4.4873   -1.7175  C     
14   C        11.3601   -5.4506   -3.9027  C     
15   C        12.1055   -4.6445   -4.8149  C     
16   C        10.0658   -5.8872   -4.3045  C     
17   C         9.4836   -5.4202   -5.5160  C     
18   C        10.2013   -4.5367   -6.3361  C     
19   C        11.5370   -4.1918   -6.0327  C     
20   O         8.3152   -5.9073   -6.0363  O     
21   C         7.2789   -6.2162   -5.0872  C     
22   C        12.2796   -3.4131   -6.9801  C     
23   C        13.4795   -1.3678   -7.6406  C     
24   C        12.7807   -2.1146   -6.6589  C     
25   C        12.4624   -3.9100   -8.3087  C     
26   C        13.1420   -3.1247   -9.2742  C     
27   C        13.6475   -1.8629   -8.9402  C     
28   C        12.0446   -5.2874   -8.6964  C     
29   C        12.6229   -1.5468   -5.3008  C     
30   H        12.6710   -9.2479   -4.4916  H     
31   H        13.9282   -9.9481   -5.5266  H     
32   H        13.9300   -8.2033   -5.1936  H     
33   H        16.0878   -8.4996    0.5142  H     
34   H        14.8746   -7.4592    0.0279  H     
35   H        17.1759  -12.2351   -3.5007  H     
36   H        17.7606  -11.9357   -1.9534  H     
37   H        11.0340   -6.1670   -1.9176  H     
38   H        12.5161   -4.7334   -0.6645  H     
39   H        11.5428   -3.7224   -1.7463  H     
40   H        13.2423   -4.0637   -2.1392  H     
41   H        13.0757   -4.3727   -4.5927  H     
42   H         9.5231   -6.5742   -3.7506  H     
43   H         9.8048   -4.2414   -7.2463  H     
44   H         7.6492   -6.9058   -4.3192  H     
45   H         6.4531   -6.6889   -5.6349  H     
46   H         6.8883   -5.3167   -4.5956  H     
47   H        13.8654   -0.4423   -7.4184  H     
48   H        13.3187   -3.4737  -10.2245  H     
49   H        14.1678   -1.3082   -9.6330  H     
50   H        12.5996   -6.0018   -8.0935  H     
51   H        12.2465   -5.5154   -9.7483  H     
52   H        10.9738   -5.4323   -8.5174  H     
53   H        11.5693   -1.4354   -5.0726  H     
54   H        13.0886   -0.5669   -5.2138  H     
55   H        13.0814   -2.2191   -4.5697  H     
@<TRIPOS>BOND
     1    1    4 1
     2    1    6 1
     3    1    8 2
     4    2    7 1
     5    2    8 1
     6    2    9 2
     7    3    4 2
     8    3    5 1
     9    3    9 1
    10    4   10 1
    11   10   11 3
    12   11   12 1
    13   12   13 1
    14   12   14 1
    15   14   15 2
    16   14   16 1
    17   15   19 1
    18   16   17 2
    19   17   18 1
    20   17   20 1
    21   18   19 2
    22   19   22 1
    23   20   21 1
    24   22   24 2
    25   22   25 1
    26   23   24 1
    27   23   27 2
    28   24   29 1
    29   25   26 2
    30   25   28 1
    31   26   27 1
    32    5   30 1
    33    5   31 1
    34    5   32 1
    35    6   33 1
    36    6   34 1
    37    7   35 1
    38    7   36 1
    39   12   37 1
    40   13   38 1
    41   13   39 1
    42   13   40 1
    43   15   41 1
    44   16   42 1
    45   18   43 1
    46   21   44 1
    47   21   45 1
    48   21   46 1
    49   23   47 1
    50   26   48 1
    51   27   49 1
    52   28   50 1
    53   28   51 1
    54   28   52 1
    55   29   53 1
    56   29   54 1
    57   29   55 1
@<TRIPOS>PROPERTY_DATA
  Total_Score	| 10.3850
  Crash		| -2.4458
  Polar		| 2.4564
  FragIndex	| 1
  FragRMSD	| 0.935

