@<TRIPOS>MOLECULE
BindingDB_18494
 45 46 0 0 0
SMALL
NO_CHARGES


@<TRIPOS>ATOM
1    C        15.3115   -8.9946   -1.4374  C     
2    C        16.3991  -10.7205   -2.6541  C     
3    C        14.5891   -9.5639   -3.6865  C     
4    C        14.4325   -8.7533   -2.5248  C     
5    N        16.2580   -9.9656   -1.5365  N     
6    N        15.5585  -10.5155   -3.6937  N     
7    N        15.3026   -8.3037   -0.2814  N     
8    N        17.3498  -11.6572   -2.7518  N     
9    C        13.5492   -7.7860   -2.4859  C     
10   C        12.7719   -6.8794   -2.4264  C     
11   C        11.9097   -5.8233   -2.2930  C     
12   C        11.3639   -5.3537   -3.6040  C     
13   C        12.0146   -4.3191   -4.3086  C     
14   C        10.1853   -5.9080   -4.1646  C     
15   C         9.6482   -5.4114   -5.3720  C     
16   C        10.3265   -4.3776   -6.0776  C     
17   C        11.5019   -3.8188   -5.5254  C     
18   O        12.1544   -2.8613   -6.2735  O     
19   C        12.4152   -1.5541   -5.7220  C     
20   O         9.9622   -3.8224   -7.2951  O     
21   C         9.5219   -4.6064   -8.4215  C     
22   O         8.5637   -6.0209   -5.9410  O     
23   C         7.4178   -6.2464   -5.0919  C     
24   O        10.8495   -6.1574   -1.4101  O     
25   C        13.7635   -9.4343   -4.9136  C     
26   H        15.9469   -8.5307    0.4029  H     
27   H        14.6834   -7.5683   -0.1300  H     
28   H        17.4354  -12.1680   -3.5797  H     
29   H        17.9576  -11.8165   -2.0121  H     
30   H        12.4682   -5.0271   -1.8038  H     
31   H        12.8759   -3.9106   -3.9371  H     
32   H         9.7274   -6.6911   -3.6839  H     
33   H        11.6156   -1.2181   -5.0398  H     
34   H        12.4959   -0.8489   -6.5401  H     
35   H        13.3679   -1.5680   -5.1716  H     
36   H        10.2370   -5.4032   -8.6252  H     
37   H         9.4543   -3.9560   -9.2875  H     
38   H         8.5340   -5.0294   -8.2089  H     
39   H         7.6310   -7.0316   -4.3662  H     
40   H         6.5951   -6.5832   -5.7231  H     
41   H         7.1099   -5.3259   -4.5833  H     
42   H        10.2561   -5.3738   -1.4190  H     
43   H        12.7072   -9.5612   -4.6640  H     
44   H        14.0403  -10.1835   -5.6603  H     
45   H        13.9097   -8.4355   -5.3464  H     
@<TRIPOS>BOND
     1    1    4 2
     2    1    5 1
     3    1    7 1
     4    2    5 2
     5    2    6 1
     6    2    8 1
     7    3    4 1
     8    3    6 2
     9    3   25 1
    10    4    9 1
    11    9   10 3
    12   10   11 1
    13   11   12 1
    14   11   24 1
    15   12   13 1
    16   12   14 2
    17   13   17 2
    18   14   15 1
    19   15   16 2
    20   15   22 1
    21   16   17 1
    22   16   20 1
    23   17   18 1
    24   18   19 1
    25   20   21 1
    26   22   23 1
    27    7   26 1
    28    7   27 1
    29    8   28 1
    30    8   29 1
    31   11   30 1
    32   13   31 1
    33   14   32 1
    34   19   33 1
    35   19   34 1
    36   19   35 1
    37   21   36 1
    38   21   37 1
    39   21   38 1
    40   23   39 1
    41   23   40 1
    42   23   41 1
    43   24   42 1
    44   25   43 1
    45   25   44 1
    46   25   45 1
@<TRIPOS>PROPERTY_DATA
  Total_Score	| 7.0958
  Crash		| -1.3977
  Polar		| 2.0845
  FragIndex	| 1
  FragRMSD	| 0.529

