@<TRIPOS>MOLECULE
BindingDB_50298802
 61 63 0 0 0
SMALL
NO_CHARGES


@<TRIPOS>ATOM
1    N        16.1559   -9.9795   -1.4810  N     
2    C        16.1785  -10.7105   -2.6200  C     
3    N        15.3477  -10.3759   -3.6303  N     
4    C        14.4908   -9.3248   -3.5795  C     
5    C        14.4719   -8.5288   -2.4006  C     
6    C        15.3369   -8.9069   -1.3394  C     
7    N        17.0297  -11.7329   -2.7703  N     
8    N        15.4468   -8.2402   -0.1728  N     
9    C        13.7862   -7.4231   -2.3520  C     
10   C        13.2096   -6.3753   -2.3837  C     
11   C        12.6521   -5.1353   -2.5252  C     
12   C        11.7831   -5.0696   -3.7434  C     
13   C        10.4349   -5.5075   -3.7303  C     
14   C         9.6110   -5.3121   -4.8547  C     
15   C        10.1297   -4.7187   -6.0161  C     
16   C        11.4940   -4.3643   -6.0839  C     
17   C        12.3105   -4.5393   -4.9474  C     
18   C        13.6730   -9.1045   -4.8006  C     
19   O         8.2853   -5.6296   -4.7115  O     
20   C         7.7063   -6.5340   -5.6710  C     
21   C        12.0347   -3.8817   -7.2913  C     
22   C        11.7110   -4.5179   -8.5095  C     
23   C        12.1908   -4.0236   -9.7311  C     
24   C        13.0566   -2.8944   -9.7965  C     
25   C        13.3663   -2.2620   -8.5566  C     
26   C        12.8558   -2.7272   -7.3372  C     
27   C        11.9634   -4.6322   -1.2319  C     
28   C        13.5845   -2.4108  -11.1383  C     
29   C        14.5027   -3.5106  -11.7763  C     
30   C        12.3765   -2.1357  -12.0942  C     
31   C        14.4580   -1.1071  -11.0982  C     
32   H        17.0545  -12.2270   -3.6080  H     
33   H        17.6345  -11.9683   -2.0518  H     
34   H        14.9473   -7.4203   -0.0112  H     
35   H        16.0759   -8.5509    0.5005  H     
36   H        13.5084   -4.4591   -2.6618  H     
37   H        10.0360   -5.9242   -2.8902  H     
38   H         9.5179   -4.5620   -6.8266  H     
39   H        13.3017   -4.2733   -5.0100  H     
40   H        14.3307   -8.8955   -5.6472  H     
41   H        12.9709   -8.2750   -4.7029  H     
42   H        13.0945  -10.0012   -5.0269  H     
43   H         7.4273   -5.9917   -6.5841  H     
44   H         6.8045   -6.9488   -5.2273  H     
45   H         8.3873   -7.3561   -5.9166  H     
46   H        11.1241   -5.3532   -8.5194  H     
47   H        11.9106   -4.4999  -10.5850  H     
48   H        13.9616   -1.4338   -8.5035  H     
49   H        13.0886   -2.2419   -6.4620  H     
50   H        11.1522   -5.3010   -0.9345  H     
51   H        11.5399   -3.6331   -1.3980  H     
52   H        12.6720   -4.5704   -0.4098  H     
53   H        15.3343   -3.7550  -11.1056  H     
54   H        14.9231   -3.1755  -12.7364  H     
55   H        13.9580   -4.4410  -11.9874  H     
56   H        11.7603   -3.0259  -12.2477  H     
57   H        12.7190   -1.8041  -13.0827  H     
58   H        11.7287   -1.3506  -11.6835  H     
59   H        13.8665   -0.2588  -10.7534  H     
60   H        14.8388   -0.8693  -12.0862  H     
61   H        15.3063   -1.2465  -10.4217  H     
@<TRIPOS>BOND
     1    1    2 2
     2    1    6 1
     3    2    3 1
     4    2    7 1
     5    3    4 2
     6    4    5 1
     7    4   18 1
     8    5    6 2
     9    5    9 1
    10    6    8 1
    11    9   10 3
    12   10   11 1
    13   11   12 1
    14   11   27 1
    15   12   13 2
    16   12   17 1
    17   13   14 1
    18   14   15 2
    19   14   19 1
    20   15   16 1
    21   16   17 2
    22   16   21 1
    23   19   20 1
    24   21   22 2
    25   21   26 1
    26   22   23 1
    27   23   24 2
    28   24   25 1
    29   24   28 1
    30   25   26 2
    31   28   29 1
    32   28   30 1
    33   28   31 1
    34    7   32 1
    35    7   33 1
    36    8   34 1
    37    8   35 1
    38   11   36 1
    39   13   37 1
    40   15   38 1
    41   17   39 1
    42   18   40 1
    43   18   41 1
    44   18   42 1
    45   20   43 1
    46   20   44 1
    47   20   45 1
    48   22   46 1
    49   23   47 1
    50   25   48 1
    51   26   49 1
    52   27   50 1
    53   27   51 1
    54   27   52 1
    55   29   53 1
    56   29   54 1
    57   29   55 1
    58   30   56 1
    59   30   57 1
    60   30   58 1
    61   31   59 1
    62   31   60 1
    63   31   61 1
@<TRIPOS>PROPERTY_DATA
  Total_Score	| 9.1417
  Crash		| -1.7483
  Polar		| 2.6931
  FragIndex	| 1
  FragRMSD	| 0.934

