@<TRIPOS>MOLECULE
BindingDB_50329608
 50 51 0 0 0
SMALL
NO_CHARGES


@<TRIPOS>ATOM
1    C        12.4552   -3.7143   -7.8992  C     
2    O        11.2237   -3.4491   -7.1927  O     
3    C        11.0154   -4.2335   -6.0794  C     
4    C        11.9613   -4.3037   -5.0273  C     
5    C         9.7817   -4.9072   -5.9540  C     
6    O         8.7748   -4.8267   -6.8930  O     
7    C         9.1516   -4.6738   -8.2745  C     
8    C         9.5072   -5.6264   -4.7727  C     
9    O         8.2567   -6.1360   -4.5562  O     
10   C         8.0718   -7.4829   -5.0159  C     
11   C        10.4763   -5.7042   -3.7522  C     
12   C        11.7280   -5.0367   -3.8303  C     
13   C        12.7116   -5.0647   -2.6685  C     
14   C        13.9408   -4.0995   -2.8111  C     
15   C        11.9837   -4.6588   -1.3416  C     
16   C        13.2544   -6.3339   -2.5516  C     
17   C        13.8198   -7.3857   -2.4902  C     
18   C        14.5099   -8.5006   -2.4852  C     
19   C        14.5067   -9.3596   -3.6170  C     
20   C        13.6578   -9.1489   -4.8126  C     
21   N        15.3377  -10.4356   -3.6257  N     
22   C        16.1739  -10.7347   -2.6058  C     
23   N        17.0048  -11.7821   -2.7134  N     
24   N        16.1652   -9.9453   -1.5038  N     
25   C        15.3660   -8.8498   -1.4072  C     
26   N        15.4751   -8.1399   -0.2667  N     
27   H        13.3211   -3.3309   -7.3407  H     
28   H        12.4250   -3.2030   -8.8668  H     
29   H        12.5940   -4.7859   -8.0882  H     
30   H        12.8208   -3.7672   -5.1521  H     
31   H         9.3346   -3.6329   -8.5180  H     
32   H         8.3228   -5.0217   -8.8853  H     
33   H        10.0407   -5.2552   -8.5421  H     
34   H         8.1468   -7.5337   -6.1020  H     
35   H         7.0682   -7.8051   -4.7323  H     
36   H         8.7850   -8.1667   -4.5625  H     
37   H        10.2404   -6.2479   -2.9218  H     
38   H        14.5428   -4.3436   -3.6910  H     
39   H        14.5963   -4.1458   -1.9341  H     
40   H        13.6090   -3.0594   -2.9065  H     
41   H        11.5753   -3.6487   -1.4338  H     
42   H        12.6697   -4.6691   -0.4914  H     
43   H        11.1582   -5.3308   -1.1030  H     
44   H        12.6075   -9.1227   -4.5262  H     
45   H        13.7944   -9.9499   -5.5384  H     
46   H        13.9105   -8.2017   -5.2909  H     
47   H        17.6174  -11.9931   -1.9958  H     
48   H        17.0141  -12.3088   -3.5347  H     
49   H        16.0897   -8.4483    0.4184  H     
50   H        14.9687   -7.3282   -0.1187  H     
@<TRIPOS>BOND
     1    1    2 1
     2    2    3 1
     3    3    4 2
     4    3    5 1
     5    4   12 1
     6    5    6 1
     7    5    8 2
     8    6    7 1
     9    8    9 1
    10    8   11 1
    11    9   10 1
    12   11   12 2
    13   12   13 1
    14   13   14 1
    15   13   15 1
    16   13   16 1
    17   16   17 3
    18   17   18 1
    19   18   19 2
    20   18   25 1
    21   19   20 1
    22   19   21 1
    23   21   22 2
    24   22   23 1
    25   22   24 1
    26   24   25 2
    27   25   26 1
    28    1   27 1
    29    1   28 1
    30    1   29 1
    31    4   30 1
    32    7   31 1
    33    7   32 1
    34    7   33 1
    35   10   34 1
    36   10   35 1
    37   10   36 1
    38   11   37 1
    39   14   38 1
    40   14   39 1
    41   14   40 1
    42   15   41 1
    43   15   42 1
    44   15   43 1
    45   20   44 1
    46   20   45 1
    47   20   46 1
    48   23   47 1
    49   23   48 1
    50   26   49 1
    51   26   50 1
@<TRIPOS>PROPERTY_DATA
  Total_Score	| 8.8375
  Crash		| -1.4670
  Polar		| 2.5978
  FragIndex	| 1
  FragRMSD	| 0.682

