@<TRIPOS>MOLECULE
BindingDB_25819
 52 54 0 0 0
SMALL
NO_CHARGES


@<TRIPOS>ATOM
1    C        15.4427   -8.9668   -1.3540  C     
2    C        16.3427  -10.7806   -2.5892  C     
3    C        14.6240   -9.4592   -3.5857  C     
4    C        14.5739   -8.6392   -2.4265  C     
5    C        13.7763   -9.2603   -4.7855  C     
6    N        15.5097   -8.2920   -0.1920  N     
7    N        17.2019  -11.8045   -2.7010  N     
8    N        16.2960  -10.0137   -1.4738  N     
9    N        15.5078  -10.4908   -3.6107  N     
10   C        13.7207   -7.6464   -2.3231  C     
11   C        12.9206   -6.7628   -2.2316  C     
12   C        11.9469   -5.8009   -2.1168  C     
13   C        12.4751   -4.5424   -1.3814  C     
14   C        11.3213   -5.4599   -3.4368  C     
15   C        12.0083   -4.7330   -4.4418  C     
16   C         9.9704   -5.7965   -3.6628  C     
17   C         9.3022   -5.3586   -4.8174  C     
18   C         9.9735   -4.5279   -5.7290  C     
19   C        11.3486   -4.2159   -5.5961  C     
20   O         7.9726   -5.6224   -4.9884  O     
21   C         7.6943   -7.0274   -5.1197  C     
22   C        12.0149   -3.3257   -6.5193  C     
23   C        12.9301   -1.0529   -6.8684  C     
24   C        12.2724   -1.9982   -6.0709  C     
25   C        12.4158   -3.6661   -7.8604  C     
26   C        13.0722   -2.6879   -8.6525  C     
27   C        13.3466   -1.4004   -8.1609  C     
28   C        12.1798   -4.9864   -8.5097  C     
29   H        12.7219   -9.3285   -4.5143  H     
30   H        13.9840  -10.0131   -5.5437  H     
31   H        13.9674   -8.2739   -5.2161  H     
32   H        16.1297   -8.5871    0.4914  H     
33   H        14.9683   -7.5045   -0.0360  H     
34   H        17.2466  -12.3130   -3.5272  H     
35   H        17.7957  -12.0209   -1.9633  H     
36   H        11.1973   -6.2512   -1.4568  H     
37   H        12.8388   -4.8041   -0.3850  H     
38   H        11.6705   -3.8135   -1.2739  H     
39   H        13.2914   -4.0685   -1.9272  H     
40   H        13.0020   -4.5468   -4.2943  H     
41   H         9.4370   -6.3284   -2.9715  H     
42   H         9.4250   -4.1251   -6.4834  H     
43   H         8.1943   -7.4577   -5.9938  H     
44   H         6.6237   -7.1538   -5.2492  H     
45   H         7.9964   -7.5692   -4.2185  H     
46   H        13.1041   -0.1094   -6.5112  H     
47   H        11.9643   -1.6796   -5.1482  H     
48   H        13.3719   -2.9004   -9.6072  H     
49   H        13.8295   -0.7158   -8.7480  H     
50   H        12.4575   -5.7863   -7.8251  H     
51   H        12.7807   -5.1264   -9.4205  H     
52   H        11.1301   -5.0716   -8.8053  H     
@<TRIPOS>BOND
     1    1    4 1
     2    1    6 1
     3    1    8 2
     4    2    7 1
     5    2    8 1
     6    2    9 2
     7    3    4 2
     8    3    5 1
     9    3    9 1
    10    4   10 1
    11   10   11 3
    12   11   12 1
    13   12   13 1
    14   12   14 1
    15   14   15 2
    16   14   16 1
    17   15   19 1
    18   16   17 2
    19   17   18 1
    20   17   20 1
    21   18   19 2
    22   19   22 1
    23   20   21 1
    24   22   24 2
    25   22   25 1
    26   23   24 1
    27   23   27 2
    28   25   26 2
    29   25   28 1
    30   26   27 1
    31    5   29 1
    32    5   30 1
    33    5   31 1
    34    6   32 1
    35    6   33 1
    36    7   34 1
    37    7   35 1
    38   12   36 1
    39   13   37 1
    40   13   38 1
    41   13   39 1
    42   15   40 1
    43   16   41 1
    44   18   42 1
    45   21   43 1
    46   21   44 1
    47   21   45 1
    48   23   46 1
    49   24   47 1
    50   26   48 1
    51   27   49 1
    52   28   50 1
    53   28   51 1
    54   28   52 1
@<TRIPOS>PROPERTY_DATA
  Total_Score	| 11.0036
  Crash		| -0.9804
  Polar		| 2.4749
  FragIndex	| 1
  FragRMSD	| 0.843

