@<TRIPOS>MOLECULE
BindingDB_50298801
 55 57 0 0 0
SMALL
NO_CHARGES


@<TRIPOS>ATOM
1    N        16.1405  -10.0406   -1.6040  N     
2    C        16.0766  -10.8293   -2.7014  C     
3    N        15.2339  -10.4891   -3.7035  N     
4    C        14.4456   -9.3825   -3.6762  C     
5    C        14.4924   -8.5468   -2.5259  C     
6    C        15.3818   -8.9202   -1.4819  C     
7    N        15.5845   -8.2162   -0.3546  N     
8    C        13.8113   -7.4305   -2.4808  C     
9    C        13.2220   -6.3907   -2.5187  C     
10   C        12.6044   -5.1663   -2.6388  C     
11   C        11.6044   -5.1353   -3.7586  C     
12   C        10.4147   -5.8978   -3.7047  C     
13   C         9.4091   -5.7497   -4.6746  C     
14   C         9.6146   -4.8394   -5.7426  C     
15   C        10.8411   -4.1291   -5.8993  C     
16   C        11.8223   -4.3031   -4.8910  C     
17   C        13.6482   -9.1426   -4.9000  C     
18   O         8.3332   -6.5913   -4.5390  O     
19   C         7.0629   -6.1974   -5.0753  C     
20   C        11.0672   -3.2734   -7.0440  C     
21   C        11.9145   -2.1362   -6.9524  C     
22   C        12.1824   -1.3123   -8.0724  C     
23   C        11.5398   -1.5870   -9.2985  C     
24   C        10.6685   -2.6855   -9.4268  C     
25   C        10.4673   -3.5328   -8.3097  C     
26   C        11.9752   -4.6928   -1.3009  C     
27   C         9.9789   -2.9146  -10.7202  C     
28   C        13.1241   -0.1767   -7.9511  C     
29   N        16.8532  -11.9161   -2.8259  N     
30   H        15.1131   -7.3870   -0.1831  H     
31   H        16.2523   -8.5290    0.2779  H     
32   H        13.4160   -4.4617   -2.8434  H     
33   H        10.2676   -6.5520   -2.9332  H     
34   H         8.8388   -4.7046   -6.4000  H     
35   H        12.7131   -3.8190   -4.9883  H     
36   H        14.3200   -9.0818   -5.7571  H     
37   H        13.0680   -8.2210   -4.8602  H     
38   H        12.9574   -9.9703   -5.0550  H     
39   H         6.7178   -5.2651   -4.6076  H     
40   H         6.3255   -6.9820   -4.8497  H     
41   H         7.1355   -6.0632   -6.1744  H     
42   H        12.3449   -1.8935   -6.0576  H     
43   H        11.7064   -0.9896  -10.1102  H     
44   H         9.8678   -4.3534   -8.4178  H     
45   H        11.1443   -5.3341   -1.0010  H     
46   H        11.5959   -3.6718   -1.4125  H     
47   H        12.7195   -4.6881   -0.4970  H     
48   H         9.3472   -2.0574  -10.9538  H     
49   H         9.3491   -3.8055  -10.6982  H     
50   H        10.7178   -3.0370  -11.5103  H     
51   H        12.7466    0.5370   -7.2124  H     
52   H        13.2685    0.3525   -8.8983  H     
53   H        14.0987   -0.5501   -7.6207  H     
54   H        16.8186  -12.4513   -3.6353  H     
55   H        17.4773  -12.1551   -2.1197  H     
@<TRIPOS>BOND
     1    1    2 2
     2    1    6 1
     3    2    3 1
     4    2   29 1
     5    3    4 2
     6    4    5 1
     7    4   17 1
     8    5    6 2
     9    5    8 1
    10    6    7 1
    11    8    9 3
    12    9   10 1
    13   10   11 1
    14   10   26 1
    15   11   12 2
    16   11   16 1
    17   12   13 1
    18   13   14 2
    19   13   18 1
    20   14   15 1
    21   15   16 2
    22   15   20 1
    23   18   19 1
    24   20   21 2
    25   20   25 1
    26   21   22 1
    27   22   23 2
    28   22   28 1
    29   23   24 1
    30   24   25 2
    31   24   27 1
    32    7   30 1
    33    7   31 1
    34   10   32 1
    35   12   33 1
    36   14   34 1
    37   16   35 1
    38   17   36 1
    39   17   37 1
    40   17   38 1
    41   19   39 1
    42   19   40 1
    43   19   41 1
    44   21   42 1
    45   23   43 1
    46   25   44 1
    47   26   45 1
    48   26   46 1
    49   26   47 1
    50   27   48 1
    51   27   49 1
    52   27   50 1
    53   28   51 1
    54   28   52 1
    55   28   53 1
    56   29   54 1
    57   29   55 1
@<TRIPOS>PROPERTY_DATA
  Total_Score	| 9.3759
  Crash		| -1.4848
  Polar		| 2.7036
  FragIndex	| 1
  FragRMSD	| 1.033

