@<TRIPOS>MOLECULE
BindingDB_50298803
 50 51 0 0 0
SMALL
NO_CHARGES


@<TRIPOS>ATOM
1    N        16.1565   -9.9219   -1.5229  N     
2    C        16.1884  -10.6923   -2.6375  C     
3    N        15.3635  -10.3940   -3.6682  N     
4    C        14.5101   -9.3350   -3.6455  C     
5    C        14.4857   -8.4967   -2.4971  C     
6    C        15.3302   -8.8535   -1.4166  C     
7    N        15.4210   -8.1634   -0.2657  N     
8    C        13.7873   -7.3998   -2.5017  C     
9    C        13.1973   -6.3583   -2.5771  C     
10   C        12.5815   -5.1413   -2.7360  C     
11   C        11.8238   -5.0085   -4.0325  C     
12   C        12.1749   -3.9608   -4.9440  C     
13   C        11.3771   -3.6683   -6.0582  C     
14   C        10.2465   -4.4709   -6.3357  C     
15   C         9.9027   -5.5417   -5.4829  C     
16   C        10.7116   -5.8134   -4.3603  C     
17   O         8.8428   -6.3384   -5.8040  O     
18   C         7.8082   -6.4319   -4.8156  C     
19   O         9.4113   -4.1704   -7.3821  O     
20   C         9.9672   -4.4055   -8.6833  C     
21   O        11.5999   -2.6050   -6.9285  O     
22   C        12.5547   -1.5871   -6.6006  C     
23   C        13.7096   -9.1459   -4.8827  C     
24   C        11.7212   -4.6977   -1.5048  C     
25   C        10.3685   -5.4066   -1.3186  C     
26   N        17.0432  -11.7226   -2.7491  N     
27   H        14.9061   -7.3576   -0.1106  H     
28   H        16.0397   -8.4701    0.4195  H     
29   H        13.4298   -4.4410   -2.7474  H     
30   H        12.9944   -3.3719   -4.7616  H     
31   H        10.4606   -6.6007   -3.7515  H     
32   H         8.1812   -6.9441   -3.9244  H     
33   H         6.9854   -7.0260   -5.2286  H     
34   H         7.4092   -5.4466   -4.5399  H     
35   H        10.8571   -3.7982   -8.8567  H     
36   H         9.2147   -4.1263   -9.4285  H     
37   H        10.2170   -5.4608   -8.8324  H     
38   H        12.2215   -0.9637   -5.7836  H     
39   H        12.6940   -0.9312   -7.4889  H     
40   H        13.5186   -2.0389   -6.3659  H     
41   H        14.3845   -8.9735   -5.7266  H     
42   H        13.0187   -8.3036   -4.8204  H     
43   H        13.1190  -10.0428   -5.0792  H     
44   H        12.3148   -4.8509   -0.5989  H     
45   H        11.5414   -3.6273   -1.5815  H     
46   H         9.6532   -5.1209   -2.0916  H     
47   H         9.9243   -5.1140   -0.3566  H     
48   H        10.4949   -6.4877   -1.3272  H     
49   H        17.0675  -12.2418   -3.5719  H     
50   H        17.6477  -11.9389   -2.0191  H     
@<TRIPOS>BOND
     1    1    2 2
     2    1    6 1
     3    2    3 1
     4    2   26 1
     5    3    4 2
     6    4    5 1
     7    4   23 1
     8    5    6 2
     9    5    8 1
    10    6    7 1
    11    8    9 3
    12    9   10 1
    13   10   11 1
    14   10   24 1
    15   11   12 2
    16   11   16 1
    17   12   13 1
    18   13   14 2
    19   13   21 1
    20   14   15 1
    21   14   19 1
    22   15   16 2
    23   15   17 1
    24   17   18 1
    25   19   20 1
    26   21   22 1
    27   24   25 1
    28    7   27 1
    29    7   28 1
    30   10   29 1
    31   12   30 1
    32   16   31 1
    33   18   32 1
    34   18   33 1
    35   18   34 1
    36   20   35 1
    37   20   36 1
    38   20   37 1
    39   22   38 1
    40   22   39 1
    41   22   40 1
    42   23   41 1
    43   23   42 1
    44   23   43 1
    45   24   44 1
    46   24   45 1
    47   25   46 1
    48   25   47 1
    49   25   48 1
    50   26   49 1
    51   26   50 1
@<TRIPOS>PROPERTY_DATA
  Total_Score	| 7.3755
  Crash		| -2.5508
  Polar		| 2.5882
  FragIndex	| 1
  FragRMSD	| 0.786

