@<TRIPOS>MOLECULE
BindingDB_50340074
 15 15 0 0 0
SMALL
NO_CHARGES


@<TRIPOS>ATOM
1    C        14.8808    3.2666   14.6439  C     
2    C        14.7108    4.5205   14.0294  C     
3    C        15.7783    5.4295   13.9623  C     
4    C        17.0197    5.0834   14.5297  C     
5    C        17.1838    3.8282   15.1440  C     
6    C        16.1208    2.8945   15.2150  C     
7    C        16.2992    1.6268   15.8334  C     
8    O        15.4229    0.6029   15.6606  O     
9    O        17.4375    1.3320   16.5038  O     
10   O        15.5814    6.6330   13.3559  O     
11   H        14.0789    2.6375   14.6904  H     
12   H        13.8055    4.7733   13.6281  H     
13   H        17.8045    5.7333   14.4964  H     
14   H        18.0988    3.6004   15.5439  H     
15   H        16.4571    7.0866   13.3301  H     
@<TRIPOS>BOND
     1    1    2 2
     2    1    6 1
     3    2    3 1
     4    3    4 2
     5    3   10 1
     6    4    5 1
     7    5    6 2
     8    6    7 1
     9    7    8 1
    10    7    9 2
    11    1   11 1
    12    2   12 1
    13    4   13 1
    14    5   14 1
    15   10   15 1
@<TRIPOS>PROPERTY_DATA
  Total_Score	| 4.0901
  Crash		| -0.5062
  Polar		| 3.2923
  FragIndex	| 1
  FragRMSD	| 1.028

