@<TRIPOS>MOLECULE
BindingDB_50336492
 22 22 0 0 0
SMALL
NO_CHARGES


@<TRIPOS>ATOM
1    C        14.9586    2.9259   15.7109  C     
2    C        14.5316    4.2255   15.3801  C     
3    C        15.1556    4.9528   14.3506  C     
4    C        16.2249    4.3825   13.6432  C     
5    C        16.6456    3.0722   13.9334  C     
6    C        16.0283    2.3461   14.9831  C     
7    C        16.5438    1.0981   15.3581  C     
8    O        17.4565    1.0870   16.3541  O     
9    O        15.7326    0.0179   15.2652  O     
10   O        17.7064    2.5860   13.2140  O     
11   O        14.4887    2.3536   16.8704  O     
12   C        17.4217    1.3365   12.5536  C     
13   C        13.6424    1.2007   16.7307  C     
14   H        13.7913    4.6594   15.9265  H     
15   H        14.8543    5.9045   14.1367  H     
16   H        16.7027    4.9215   12.9153  H     
17   H        17.2028    0.5410   13.2720  H     
18   H        18.3049    1.0447   11.9785  H     
19   H        16.5781    1.4370   11.8601  H     
20   H        12.7024    1.4588   16.2464  H     
21   H        13.4186    0.8258   17.7293  H     
22   H        14.1339    0.4002   16.1756  H     
@<TRIPOS>BOND
     1    1    2 2
     2    1    6 1
     3    1   11 1
     4    2    3 1
     5    3    4 2
     6    4    5 1
     7    5    6 2
     8    5   10 1
     9    6    7 1
    10    7    8 1
    11    7    9 2
    12   10   12 1
    13   11   13 1
    14    2   14 1
    15    3   15 1
    16    4   16 1
    17   12   17 1
    18   12   18 1
    19   12   19 1
    20   13   20 1
    21   13   21 1
    22   13   22 1
@<TRIPOS>PROPERTY_DATA
  Total_Score	| 4.0348
  Crash		| -2.5144
  Polar		| 4.7582
  FragIndex	| 1
  FragRMSD	| 1.074

