@<TRIPOS>MOLECULE
BindingDB_50275341
 18 18 0 0 0
SMALL
NO_CHARGES


@<TRIPOS>ATOM
1    C        14.8808    3.3428   14.6863  C     
2    C        14.6526    4.5528   14.0143  C     
3    C        15.6837    5.4857   13.8910  C     
4    C        16.9662    5.2216   14.4234  C     
5    C        17.1998    3.9829   15.0771  C     
6    C        16.1529    3.0242   15.2244  C     
7    C        16.3233    1.7773   15.9038  C     
8    O        17.5183    1.3368   16.3511  O     
9    O        15.2903    0.9155   16.0826  O     
10   O        18.4320    3.7119   15.5748  O     
11   C        18.0019    6.2735   14.2579  C     
12   H        14.0960    2.6841   14.7724  H     
13   H        13.7327    4.7524   13.6194  H     
14   H        15.4970    6.3658   13.4131  H     
15   H        19.0492    3.7848   14.8204  H     
16   H        18.1705    6.4610   13.1973  H     
17   H        18.9595    6.0123   14.7068  H     
18   H        17.6617    7.1981   14.7237  H     
@<TRIPOS>BOND
     1    1    2 2
     2    1    6 1
     3    2    3 1
     4    3    4 2
     5    4    5 1
     6    4   11 1
     7    5    6 2
     8    5   10 1
     9    6    7 1
    10    7    8 1
    11    7    9 2
    12    1   12 1
    13    2   13 1
    14    3   14 1
    15   10   15 1
    16   11   16 1
    17   11   17 1
    18   11   18 1
@<TRIPOS>PROPERTY_DATA
  Total_Score	| 3.1984
  Crash		| -0.6014
  Polar		| 2.6191
  FragIndex	| 1
  FragRMSD	| 0.126

