@<TRIPOS>MOLECULE
BindingDB_50085536
 17 17 0 0 0
SMALL
NO_CHARGES


@<TRIPOS>ATOM
1    C        14.9023    3.3195   14.6375  C     
2    C        14.7449    4.5850   14.0308  C     
3    C        15.8504    5.4600   13.9436  C     
4    C        17.0968    5.0703   14.4734  C     
5    C        17.2368    3.8135   15.0945  C     
6    C        16.1491    2.9153   15.1773  C     
7    O        13.5279    4.9248   13.5315  O     
8    O        15.6989    6.6783   13.3673  O     
9    O        18.1583    5.9251   14.3760  O     
10   C        16.2943    1.6416   15.7946  C     
11   O        15.3827    0.6411   15.6533  O     
12   O        17.4358    1.3099   16.4411  O     
13   H        14.0871    2.7061   14.7009  H     
14   H        18.1478    3.5581   15.4848  H     
15   H        13.6175    5.8295   13.1632  H     
16   H        16.5918    7.0891   13.3411  H     
17   H        18.9589    5.4229   14.6612  H     
@<TRIPOS>BOND
     1    1    2 2
     2    1    6 1
     3    2    3 1
     4    2    7 1
     5    3    4 2
     6    3    8 1
     7    4    5 1
     8    4    9 1
     9    5    6 2
    10    6   10 1
    11   10   11 1
    12   10   12 2
    13    1   13 1
    14    5   14 1
    15    7   15 1
    16    8   16 1
    17    9   17 1
@<TRIPOS>PROPERTY_DATA
  Total_Score	| 3.2312
  Crash		| -1.0768
  Polar		| 3.1980
  FragIndex	| 1
  FragRMSD	| 1.032

