@<TRIPOS>MOLECULE
BindingDB_50187132
 23 23 0 0 0
SMALL
NO_CHARGES


@<TRIPOS>ATOM
1    C        15.0603    3.4758   14.6487  C     
2    C        14.9897    4.7284   14.0027  C     
3    C        16.1731    5.5014   13.8875  C     
4    C        17.3879    5.0272   14.4272  C     
5    C        17.4230    3.7881   15.0940  C     
6    C        16.2682    2.9806   15.1961  C     
7    O        13.7432    5.0631   13.5181  O     
8    C        13.4064    6.4116   13.1573  C     
9    O        18.5226    5.7912   14.3504  O     
10   C        19.4898    5.3038   13.4047  C     
11   O        16.1681    6.6937   13.2390  O     
12   C        16.3190    1.7155   15.8414  C     
13   O        15.2913    0.8340   15.7929  O     
14   O        17.4517    1.2629   16.4194  O     
15   H        14.2074    2.9173   14.7216  H     
16   H        18.3139    3.4698   15.4848  H     
17   H        13.7617    7.1290   13.8948  H     
18   H        12.3238    6.4927   13.1023  H     
19   H        13.8185    6.6485   12.1780  H     
20   H        19.8801    4.3337   13.7090  H     
21   H        20.3226    6.0026   13.3710  H     
22   H        19.0698    5.2287   12.4023  H     
23   H        16.8987    7.2210   13.6315  H     
@<TRIPOS>BOND
     1    1    2 2
     2    1    6 1
     3    2    3 1
     4    2    7 1
     5    3    4 2
     6    3   11 1
     7    4    5 1
     8    4    9 1
     9    5    6 2
    10    6   12 1
    11    7    8 1
    12    9   10 1
    13   12   13 1
    14   12   14 2
    15    1   15 1
    16    5   16 1
    17    8   17 1
    18    8   18 1
    19    8   19 1
    20   10   20 1
    21   10   21 1
    22   10   22 1
    23   11   23 1
@<TRIPOS>PROPERTY_DATA
  Total_Score	| 4.3543
  Crash		| -1.1132
  Polar		| 2.6749
  FragIndex	| 1
  FragRMSD	| 1.074

