@<TRIPOS>MOLECULE
BindingDB_26193
 15 15 0 0 0
SMALL
NO_CHARGES


@<TRIPOS>ATOM
1    C        17.1830    3.8878   15.1190  C     
2    C        16.9519    5.1478   14.5184  C     
3    C        15.6969    5.4555   13.9707  C     
4    C        14.6678    4.5029   14.0178  C     
5    C        14.8862    3.2622   14.6409  C     
6    C        16.1397    2.9246   15.2073  C     
7    O        18.4250    3.6330   15.6073  O     
8    C        16.3094    1.6651   15.8566  C     
9    O        15.3687    0.6902   15.7823  O     
10   O        17.4761    1.2873   16.4229  O     
11   H        17.6965    5.8505   14.4873  H     
12   H        15.5315    6.3708   13.5413  H     
13   H        13.7534    4.7248   13.6172  H     
14   H        14.1075    2.6076   14.6917  H     
15   H        19.0564    4.1246   15.0390  H     
@<TRIPOS>BOND
     1    1    2 1
     2    1    6 2
     3    1    7 1
     4    2    3 2
     5    3    4 1
     6    4    5 2
     7    5    6 1
     8    6    8 1
     9    8    9 2
    10    8   10 1
    11    2   11 1
    12    3   12 1
    13    4   13 1
    14    5   14 1
    15    7   15 1
@<TRIPOS>PROPERTY_DATA
  Total_Score	| 3.4052
  Crash		| -0.6529
  Polar		| 3.0470
  FragIndex	| 1
  FragRMSD	| 0.079

