@<TRIPOS>MOLECULE
BindingDB_26194
 15 15 0 0 0
SMALL
NO_CHARGES


@<TRIPOS>ATOM
1    C        15.7358    5.4410   13.9705  C     
2    C        14.6859    4.5029   13.9955  C     
3    C        14.8760    3.2526   14.6160  C     
4    C        16.1139    2.9081   15.2133  C     
5    C        17.1598    3.8617   15.1571  C     
6    C        16.9739    5.1142   14.5441  C     
7    O        15.5534    6.6655   13.4132  O     
8    C        16.2866    1.6606   15.8715  C     
9    O        15.3637    0.6667   15.8112  O     
10   O        17.4718    1.3359   16.4278  O     
11   H        13.7825    4.7319   13.5769  H     
12   H        14.0887    2.6029   14.6469  H     
13   H        18.0722    3.6619   15.5773  H     
14   H        17.7361    5.7951   14.5322  H     
15   H        14.6086    6.8839   13.5570  H     
@<TRIPOS>BOND
     1    1    2 1
     2    1    6 2
     3    1    7 1
     4    2    3 2
     5    3    4 1
     6    4    5 2
     7    4    8 1
     8    5    6 1
     9    8    9 2
    10    8   10 1
    11    2   11 1
    12    3   12 1
    13    5   13 1
    14    6   14 1
    15    7   15 1
@<TRIPOS>PROPERTY_DATA
  Total_Score	| 3.9829
  Crash		| -0.5212
  Polar		| 3.1623
  FragIndex	| 1
  FragRMSD	| 0.072

