@<TRIPOS>MOLECULE
BindingDB_23435
 18 18 0 0 0
SMALL
NO_CHARGES


@<TRIPOS>ATOM
1    C        15.6537    5.4414   13.9513  C     
2    C        14.6186    4.4772   13.9921  C     
3    C        14.8258    3.2282   14.6146  C     
4    C        16.0750    2.8917   15.1928  C     
5    C        17.1016    3.8643   15.1439  C     
6    C        16.8946    5.1155   14.5335  C     
7    O        15.5721    6.6770   13.3434  O     
8    C        14.2949    7.2157   12.9641  C     
9    C        16.2926    1.6221   15.7980  C     
10   O        15.3942    0.6029   15.6913  O     
11   O        17.4547    1.3396   16.4334  O     
12   H        13.7088    4.6805   13.5690  H     
13   H        14.0552    2.5615   14.6380  H     
14   H        18.0227    3.6672   15.5431  H     
15   H        17.6630    5.7892   14.5061  H     
16   H        13.8601    6.6349   12.1482  H     
17   H        14.4398    8.2454   12.6112  H     
18   H        13.6077    7.2409   13.8117  H     
@<TRIPOS>BOND
     1    1    2 1
     2    1    6 2
     3    1    7 1
     4    2    3 2
     5    3    4 1
     6    4    5 2
     7    4    9 1
     8    5    6 1
     9    7    8 1
    10    9   10 2
    11    9   11 1
    12    2   12 1
    13    3   13 1
    14    5   14 1
    15    6   15 1
    16    8   16 1
    17    8   17 1
    18    8   18 1
@<TRIPOS>PROPERTY_DATA
  Total_Score	| 4.8281
  Crash		| -0.8064
  Polar		| 3.3226
  FragIndex	| 1
  FragRMSD	| 0.127

