@<TRIPOS>MOLECULE
BindingDB_50100861
 16 16 0 0 0
SMALL
NO_CHARGES


@<TRIPOS>ATOM
1    C        14.6981    4.4983   13.9855  C     
2    C        15.7441    5.4397   13.9631  C     
3    C        16.9904    5.1107   14.5309  C     
4    C        17.1780    3.8516   15.1361  C     
5    C        16.1297    2.9033   15.1870  C     
6    C        14.8857    3.2501   14.6104  C     
7    O        18.0125    5.9977   14.5087  O     
8    O        15.5587    6.6528   13.3823  O     
9    C        16.3054    1.6577   15.8449  C     
10   O        17.4799    1.3116   16.4063  O     
11   O        15.3612    0.6935   15.8840  O     
12   H        13.7907    4.7239   13.5700  H     
13   H        18.0929    3.6479   15.5440  H     
14   H        14.1124    2.5888   14.6335  H     
15   H        17.6764    6.7767   14.9993  H     
16   H        14.6677    6.9339   13.6626  H     
@<TRIPOS>BOND
     1    1    2 2
     2    1    6 1
     3    2    3 1
     4    2    8 1
     5    3    4 2
     6    3    7 1
     7    4    5 1
     8    5    6 2
     9    5    9 1
    10    9   10 2
    11    9   11 1
    12    1   12 1
    13    4   13 1
    14    6   14 1
    15    7   15 1
    16    8   16 1
@<TRIPOS>PROPERTY_DATA
  Total_Score	| 3.8418
  Crash		| -0.5530
  Polar		| 3.0190
  FragIndex	| 1
  FragRMSD	| 1.023

