@<TRIPOS>MOLECULE
BindingDB_50336490
 16 16 0 0 0
SMALL
NO_CHARGES


@<TRIPOS>ATOM
1    C        17.2557    3.8011   15.0893  C     
2    C        17.1043    5.0727   14.4955  C     
3    O        18.1485    5.9346   14.4034  O     
4    C        15.8557    5.4671   13.9829  C     
5    C        14.7620    4.5832   14.0420  C     
6    C        16.1642    2.9018   15.1719  C     
7    C        14.9197    3.3129   14.6346  C     
8    C        16.3158    1.6247   15.7796  C     
9    O        17.4479    1.2936   16.4453  O     
10   O        15.3809    0.6470   15.6799  O     
11   O        13.5523    4.9475   13.5405  O     
12   H        18.1743    3.5344   15.4581  H     
13   H        18.9476    5.4330   14.6695  H     
14   H        15.7459    6.3948   13.5623  H     
15   H        14.1107    2.6927   14.6870  H     
16   H        13.6528    5.8651   13.2100  H     
@<TRIPOS>BOND
     1    1    2 2
     2    1    6 1
     3    2    3 1
     4    2    4 1
     5    4    5 2
     6    5    7 1
     7    5   11 1
     8    6    7 2
     9    6    8 1
    10    8    9 2
    11    8   10 1
    12    1   12 1
    13    3   13 1
    14    4   14 1
    15    7   15 1
    16   11   16 1
@<TRIPOS>PROPERTY_DATA
  Total_Score	| 3.2418
  Crash		| -0.9505
  Polar		| 3.1300
  FragIndex	| 1
  FragRMSD	| 1.088

