@<TRIPOS>MOLECULE
BindingDB_50340087
 22 22 0 0 0
SMALL
NO_CHARGES


@<TRIPOS>ATOM
1    C        14.9183    3.4097   14.8043  C     
2    C        14.7914    4.5953   14.0642  C     
3    C        15.9105    5.4368   13.8692  C     
4    C        17.1642    5.0373   14.3844  C     
5    C        17.2956    3.8358   15.1042  C     
6    C        16.1718    3.0000   15.3250  C     
7    C        16.2836    1.8503   16.1323  C     
8    O        15.1746    1.3612   16.7504  O     
9    O        17.4799    1.2711   16.3843  O     
10   O        15.6578    6.6278   13.2260  O     
11   C        16.7477    7.3976   12.6985  C     
12   C        15.0946    0.2945   17.6968  C     
13   H        14.0905    2.8234   14.9347  H     
14   H        13.8773    4.8566   13.6722  H     
15   H        17.9838    5.6283   14.2619  H     
16   H        18.2172    3.5840   15.4604  H     
17   H        17.3174    7.8516   13.5124  H     
18   H        16.3358    8.1990   12.0898  H     
19   H        17.4129    6.7806   12.0920  H     
20   H        15.4469   -0.6447   17.2603  H     
21   H        14.0512    0.1825   18.0034  H     
22   H        15.6890    0.5330   18.5791  H     
@<TRIPOS>BOND
     1    1    2 2
     2    1    6 1
     3    2    3 1
     4    3    4 2
     5    3   10 1
     6    4    5 1
     7    5    6 2
     8    6    7 1
     9    7    8 1
    10    7    9 2
    11    8   12 1
    12   10   11 1
    13    1   13 1
    14    2   14 1
    15    4   15 1
    16    5   16 1
    17   11   17 1
    18   11   18 1
    19   11   19 1
    20   12   20 1
    21   12   21 1
    22   12   22 1
@<TRIPOS>PROPERTY_DATA
  Total_Score	| 4.7534
  Crash		| -0.6527
  Polar		| 2.0671
  FragIndex	| 1
  FragRMSD	| 1.040

