@<TRIPOS>MOLECULE
BindingDB_50303031
 53 55 0 0 0
SMALL
NO_CHARGES


@<TRIPOS>ATOM
1    C        -0.2876    8.8128   22.5987  C     
2    C        -0.4220    9.2560   21.1073  C     
3    C         0.0510    8.1643   20.0844  C     
4    S         1.4580    8.5170   22.9718  S     
5    C         2.1941    8.0271   21.4858  C     
6    C         1.5303    7.9297   20.2492  C     
7    C         2.3820    7.4676   19.2216  C     
8    C         3.6930    7.1788   19.6204  C     
9    S         3.8183    7.5159   21.2985  S     
10   N        -0.8037    6.9578   20.1114  N     
11   C        -0.8962    9.8354   23.5935  C     
12   S         4.9625    6.4933   18.6616  S     
13   N         6.1132    5.7298   19.6152  N     
14   O         4.3041    5.3136   17.8276  O     
15   O         5.6292    7.5467   17.6765  O     
16   O         1.6226    7.3721   24.0679  O     
17   O         2.2105    9.8456   23.4343  O     
18   C        -0.3265    5.7331   20.7691  C     
19   C         0.2256    4.7030   19.7603  C     
20   C        -2.0650    6.9567   19.6039  C     
21   C        -2.6848    8.0023   18.9446  C     
22   O        -2.8043    5.9824   19.7081  O     
23   C        -3.5385    8.8882   19.6403  C     
24   C        -4.0913   10.0063   18.9735  C     
25   C        -3.8231   10.2442   17.6153  C     
26   C        -3.0253    9.2976   16.9012  C     
27   C        -2.4491    8.1985   17.5636  C     
28   C        -4.3312   11.4667   16.9411  C     
29   O        -5.7337   11.8012   17.1444  O     
30   N        -6.5435   10.8533   17.4393  N     
31   O        -6.6075    9.8345   16.8601  O     
32   O        -7.3798   11.0575   18.3749  O     
33   H        -0.8315    7.8683   22.7366  H     
34   H        -1.4671    9.5054   20.9323  H     
35   H         0.1494   10.1825   20.9512  H     
36   H        -0.0396    8.6200   19.0987  H     
37   H         2.0566    7.3092   18.2640  H     
38   H        -0.4030   10.8048   23.5054  H     
39   H        -0.7790    9.4678   24.6149  H     
40   H        -1.9646    9.9697   23.3914  H     
41   H         6.5118    4.9018   19.3015  H     
42   H         6.1484    5.9367   20.5653  H     
43   H         0.4621    5.9078   21.5049  H     
44   H        -1.1369    5.2700   21.3390  H     
45   H        -0.5471    4.4061   19.0363  H     
46   H         0.5613    3.8063   20.2960  H     
47   H         1.0796    5.1229   19.2111  H     
48   H        -3.7522    8.7385   20.6228  H     
49   H        -4.6619   10.6614   19.5136  H     
50   H        -2.8427    9.4311   15.9046  H     
51   H        -1.8733    7.5510   17.0272  H     
52   H        -3.7526   12.3222   17.3088  H     
53   H        -4.1559   11.4172   15.8631  H     
@<TRIPOS>BOND
     1    1    2 1
     2    1    4 1
     3    1   11 1
     4    2    3 1
     5    3    6 1
     6    3   10 1
     7    4    5 1
     8    4   16 2
     9    4   17 2
    10    5    6 2
    11    5    9 1
    12    6    7 1
    13    7    8 2
    14    8    9 1
    15    8   12 1
    16   10   18 1
    17   10   20 am
    18   12   13 am
    19   12   14 2
    20   12   15 2
    21   18   19 1
    22   20   21 1
    23   20   22 2
    24   21   23 2
    25   21   27 1
    26   23   24 1
    27   24   25 2
    28   25   26 1
    29   25   28 1
    30   26   27 2
    31   28   29 1
    32   29   30 1
    33   30   31 2
    34   30   32 1
    35    1   33 1
    36    2   34 1
    37    2   35 1
    38    3   36 1
    39    7   37 1
    40   11   38 1
    41   11   39 1
    42   11   40 1
    43   13   41 1
    44   13   42 1
    45   18   43 1
    46   18   44 1
    47   19   45 1
    48   19   46 1
    49   19   47 1
    50   23   48 1
    51   24   49 1
    52   26   50 1
    53   27   51 1
    54   28   52 1
    55   28   53 1
@<TRIPOS>PROPERTY_DATA
  Total_Score	| 7.6906
  Crash		| -1.1509
  Polar		| 3.8925
  FragIndex	| 1
  FragRMSD	| 1.104

