@<TRIPOS>MOLECULE
BindingDB_50303033
 53 54 0 0 0
SMALL
NO_CHARGES


@<TRIPOS>ATOM
1    C         0.1823    9.5757   22.5193  C     
2    C        -0.4826    8.7783   21.3642  C     
3    C         0.3316    8.5575   20.0304  C     
4    S         1.6838    8.6937   23.0149  S     
5    C         2.4202    8.2791   21.5159  C     
6    C         1.8086    8.3483   20.2528  C     
7    C         2.6964    8.0034   19.2065  C     
8    C         3.9080    7.4493   19.6341  C     
9    S         3.9798    7.5838   21.3463  S     
10   N        -0.3773    7.5273   19.2232  N     
11   C         0.4682   11.0608   22.1773  C     
12   S         5.0376    6.5491   18.6804  S     
13   N         6.1536    5.7511   19.6439  N     
14   O         4.2415    5.3573   17.9914  O     
15   O         5.7248    7.4576   17.5768  O     
16   O         1.2947    7.3400   23.7575  O     
17   O         2.6654    9.5762   23.9061  O     
18   C        -1.8026    7.7686   18.9649  C     
19   C        -2.5611    6.9280   17.9035  C     
20   C         0.1631    6.2882   18.9296  C     
21   O        -0.5302    5.3202   18.2666  O     
22   O         1.4065    5.9043   19.3360  O     
23   C        -0.0655    4.0021   17.9191  C     
24   C        -0.5492    2.9419   18.9379  C     
25   C        -0.5166    3.3270   20.4482  C     
26   C        -1.3617    4.5749   20.8484  C     
27   O        -2.3122    4.2885   21.8874  O     
28   N        -2.9717    5.3348   22.2199  N     
29   O        -2.4957    6.1396   22.9109  O     
30   O        -4.2264    5.3446   22.0565  O     
31   H        -0.5007    9.5640   23.3736  H     
32   H        -0.7357    7.7873   21.7723  H     
33   H        -1.4387    9.2631   21.1345  H     
34   H         0.2990    9.4992   19.4687  H     
35   H         2.4048    7.9681   18.2283  H     
36   H         1.1923   11.1461   21.3674  H     
37   H         0.8571   11.5836   23.0471  H     
38   H        -0.4537   11.5477   21.8664  H     
39   H         6.2401    6.0154   20.5647  H     
40   H         6.4430    4.8677   19.3893  H     
41   H        -2.3422    7.6721   19.9169  H     
42   H        -1.9369    8.8111   18.6298  H     
43   H        -1.9757    6.8396   16.9947  H     
44   H        -3.5094    7.4309   17.6610  H     
45   H        -2.8042    5.9276   18.2603  H     
46   H        -0.4801    3.7633   16.9306  H     
47   H         1.0288    3.9500   17.8377  H     
48   H        -1.5623    2.6415   18.6642  H     
49   H         0.0928    2.0706   18.8082  H     
50   H        -0.8877    2.4637   20.9993  H     
51   H         0.5214    3.4707   20.7578  H     
52   H        -0.6838    5.3571   21.1937  H     
53   H        -1.9075    4.9414   19.9772  H     
@<TRIPOS>BOND
     1    1    2 1
     2    1    4 1
     3    1   11 1
     4    2    3 1
     5    3    6 1
     6    3   10 1
     7    4    5 1
     8    4   16 2
     9    4   17 2
    10    5    6 2
    11    5    9 1
    12    6    7 1
    13    7    8 2
    14    8    9 1
    15    8   12 1
    16   10   18 1
    17   10   20 am
    18   12   13 am
    19   12   14 2
    20   12   15 2
    21   18   19 1
    22   20   21 1
    23   20   22 2
    24   21   23 1
    25   23   24 1
    26   24   25 1
    27   25   26 1
    28   26   27 1
    29   27   28 1
    30   28   29 2
    31   28   30 1
    32    1   31 1
    33    2   32 1
    34    2   33 1
    35    3   34 1
    36    7   35 1
    37   11   36 1
    38   11   37 1
    39   11   38 1
    40   13   39 1
    41   13   40 1
    42   18   41 1
    43   18   42 1
    44   19   43 1
    45   19   44 1
    46   19   45 1
    47   23   46 1
    48   23   47 1
    49   24   48 1
    50   24   49 1
    51   25   50 1
    52   25   51 1
    53   26   52 1
    54   26   53 1
@<TRIPOS>PROPERTY_DATA
  Total_Score	| 7.6216
  Crash		| -3.1670
  Polar		| 5.0258
  FragIndex	| 1
  FragRMSD	| 1.150

