@<TRIPOS>MOLECULE
BindingDB_10884
 36 37 0 0 0
SMALL
NO_CHARGES


@<TRIPOS>ATOM
1    C        -0.6086    9.1819   21.3046  C     
2    C         0.1748    9.8915   22.4509  C     
3    S         1.4889    8.7760   23.0122  S     
4    O         2.6007    9.4874   23.9010  O     
5    O         0.8557    7.5502   23.8058  O     
6    C         0.7497   11.2726   22.0460  C     
7    C         0.2145    8.8006   20.0212  C     
8    N        -0.5128    7.8051   19.1849  N     
9    C        -1.9623    7.9915   18.9545  C     
10   C        -2.5223    6.8228   18.1149  C     
11   C         1.5783    8.2468   20.2818  C     
12   C         2.4291    7.7573   19.2603  C     
13   C         2.1771    8.1704   21.5491  C     
14   S         3.7273    7.4506   21.3950  S     
15   C         3.6550    7.2389   19.6935  C     
16   S         4.8999    6.5190   18.7194  S     
17   O         4.3054    5.3545   17.8185  O     
18   O         5.5576    7.6414   17.8083  O     
19   N         6.1008    5.8237   19.6645  N     
20   H        -1.0552    8.2736   21.7146  H     
21   H        -1.4433    9.8303   21.0119  H     
22   H        -0.5010   10.0529   23.2978  H     
23   H         1.5165   11.1536   21.2792  H     
24   H         1.1967   11.7674   22.9091  H     
25   H        -0.0416   11.9143   21.6560  H     
26   H         0.3479    9.7087   19.4313  H     
27   H        -0.0845    7.8151   18.2553  H     
28   H        -0.3850    6.8760   19.5902  H     
29   H        -2.4944    8.0235   19.9105  H     
30   H        -2.1308    8.9244   18.4104  H     
31   H        -2.0413    6.7868   17.1323  H     
32   H        -3.5989    6.9608   17.9605  H     
33   H        -2.3587    5.8716   18.6258  H     
34   H         2.1726    7.7615   18.2687  H     
35   H         6.9481    5.5793   19.2625  H     
36   H         5.9733    5.7269   20.6226  H     
@<TRIPOS>BOND
     1    1    2 1
     2    1    7 1
     3    2    3 1
     4    2    6 1
     5    3    4 2
     6    3    5 2
     7    3   13 1
     8    7    8 1
     9    7   11 1
    10    8    9 1
    11    9   10 1
    12   11   12 1
    13   11   13 2
    14   12   15 2
    15   13   14 1
    16   14   15 1
    17   15   16 1
    18   16   17 2
    19   16   18 2
    20   16   19 am
    21    1   20 1
    22    1   21 1
    23    2   22 1
    24    6   23 1
    25    6   24 1
    26    6   25 1
    27    7   26 1
    28    8   27 1
    29    8   28 1
    30    9   29 1
    31    9   30 1
    32   10   31 1
    33   10   32 1
    34   10   33 1
    35   12   34 1
    36   19   35 1
    37   19   36 1
@<TRIPOS>PROPERTY_DATA
  Total_Score	| 5.0224
  Crash		| -1.1395
  Polar		| 3.9290
  FragIndex	| 1
  FragRMSD	| 1.184

