@<TRIPOS>MOLECULE
BindingDB_50303030
 55 56 0 0 0
SMALL
NO_CHARGES


@<TRIPOS>ATOM
1    C        -0.4016    8.9964   22.5052  C     
2    C        -0.4579    9.6662   21.1033  C     
3    C         0.1117    8.8152   19.9132  C     
4    S         1.3276    8.7083   22.9433  S     
5    C         2.0720    8.2125   21.4679  C     
6    C         1.5027    8.2980   20.1880  C     
7    C         2.3538    7.7690   19.1892  C     
8    C         3.5757    7.2683   19.6524  C     
9    S         3.6190    7.4860   21.3534  S     
10   N        -0.8350    7.8102   19.3787  N     
11   C        -1.1105    9.8378   23.5947  C     
12   S         4.8351    6.5151   18.7347  S     
13   N         5.9762    5.7751   19.7149  N     
14   O         4.1928    5.3030   17.9365  O     
15   O         5.5410    7.5138   17.7202  O     
16   O         1.4753    7.5699   24.0468  O     
17   O         2.0525   10.0472   23.4069  O     
18   C        -0.6592    6.3934   19.7079  C     
19   C        -1.9086    5.7195   20.3276  C     
20   C        -1.7987    8.1421   18.4793  C     
21   C        -2.5232    9.4142   18.4960  C     
22   O        -2.2309    7.2867   17.7097  O     
23   C        -3.7013    9.6389   17.5069  C     
24   C        -4.6671   10.8055   17.9011  C     
25   C        -4.0710   12.2477   17.9104  C     
26   C        -3.2859   12.6455   19.1902  C     
27   O        -2.1467   13.4643   18.8444  O     
28   N        -1.1112   13.3953   19.5969  N     
29   O        -0.0734   13.5449   19.0837  O     
30   O        -1.1274   13.1497   20.8501  O     
31   H        -0.8988    8.0263   22.4471  H     
32   H        -1.4880    9.9496   20.9095  H     
33   H         0.1055   10.6062   21.1487  H     
34   H         0.2882    9.5429   19.1135  H     
35   H         2.0873    7.7278   18.2064  H     
36   H        -0.6568   10.8304   23.6749  H     
37   H        -1.0332    9.3356   24.5632  H     
38   H        -2.1673    9.9534   23.3491  H     
39   H         6.2481    4.8678   19.5236  H     
40   H         6.1372    6.1386   20.5989  H     
41   H        -0.3716    5.8420   18.8063  H     
42   H         0.1403    6.2278   20.4373  H     
43   H        -2.2010    6.2272   21.2482  H     
44   H        -1.6742    4.6761   20.5637  H     
45   H        -2.7575    5.7309   19.6359  H     
46   H        -2.9609    9.4800   19.4929  H     
47   H        -1.8193   10.2332   18.3507  H     
48   H        -3.3035    9.8135   16.5024  H     
49   H        -4.3073    8.7298   17.4637  H     
50   H        -5.4932   10.7945   17.1823  H     
51   H        -5.1063   10.5900   18.8795  H     
52   H        -3.4327   12.3497   17.0311  H     
53   H        -4.8924   12.9632   17.7792  H     
54   H        -3.9339   13.2090   19.8670  H     
55   H        -2.9599   11.7577   19.7261  H     
@<TRIPOS>BOND
     1    1    2 1
     2    1    4 1
     3    1   11 1
     4    2    3 1
     5    3    6 1
     6    3   10 1
     7    4    5 1
     8    4   16 2
     9    4   17 2
    10    5    6 2
    11    5    9 1
    12    6    7 1
    13    7    8 2
    14    8    9 1
    15    8   12 1
    16   10   18 1
    17   10   20 am
    18   12   13 am
    19   12   14 2
    20   12   15 2
    21   18   19 1
    22   20   21 1
    23   20   22 2
    24   21   23 1
    25   23   24 1
    26   24   25 1
    27   25   26 1
    28   26   27 1
    29   27   28 1
    30   28   29 2
    31   28   30 1
    32    1   31 1
    33    2   32 1
    34    2   33 1
    35    3   34 1
    36    7   35 1
    37   11   36 1
    38   11   37 1
    39   11   38 1
    40   13   39 1
    41   13   40 1
    42   18   41 1
    43   18   42 1
    44   19   43 1
    45   19   44 1
    46   19   45 1
    47   21   46 1
    48   21   47 1
    49   23   48 1
    50   23   49 1
    51   24   50 1
    52   24   51 1
    53   25   52 1
    54   25   53 1
    55   26   54 1
    56   26   55 1
@<TRIPOS>PROPERTY_DATA
  Total_Score	| 7.2687
  Crash		| -1.1133
  Polar		| 5.4520
  FragIndex	| 1
  FragRMSD	| 1.023

