@<TRIPOS>MOLECULE
BindingDB_50303032
 50 51 0 0 0
SMALL
NO_CHARGES


@<TRIPOS>ATOM
1    C        -0.2822    9.1421   22.4382  C     
2    C        -0.2394    9.8646   21.0618  C     
3    C         0.2537    8.9542   19.8861  C     
4    S         1.4001    8.6842   22.9125  S     
5    C         2.1464    8.1998   21.4334  C     
6    C         1.6069    8.3612   20.1414  C     
7    C         2.4272    7.8122   19.1343  C     
8    C         3.6197    7.2417   19.5946  C     
9    S         3.6628    7.4078   21.3045  S     
10   N        -0.8247    8.0309   19.4565  N     
11   C        -0.9367   10.0058   23.5459  C     
12   S         4.8767    6.4803   18.6804  S     
13   N         6.0045    5.6818   19.6391  N     
14   O         4.2316    5.3265   17.8020  O     
15   O         5.6218    7.4957   17.7140  O     
16   O         1.4342    7.4584   23.9261  O     
17   O         2.2212    9.9143   23.4940  O     
18   C        -1.9737    8.6446   18.7886  C     
19   C        -2.7812    7.8085   17.7511  C     
20   C        -0.8616    6.6931   19.7804  C     
21   O         0.1583    6.0936   20.4364  O     
22   O        -1.9007    5.9018   19.4056  O     
23   C         0.5407    4.7430   20.7330  C     
24   C        -0.5703    3.6986   21.0202  C     
25   C        -0.7811    2.6417   19.9061  C     
26   O        -1.5521    3.1451   18.8086  O     
27   N        -0.8971    3.3726   17.7260  N     
28   O        -1.2376    2.8053   16.7650  O     
29   O        -0.3881    4.5201   17.5310  O     
30   H        -0.8690    8.2248   22.3517  H     
31   H        -1.2264   10.2648   20.8406  H     
32   H         0.4300   10.7265   21.1438  H     
33   H         0.4455    9.6409   19.0616  H     
34   H         2.1916    7.8475   18.1417  H     
35   H        -0.3906   10.9450   23.6890  H     
36   H        -0.9507    9.4621   24.4975  H     
37   H        -1.9701   10.2429   23.2739  H     
38   H         6.2692    4.7745   19.4077  H     
39   H         6.1935    6.0165   20.5321  H     
40   H        -2.6799    8.9949   19.5657  H     
41   H        -1.6670    9.5462   18.2275  H     
42   H        -2.1133    7.3354   17.0242  H     
43   H        -3.4623    8.5004   17.2252  H     
44   H        -3.3871    7.0445   18.2343  H     
45   H         1.1714    4.3977   19.9097  H     
46   H         1.1969    4.8177   21.6049  H     
47   H        -0.3052    3.1429   21.9307  H     
48   H        -1.5125    4.2154   21.2367  H     
49   H         0.1895    2.2452   19.5982  H     
50   H        -1.3404    1.8194   20.3538  H     
@<TRIPOS>BOND
     1    1    2 1
     2    1    4 1
     3    1   11 1
     4    2    3 1
     5    3    6 1
     6    3   10 1
     7    4    5 1
     8    4   16 2
     9    4   17 2
    10    5    6 2
    11    5    9 1
    12    6    7 1
    13    7    8 2
    14    8    9 1
    15    8   12 1
    16   10   18 1
    17   10   20 am
    18   12   13 am
    19   12   14 2
    20   12   15 2
    21   18   19 1
    22   20   21 1
    23   20   22 2
    24   21   23 1
    25   23   24 1
    26   24   25 1
    27   25   26 1
    28   26   27 1
    29   27   28 2
    30   27   29 1
    31    1   30 1
    32    2   31 1
    33    2   32 1
    34    3   33 1
    35    7   34 1
    36   11   35 1
    37   11   36 1
    38   11   37 1
    39   13   38 1
    40   13   39 1
    41   18   40 1
    42   18   41 1
    43   19   42 1
    44   19   43 1
    45   19   44 1
    46   23   45 1
    47   23   46 1
    48   24   47 1
    49   24   48 1
    50   25   49 1
    51   25   50 1
@<TRIPOS>PROPERTY_DATA
  Total_Score	| 7.0266
  Crash		| -2.5084
  Polar		| 3.7236
  FragIndex	| 1
  FragRMSD	| 1.117

