@<TRIPOS>MOLECULE
BindingDB_50303034
 53 54 0 0 0
SMALL
NO_CHARGES


@<TRIPOS>ATOM
1    C        -0.2228    9.3671   22.3124  C     
2    C        -0.0719   10.1323   20.9672  C     
3    C         0.3936    9.2125   19.7840  C     
4    S         1.4153    8.8086   22.8425  S     
5    C         2.2186    8.3561   21.3767  C     
6    C         1.7385    8.5982   20.0824  C     
7    C         2.5571    8.0163   19.0935  C     
8    C         3.6833    7.3381   19.5672  C     
9    S         3.6815    7.4551   21.2794  S     
10   N        -0.6540    8.2835   19.3026  N     
11   C        -0.9079   10.2063   23.4207  C     
12   S         4.8658    6.4883   18.6418  S     
13   N         6.0350    5.6953   19.5568  N     
14   O         4.1897    5.3021   17.8419  O     
15   O         5.6055    7.3981   17.5694  O     
16   O         1.3568    7.5856   23.8649  O     
17   O         2.2610   10.0099   23.4574  O     
18   C        -1.8662    8.8626   18.7092  C     
19   C        -2.7703    8.0337   17.7556  C     
20   C        -0.5015    6.9358   19.3935  C     
21   O         0.1881    6.4155   20.4515  O     
22   O        -1.1028    6.0612   18.5289  O     
23   C         0.3470    5.0506   20.7820  C     
24   C        -1.0709    4.4126   20.9214  C     
25   C        -0.9720    2.8627   21.1262  C     
26   O        -1.7209    5.0781   22.0390  O     
27   N        -2.7667    5.7679   21.7457  N     
28   O        -3.8224    5.3187   21.9937  O     
29   O        -2.6728    7.0406   21.7438  O     
30   O        -0.6382    2.0846   19.9627  O     
31   N        -0.6898    2.6928   18.8043  N     
32   O        -1.7523    2.9828   18.3912  O     
33   O         0.2591    2.5233   17.9557  O     
34   H        -0.8404    8.4793   22.1591  H     
35   H        -1.0094   10.6378   20.7352  H     
36   H         0.6613   10.9248   21.0981  H     
37   H         0.6014    9.8896   18.9574  H     
38   H         2.3346    8.0692   18.0947  H     
39   H        -0.3467   11.1211   23.6274  H     
40   H        -0.9861    9.6241   24.3496  H     
41   H        -1.9260   10.4838   23.1117  H     
42   H         5.9654    4.7307   19.7066  H     
43   H         6.6387    6.2196   20.1127  H     
44   H        -2.5369    9.1240   19.5317  H     
45   H        -1.6002    9.7938   18.1944  H     
46   H        -2.2473    7.8308   16.8252  H     
47   H        -3.6570    8.6108   17.4896  H     
48   H        -3.0125    7.0886   18.2660  H     
49   H         0.9444    4.5724   20.0025  H     
50   H         0.8916    4.9850   21.7217  H     
51   H        -1.6625    4.5509   19.9887  H     
52   H        -0.2815    2.6091   21.9430  H     
53   H        -1.9672    2.4878   21.4098  H     
@<TRIPOS>BOND
     1    1    2 1
     2    1    4 1
     3    1   11 1
     4    2    3 1
     5    3    6 1
     6    3   10 1
     7    4    5 1
     8    4   16 2
     9    4   17 2
    10    5    6 2
    11    5    9 1
    12    6    7 1
    13    7    8 2
    14    8    9 1
    15    8   12 1
    16   10   18 1
    17   10   20 am
    18   12   13 am
    19   12   14 2
    20   12   15 2
    21   18   19 1
    22   20   21 1
    23   20   22 2
    24   21   23 1
    25   23   24 1
    26   24   25 1
    27   24   26 1
    28   25   30 1
    29   26   27 1
    30   27   28 2
    31   27   29 1
    32   30   31 1
    33   31   32 2
    34   31   33 1
    35    1   34 1
    36    2   35 1
    37    2   36 1
    38    3   37 1
    39    7   38 1
    40   11   39 1
    41   11   40 1
    42   11   41 1
    43   13   42 1
    44   13   43 1
    45   18   44 1
    46   18   45 1
    47   19   46 1
    48   19   47 1
    49   19   48 1
    50   23   49 1
    51   23   50 1
    52   24   51 1
    53   25   52 1
    54   25   53 1
@<TRIPOS>PROPERTY_DATA
  Total_Score	| 7.9538
  Crash		| -3.4245
  Polar		| 6.2726
  FragIndex	| 1
  FragRMSD	| 1.178

