@<TRIPOS>MOLECULE
BindingDB_13054
 36 37 0 0 0
SMALL
NO_CHARGES


@<TRIPOS>ATOM
1    C         0.0895    7.8434   20.5411  C     
2    C        -0.3258    9.2632   21.0484  C     
3    C        -0.0029    9.5282   22.5570  C     
4    S         1.7060    9.0610   22.9675  S     
5    O         1.8647    8.2645   24.3352  O     
6    O         2.5872   10.3830   23.0249  O     
7    C        -1.0127    8.8655   23.5285  C     
8    N        -0.5082    7.5218   19.2127  N     
9    C        -1.9749    7.3043   19.1410  C     
10   C        -2.4481    7.1797   17.6803  C     
11   C         1.5764    7.7026   20.5505  C     
12   C         2.3340    8.1228   21.6540  C     
13   C         2.3727    7.1217   19.5380  C     
14   S         3.9873    7.7462   21.3748  S     
15   C         3.7386    7.0542   19.8227  C     
16   N         6.1566    5.6148   19.6613  N     
17   S         4.9777    6.4280   18.7909  S     
18   O         4.3085    5.3185   17.8744  O     
19   O         5.5956    7.5439   17.8438  O     
20   H        -0.2768    7.0973   21.2509  H     
21   H         0.1885   10.0128   20.4392  H     
22   H        -1.3954    9.4133   20.8921  H     
23   H        -0.0856   10.6071   22.7208  H     
24   H        -2.0287    9.1768   23.2842  H     
25   H        -0.8019    9.1728   24.5545  H     
26   H        -0.9561    7.7779   23.4726  H     
27   H        -0.2422    8.2434   18.5387  H     
28   H        -0.0899    6.6479   18.8934  H     
29   H        -2.2073    6.3642   19.6559  H     
30   H        -2.5427    8.1026   19.6330  H     
31   H        -2.2907    8.1208   17.1508  H     
32   H        -3.5095    6.9418   17.6543  H     
33   H        -1.8975    6.3857   17.1735  H     
34   H         1.9954    6.7669   18.6590  H     
35   H         6.4303    4.7329   19.3675  H     
36   H         6.3279    5.8781   20.5779  H     
@<TRIPOS>BOND
     1    1    2 1
     2    1    8 1
     3    1   11 1
     4    2    3 1
     5    3    4 1
     6    3    7 1
     7    4    5 2
     8    4    6 2
     9    4   12 1
    10    8    9 1
    11    9   10 1
    12   11   12 2
    13   11   13 1
    14   12   14 1
    15   13   15 2
    16   14   15 1
    17   15   17 1
    18   16   17 am
    19   17   18 2
    20   17   19 2
    21    1   20 1
    22    2   21 1
    23    2   22 1
    24    3   23 1
    25    7   24 1
    26    7   25 1
    27    7   26 1
    28    8   27 1
    29    8   28 1
    30    9   29 1
    31    9   30 1
    32   10   31 1
    33   10   32 1
    34   10   33 1
    35   13   34 1
    36   16   35 1
    37   16   36 1
@<TRIPOS>PROPERTY_DATA
  Total_Score	| 4.5714
  Crash		| -1.1642
  Polar		| 3.5909
  FragIndex	| 1
  FragRMSD	| 1.141

