@<TRIPOS>MOLECULE
BindingDB_10885
 45 46 0 0 0
SMALL
NO_CHARGES


@<TRIPOS>ATOM
1    C         0.0875    8.4460   20.3029  C     
2    C        -0.7140    8.0844   21.5973  C     
3    S         1.4386    8.5943   23.1039  S     
4    O         2.0185   10.0372   23.4549  O     
5    O         1.8450    7.4851   24.1756  O     
6    N        -0.2331    8.6903   22.8301  N     
7    C        -1.1457    8.7903   23.9534  C     
8    C        -0.7365    9.5708   25.2479  C     
9    C         0.0779    8.7988   26.3237  C     
10   O        -0.1593    7.3791   26.2773  O     
11   C        -0.8023    6.8008   27.4124  C     
12   N        -0.6293    7.9712   19.0795  N     
13   C        -0.7619    6.5103   18.8251  C     
14   C        -2.0720    6.1864   18.0811  C     
15   C         1.5249    8.0492   20.3945  C     
16   C         2.3505    7.5854   19.3482  C     
17   C         2.1934    8.1264   21.6226  C     
18   S         3.7981    7.5371   21.4179  S     
19   C         3.6474    7.2269   19.7332  C     
20   S         4.8851    6.5203   18.7443  S     
21   O         4.2076    5.3289   17.9339  O     
22   O         5.4979    7.5709   17.7212  O     
23   N         6.0806    5.7760   19.6469  N     
24   H         0.0777    9.5387   20.2334  H     
25   H        -1.7541    8.3763   21.4233  H     
26   H        -0.7034    6.9981   21.7336  H     
27   H        -2.0516    9.2907   23.5985  H     
28   H        -1.4440    7.7844   24.2342  H     
29   H        -0.1969   10.4751   24.9664  H     
30   H        -1.6641    9.8876   25.7365  H     
31   H         1.1402    8.9502   26.1416  H     
32   H        -0.1165    9.2227   27.3119  H     
33   H        -0.1443    6.8724   28.2853  H     
34   H        -0.9790    5.7462   27.2040  H     
35   H        -1.7595    7.2882   27.6299  H     
36   H        -1.5725    8.3686   19.1217  H     
37   H        -0.1605    8.3751   18.2741  H     
38   H         0.0784    6.1879   18.2007  H     
39   H        -0.7342    5.9369   19.7493  H     
40   H        -2.9287    6.4852   18.6896  H     
41   H        -2.1350    5.1122   17.8894  H     
42   H        -2.1068    6.7170   17.1253  H     
43   H         2.0298    7.4860   18.3829  H     
44   H         6.5205    4.9851   19.2996  H     
45   H         6.1531    5.9794   20.5941  H     
@<TRIPOS>BOND
     1    1    2 1
     2    1   12 1
     3    1   15 1
     4    2    6 1
     5    3    4 2
     6    3    5 2
     7    3    6 1
     8    3   17 1
     9    6    7 1
    10    7    8 1
    11    8    9 1
    12    9   10 1
    13   10   11 1
    14   12   13 1
    15   13   14 1
    16   15   16 1
    17   15   17 2
    18   16   19 2
    19   17   18 1
    20   18   19 1
    21   19   20 1
    22   20   21 2
    23   20   22 2
    24   20   23 am
    25    1   24 1
    26    2   25 1
    27    2   26 1
    28    7   27 1
    29    7   28 1
    30    8   29 1
    31    8   30 1
    32    9   31 1
    33    9   32 1
    34   11   33 1
    35   11   34 1
    36   11   35 1
    37   12   36 1
    38   12   37 1
    39   13   38 1
    40   13   39 1
    41   14   40 1
    42   14   41 1
    43   14   42 1
    44   16   43 1
    45   23   44 1
    46   23   45 1
@<TRIPOS>PROPERTY_DATA
  Total_Score	| 6.5949
  Crash		| -0.8926
  Polar		| 5.2220
  FragIndex	| 1
  FragRMSD	| 1.079

