@<TRIPOS>MOLECULE
BindingDB_26369
 74 78 0 0 0
SMALL
NO_CHARGES


@<TRIPOS>ATOM
1    C        34.3407   34.9207   13.9462  C     
2    C        32.4277   36.9466   14.5764  C     
3    C        33.5737   36.7513   15.4096  C     
4    C        34.4921   35.7166   15.1005  C     
5    C        33.1850   35.0957   13.1549  C     
6    C        32.2399   36.0859   13.4677  C     
7    C        31.3951   37.9873   14.8448  C     
8    C        33.8236   37.5567   16.5036  C     
9    O        33.9734   37.0456   17.6109  O     
10   N        33.9257   38.8722   16.3288  N     
11   C        33.9593   39.8244   17.2939  C     
12   C        33.9515   41.8956   19.1553  C     
13   C        35.0147   40.7537   17.3634  C     
14   C        32.8782   40.0092   18.1844  C     
15   N        32.9006   41.0309   19.0792  N     
16   N        34.9917   41.7381   18.2976  N     
17   N        33.9957   42.8986   20.0598  N     
18   C        32.9737   43.2325   20.8802  C     
19   C        31.8404   43.8851   20.3550  C     
20   C        30.7680   44.2219   21.1958  C     
21   C        30.7700   43.9023   22.5839  C     
22   C        31.9254   43.2344   23.0794  C     
23   C        33.0155   42.9183   22.2493  C     
24   C        28.8870   45.4060   23.2217  C     
25   C        27.4183   45.0166   22.9290  C     
26   C        27.7765   42.9102   24.1845  C     
27   C        29.2425   43.3362   24.4662  C     
28   N        29.7037   44.2127   23.3976  N     
29   N        26.8976   44.1051   23.9920  N     
30   C        25.4712   43.7407   23.7743  C     
31   N        35.3052   33.9970   13.6449  N     
32   C        35.6338   33.5002   12.4525  C     
33   O        35.1615   33.9754   11.4242  O     
34   C        36.5716   32.4745   12.3496  C     
35   C        37.5792   32.4858   11.3511  C     
36   C        38.5178   31.4318   11.2233  C     
37   C        38.4330   30.3442   12.1240  C     
38   C        37.4387   30.3114   13.1134  C     
39   C        36.5190   31.3638   13.2235  C     
40   C        39.5680   31.5056   10.1656  C     
41   F        40.3295   30.3693   10.0451  F     
42   F        38.9928   31.7218    8.9366  F     
43   F        40.4233   32.5448   10.4402  F     
44   H        35.3129   35.5609   15.6974  H     
45   H        33.0019   34.4881   12.3541  H     
46   H        31.4127   36.1727   12.8690  H     
47   H        31.0089   37.8765   15.8635  H     
48   H        30.5433   37.9283   14.1576  H     
49   H        31.8343   38.9804   14.7354  H     
50   H        33.9373   39.1898   15.4125  H     
51   H        35.8085   40.6889   16.7285  H     
52   H        32.0613   39.3926   18.1533  H     
53   H        34.8099   43.4269   20.1163  H     
54   H        31.7869   44.1051   19.3578  H     
55   H        29.9491   44.6500   20.7595  H     
56   H        32.0155   43.0027   24.0695  H     
57   H        33.8342   42.4469   22.6408  H     
58   H        29.2394   46.0772   22.4379  H     
59   H        28.9197   45.9889   24.1472  H     
60   H        26.8163   45.9287   22.8947  H     
61   H        27.3644   44.5333   21.9488  H     
62   H        27.7580   42.2775   23.2913  H     
63   H        27.4172   42.3169   25.0285  H     
64   H        29.2962   43.8629   25.4244  H     
65   H        29.8225   42.4172   24.5662  H     
66   H        26.9284   44.6316   24.8684  H     
67   H        24.8517   44.6406   23.7788  H     
68   H        25.1137   43.0929   24.5779  H     
69   H        25.3330   43.2262   22.8200  H     
70   H        35.8947   33.7472   14.3745  H     
71   H        37.6417   33.2811   10.7086  H     
72   H        39.0940   29.5668   12.0785  H     
73   H        37.3794   29.5173   13.7562  H     
74   H        35.7917   31.2969   13.9382  H     
@<TRIPOS>BOND
     1    1    4 2
     2    1    5 1
     3    1   31 1
     4    2    3 2
     5    2    6 1
     6    2    7 1
     7    3    4 1
     8    3    8 1
     9    5    6 2
    10    8    9 2
    11    8   10 am
    12   10   11 1
    13   11   13 2
    14   11   14 1
    15   12   15 1
    16   12   16 2
    17   12   17 1
    18   13   16 1
    19   14   15 2
    20   17   18 1
    21   18   19 1
    22   18   23 2
    23   19   20 2
    24   20   21 1
    25   21   22 2
    26   21   28 1
    27   22   23 1
    28   24   25 1
    29   24   28 1
    30   25   29 1
    31   26   27 1
    32   26   29 1
    33   27   28 1
    34   29   30 1
    35   31   32 am
    36   32   33 2
    37   32   34 1
    38   34   35 2
    39   34   39 1
    40   35   36 1
    41   36   37 2
    42   36   40 1
    43   37   38 1
    44   38   39 2
    45   40   41 1
    46   40   42 1
    47   40   43 1
    48    4   44 1
    49    5   45 1
    50    6   46 1
    51    7   47 1
    52    7   48 1
    53    7   49 1
    54   10   50 1
    55   13   51 1
    56   14   52 1
    57   17   53 1
    58   19   54 1
    59   20   55 1
    60   22   56 1
    61   23   57 1
    62   24   58 1
    63   24   59 1
    64   25   60 1
    65   25   61 1
    66   26   62 1
    67   26   63 1
    68   27   64 1
    69   27   65 1
    70   29   66 1
    71   30   67 1
    72   30   68 1
    73   30   69 1
    74   31   70 1
    75   35   71 1
    76   37   72 1
    77   38   73 1
    78   39   74 1
@<TRIPOS>PROPERTY_DATA
  Total_Score	| 7.6936
  Crash		| -1.2052
  Polar		| 3.5281
  FragIndex	| 1
  FragRMSD	| 0.268

