@<TRIPOS>MOLECULE
BindingDB_14976
 66 70 0 0 0
SMALL
NO_CHARGES


@<TRIPOS>ATOM
1    C        35.1607   36.1941   14.7859  C     
2    C        34.6808   35.1861   13.8873  C     
3    C        33.3120   35.1822   13.5062  C     
4    C        32.3928   36.1534   13.9541  C     
5    C        32.8550   37.0949   14.9008  C     
6    C        34.1978   37.1017   15.3164  C     
7    N        35.5041   34.1601   13.4611  N     
8    C        35.5317   33.5731   12.2605  C     
9    O        34.8150   34.0266   11.3691  O     
10   C        36.3780   32.5021   11.9251  C     
11   C        37.7394   30.5438   12.5696  C     
12   C        37.9773   30.2122   11.2163  C     
13   C        37.4390   31.0513   10.2104  C     
14   C        36.6518   32.1679   10.5722  C     
15   C        36.9619   31.6663   12.9149  C     
16   C        38.8130   29.0130   10.9171  C     
17   N        37.6045   30.7596    8.8881  N     
18   C        38.4405   31.4025    8.0177  C     
19   C        39.5314   31.7912    5.8854  C     
20   C        40.3311   32.7725    6.4768  C     
21   C        40.1561   33.0681    7.8359  C     
22   N        39.2268   32.3815    8.5425  N     
23   C        38.5604   31.0530    6.6249  C     
24   C        37.7274   30.0787    5.9567  C     
25   C        35.8251   28.6093    6.1048  C     
26   C        36.9804   28.7263    4.0462  C     
27   C        37.8799   29.6550    4.6016  C     
28   N        35.9821   28.2196    4.8170  N     
29   N        36.6846   29.5116    6.6327  N     
30   C        30.9983   36.1641   13.4190  C     
31   F        30.1596   37.0969   13.9847  F     
32   F        31.0174   36.4322   12.0723  F     
33   F        30.4013   34.9403   13.6005  F     
34   C        38.9518   38.0191   15.2231  C     
35   C        38.3905   37.5201   13.8712  C     
36   C        37.5445   36.2299   14.0549  C     
37   C        36.9862   36.8702   16.3604  C     
38   C        37.7933   38.1900   16.2414  C     
39   N        36.5016   36.3987   15.0678  N     
40   H        32.9575   34.4503   12.8832  H     
41   H        32.2246   37.8167   15.2634  H     
42   H        34.4857   37.8700   15.9250  H     
43   H        36.1844   33.8818   14.0968  H     
44   H        38.1272   29.9573   13.3155  H     
45   H        36.2579   32.7327    9.8135  H     
46   H        36.7966   31.8365   13.9098  H     
47   H        39.7845   29.0976   11.4121  H     
48   H        39.0018   28.8720    9.8494  H     
49   H        38.3072   28.1186   11.2870  H     
50   H        37.1888   29.9416    8.5828  H     
51   H        39.6579   31.6534    4.8827  H     
52   H        41.0293   33.2765    5.9212  H     
53   H        40.7191   33.7883    8.2928  H     
54   H        35.0709   28.2168    6.6750  H     
55   H        37.0773   28.4316    3.0683  H     
56   H        38.6316   29.9994    3.9950  H     
57   H        39.6767   37.2931   15.6080  H     
58   H        39.4708   38.9733   15.0856  H     
59   H        37.7668   38.3062   13.4339  H     
60   H        39.2193   37.3239   13.1854  H     
61   H        37.1477   35.9935   13.0692  H     
62   H        38.2049   35.4090   14.3408  H     
63   H        37.6610   36.1150   16.7706  H     
64   H        36.1927   36.9986   17.1064  H     
65   H        38.2067   38.4600   17.2172  H     
66   H        37.1329   38.9987   15.9129  H     
@<TRIPOS>BOND
     1    1    2 1
     2    1    6 2
     3    1   39 1
     4    2    3 2
     5    2    7 1
     6    3    4 1
     7    4    5 2
     8    4   30 1
     9    5    6 1
    10    7    8 am
    11    8    9 2
    12    8   10 1
    13   10   14 1
    14   10   15 2
    15   11   12 2
    16   11   15 1
    17   12   13 1
    18   12   16 1
    19   13   14 2
    20   13   17 1
    21   17   18 1
    22   18   22 2
    23   18   23 1
    24   19   20 1
    25   19   23 2
    26   20   21 2
    27   21   22 1
    28   23   24 1
    29   24   27 1
    30   24   29 2
    31   25   28 2
    32   25   29 1
    33   26   27 2
    34   26   28 1
    35   30   31 1
    36   30   32 1
    37   30   33 1
    38   34   35 1
    39   34   38 1
    40   35   36 1
    41   36   39 1
    42   37   38 1
    43   37   39 1
    44    3   40 1
    45    5   41 1
    46    6   42 1
    47    7   43 1
    48   11   44 1
    49   14   45 1
    50   15   46 1
    51   16   47 1
    52   16   48 1
    53   16   49 1
    54   17   50 1
    55   19   51 1
    56   20   52 1
    57   21   53 1
    58   25   54 1
    59   26   55 1
    60   27   56 1
    61   34   57 1
    62   34   58 1
    63   35   59 1
    64   35   60 1
    65   36   61 1
    66   36   62 1
    67   37   63 1
    68   37   64 1
    69   38   65 1
    70   38   66 1
@<TRIPOS>PROPERTY_DATA
  Total_Score	| 9.0789
  Crash		| -4.1783
  Polar		| 3.5783
  FragIndex	| 1
  FragRMSD	| 0.779

