@<TRIPOS>MOLECULE
BindingDB_26388
 77 81 0 0 0
SMALL
NO_CHARGES


@<TRIPOS>ATOM
1    C        35.8479   38.1523   18.2088  C     
2    C        36.6153   39.9578   20.2747  C     
3    C        37.5348   39.5997   19.2442  C     
4    C        37.1764   38.6587   18.2280  C     
5    C        34.9489   38.4998   19.2401  C     
6    C        35.3298   39.3789   20.2613  C     
7    C        38.7774   40.1994   19.2039  C     
8    O        38.9288   41.1513   18.4436  O     
9    N        39.7556   39.7149   19.9538  N     
10   C        41.0332   40.1750   19.9817  C     
11   C        43.6046   41.2434   20.1397  C     
12   C        41.6252   40.4965   21.2223  C     
13   C        41.8338   40.3648   18.8298  C     
14   N        43.0848   40.8874   18.9368  N     
15   N        42.8705   41.0375   21.2675  N     
16   N        35.4069   37.3379   17.2003  N     
17   C        34.3319   37.5350   16.4369  C     
18   O        33.6707   38.5558   16.6129  O     
19   N        44.8344   41.8082   20.1585  N     
20   C        45.4816   42.3957   21.2109  C     
21   C        44.8302   43.0404   22.2896  C     
22   C        45.5692   43.6907   23.2986  C     
23   C        46.9856   43.7193   23.2875  C     
24   C        47.6177   43.1043   22.1759  C     
25   C        46.8864   42.4662   21.1512  C     
26   C        47.2501   45.4737   25.0349  C     
27   C        47.0339   45.1068   26.5254  C     
28   C        48.8055   43.3898   26.3188  C     
29   C        48.9516   43.7298   24.8072  C     
30   N        47.7140   44.3053   24.3059  N     
31   N        48.2604   44.5155   27.1433  N     
32   C        49.2885   45.5225   27.5272  C     
33   C        33.9450   36.6480   15.4213  C     
34   C        32.6956   36.8037   14.7634  C     
35   C        34.3470   34.6863   13.9916  C     
36   C        34.7643   35.5664   15.0048  C     
37   C        32.2524   35.9301   13.7443  C     
38   C        33.1006   34.8634   13.3672  C     
39   C        36.9478   40.9199   21.3624  C     
40   C        38.1784   38.2442   17.1919  C     
41   C        30.9135   36.1607   13.1285  C     
42   F        30.5585   35.2522   12.1655  F     
43   F        29.9377   36.1272   14.0943  F     
44   F        30.8804   37.3875   12.5184  F     
45   H        34.0056   38.1090   19.2612  H     
46   H        34.6435   39.6073   20.9848  H     
47   H        39.5228   39.0195   20.5996  H     
48   H        41.0916   40.3761   22.0879  H     
49   H        41.4886   40.1288   17.8981  H     
50   H        35.9788   36.5848   16.9766  H     
51   H        45.3242   41.7874   19.3174  H     
52   H        43.8079   43.0710   22.3448  H     
53   H        45.0308   44.0993   24.0684  H     
54   H        48.6310   43.1444   22.0717  H     
55   H        47.3888   42.0514   20.3597  H     
56   H        46.3375   45.9165   24.6325  H     
57   H        48.0103   46.2561   24.9674  H     
58   H        46.7027   45.9864   27.0815  H     
59   H        46.2268   44.3707   26.5827  H     
60   H        48.1143   42.5470   26.4127  H     
61   H        49.7665   43.0516   26.7132  H     
62   H        49.7738   44.4366   24.6667  H     
63   H        49.2354   42.8009   24.3069  H     
64   H        47.9557   44.0966   28.0243  H     
65   H        50.0920   45.0407   28.0890  H     
66   H        48.8493   46.2847   28.1749  H     
67   H        49.7235   46.0148   26.6542  H     
68   H        32.0776   37.5740   15.0337  H     
69   H        34.9530   33.9121   13.7084  H     
70   H        35.6837   35.4071   15.4248  H     
71   H        32.8201   34.2043   12.6376  H     
72   H        37.8122   40.5571   21.9241  H     
73   H        36.1290   41.0599   22.0705  H     
74   H        37.1890   41.8962   20.9350  H     
75   H        37.8181   37.4916   16.4941  H     
76   H        39.0570   37.8288   17.6887  H     
77   H        38.4884   39.1137   16.6056  H     
@<TRIPOS>BOND
     1    1    4 2
     2    1    5 1
     3    1   16 1
     4    2    3 2
     5    2    6 1
     6    2   39 1
     7    3    4 1
     8    3    7 1
     9    4   40 1
    10    5    6 2
    11    7    8 2
    12    7    9 am
    13    9   10 1
    14   10   12 2
    15   10   13 1
    16   11   14 1
    17   11   15 2
    18   11   19 1
    19   12   15 1
    20   13   14 2
    21   16   17 am
    22   17   18 2
    23   17   33 1
    24   19   20 1
    25   20   21 1
    26   20   25 2
    27   21   22 2
    28   22   23 1
    29   23   24 2
    30   23   30 1
    31   24   25 1
    32   26   27 1
    33   26   30 1
    34   27   31 1
    35   28   29 1
    36   28   31 1
    37   29   30 1
    38   31   32 1
    39   33   34 2
    40   33   36 1
    41   34   37 1
    42   35   36 2
    43   35   38 1
    44   37   38 2
    45   37   41 1
    46   41   42 1
    47   41   43 1
    48   41   44 1
    49    5   45 1
    50    6   46 1
    51    9   47 1
    52   12   48 1
    53   13   49 1
    54   16   50 1
    55   19   51 1
    56   21   52 1
    57   22   53 1
    58   24   54 1
    59   25   55 1
    60   26   56 1
    61   26   57 1
    62   27   58 1
    63   27   59 1
    64   28   60 1
    65   28   61 1
    66   29   62 1
    67   29   63 1
    68   31   64 1
    69   32   65 1
    70   32   66 1
    71   32   67 1
    72   34   68 1
    73   35   69 1
    74   36   70 1
    75   38   71 1
    76   39   72 1
    77   39   73 1
    78   39   74 1
    79   40   75 1
    80   40   76 1
    81   40   77 1
@<TRIPOS>PROPERTY_DATA
  Total_Score	| 3.4969
  Crash		| -0.9533
  Polar		| 1.2920
  FragIndex	| 1
  FragRMSD	| 0.146

