@<TRIPOS>MOLECULE
BindingDB_14975
 55 58 0 0 0
SMALL
NO_CHARGES


@<TRIPOS>ATOM
1    C        34.9285   35.8736   15.0381  C     
2    C        34.5269   35.0380   13.9671  C     
3    C        33.2223   35.2142   13.4329  C     
4    C        32.3249   36.1836   13.9479  C     
5    C        32.7556   36.9842   15.0316  C     
6    C        34.0430   36.8307   15.5712  C     
7    N        35.4004   34.0540   13.5629  N     
8    C        35.5247   33.4646   12.3731  C     
9    O        34.8723   33.8853   11.4215  O     
10   C        36.4142   32.3985   12.1640  C     
11   C        37.6469   30.4146   12.9647  C     
12   C        38.0792   30.1012   11.6582  C     
13   C        37.6955   30.9666   10.6020  C     
14   C        36.8618   32.0792   10.8567  C     
15   C        36.8428   31.5438   13.2125  C     
16   C        38.9337   28.8930   11.4607  C     
17   N        38.0062   30.6852    9.3062  N     
18   C        38.6766   31.5186    8.4497  C     
19   C        39.6107   32.2159    6.3222  C     
20   C        40.2611   33.2739    6.9624  C     
21   C        40.0981   33.4525    8.3444  C     
22   N        39.3161   32.5748    9.0229  N     
23   C        38.7779   31.2934    7.0300  C     
24   C        38.0313   30.2750    6.3248  C     
25   C        36.1658   28.7491    6.3678  C     
26   C        37.4893   28.8418    4.4159  C     
27   C        38.3006   29.8248    4.9965  C     
28   N        36.4355   28.3163    5.1037  N     
29   N        36.9472   29.6884    6.9308  N     
30   C        30.9610   36.3345   13.3524  C     
31   F        30.1876   37.3238   13.9150  F     
32   F        31.0455   36.6258   12.0128  F     
33   F        30.2591   35.1648   13.4993  F     
34   O        36.1729   35.7904   15.6026  O     
35   C        37.2047   36.4438   14.8424  C     
36   H        32.8980   34.6091   12.6754  H     
37   H        32.1374   37.6862   15.4456  H     
38   H        34.3325   37.4099   16.3650  H     
39   H        36.0880   33.8130   14.2085  H     
40   H        37.9099   29.8115   13.7510  H     
41   H        36.5855   32.6684   10.0650  H     
42   H        36.5340   31.7034   14.1740  H     
43   H        39.7843   28.9255   12.1458  H     
44   H        39.3304   28.8026   10.4460  H     
45   H        38.3639   27.9871   11.6774  H     
46   H        37.7506   29.8050    8.9927  H     
47   H        39.7356   32.1644    5.3068  H     
48   H        40.8528   33.9070    6.4186  H     
49   H        40.5542   34.2250    8.8356  H     
50   H        35.3774   28.3469    6.8866  H     
51   H        37.6938   28.5372    3.4608  H     
52   H        39.0852   30.1898    4.4468  H     
53   H        37.4081   35.8974   13.9189  H     
54   H        38.1170   36.4483   15.4405  H     
55   H        36.9419   37.4805   14.6095  H     
@<TRIPOS>BOND
     1    1    2 1
     2    1    6 2
     3    1   34 1
     4    2    3 2
     5    2    7 1
     6    3    4 1
     7    4    5 2
     8    4   30 1
     9    5    6 1
    10    7    8 am
    11    8    9 2
    12    8   10 1
    13   10   14 1
    14   10   15 2
    15   11   12 2
    16   11   15 1
    17   12   13 1
    18   12   16 1
    19   13   14 2
    20   13   17 1
    21   17   18 1
    22   18   22 2
    23   18   23 1
    24   19   20 1
    25   19   23 2
    26   20   21 2
    27   21   22 1
    28   23   24 1
    29   24   27 1
    30   24   29 2
    31   25   28 2
    32   25   29 1
    33   26   27 2
    34   26   28 1
    35   30   31 1
    36   30   32 1
    37   30   33 1
    38   34   35 1
    39    3   36 1
    40    5   37 1
    41    6   38 1
    42    7   39 1
    43   11   40 1
    44   14   41 1
    45   15   42 1
    46   16   43 1
    47   16   44 1
    48   16   45 1
    49   17   46 1
    50   19   47 1
    51   20   48 1
    52   21   49 1
    53   25   50 1
    54   26   51 1
    55   27   52 1
    56   35   53 1
    57   35   54 1
    58   35   55 1
@<TRIPOS>PROPERTY_DATA
  Total_Score	| 9.4478
  Crash		| -1.3602
  Polar		| 3.0128
  FragIndex	| 1
  FragRMSD	| 0.932

