@<TRIPOS>MOLECULE
BindingDB_35318
 54 58 0 0 0
SMALL
NO_CHARGES


@<TRIPOS>ATOM
1    N        36.1480   27.9534    4.9066  N     
2    C        35.6957   28.3886    6.1074  C     
3    C        36.4675   29.2858    6.8678  C     
4    C        37.7282   29.7026    6.3690  C     
5    N        38.1043   29.2122    5.1543  N     
6    C        37.3473   28.3581    4.4246  C     
7    C        38.5660   30.6851    6.9902  C     
8    C        39.3789   31.4974    6.1525  C     
9    C        40.1428   32.5575    6.6676  C     
10   C        40.0929   32.8182    8.0420  C     
11   N        39.3335   32.0285    8.8342  N     
12   C        38.5876   30.9773    8.3859  C     
13   N        37.8934   30.2537    9.3031  N     
14   C        37.6301   30.6359   10.5934  C     
15   C        38.1368   29.8479   11.6591  C     
16   C        36.8274   31.7823   10.8710  C     
17   C        36.5787   32.1764   12.2223  C     
18   C        37.1130   31.3933   13.2680  C     
19   C        37.8775   30.2491   12.9881  C     
20   C        38.9458   28.6272   11.3985  C     
21   C        36.2466   32.5419    9.8431  C     
22   C        35.5600   33.6604   10.1118  C     
23   N        35.3128   34.0192   11.3639  N     
24   C        35.7529   33.3337   12.4536  C     
25   N        35.4505   33.7933   13.6962  N     
26   C        34.5612   34.7827   14.0312  C     
27   C        34.8890   35.6246   15.1128  C     
28   C        34.0136   36.6476   15.5151  C     
29   C        32.7887   36.8293   14.8498  C     
30   C        32.4089   35.9847   13.7795  C     
31   C        33.3081   34.9597   13.3912  C     
32   C        31.0868   36.1910   13.1170  C     
33   F        30.8045   35.3023   12.1061  F     
34   F        30.0720   36.0747   14.0370  F     
35   F        31.0267   37.4477   12.5652  F     
36   H        34.7810   28.0801    6.4423  H     
37   H        36.0747   29.6463    7.7344  H     
38   H        37.6743   28.0390    3.5139  H     
39   H        39.4011   31.3492    5.1400  H     
40   H        40.7141   33.1387    6.0493  H     
41   H        40.6262   33.5894    8.4486  H     
42   H        37.5352   29.3997    9.0290  H     
43   H        36.9418   31.6366   14.2455  H     
44   H        38.2452   29.7057   13.7727  H     
45   H        38.3528   27.9087   10.8278  H     
46   H        39.2696   28.1402   12.3201  H     
47   H        39.8378   28.8861   10.8242  H     
48   H        36.3234   32.2690    8.8948  H     
49   H        35.2160   34.2218    9.3742  H     
50   H        36.0037   33.4522   14.4152  H     
51   H        35.7785   35.5080   15.6055  H     
52   H        34.2681   37.2604   16.2932  H     
53   H        32.1669   37.5804   15.1604  H     
54   H        33.0388   34.3144   12.6464  H     
@<TRIPOS>BOND
     1    1    2 1
     2    1    6 2
     3    2    3 2
     4    3    4 1
     5    4    5 2
     6    4    7 1
     7    5    6 1
     8    7    8 1
     9    7   12 2
    10    8    9 2
    11    9   10 1
    12   10   11 2
    13   11   12 1
    14   12   13 1
    15   13   14 1
    16   14   15 1
    17   14   16 2
    18   15   19 2
    19   15   20 1
    20   16   17 1
    21   16   21 1
    22   17   18 2
    23   17   24 1
    24   18   19 1
    25   21   22 2
    26   22   23 1
    27   23   24 2
    28   24   25 1
    29   25   26 1
    30   26   27 1
    31   26   31 2
    32   27   28 2
    33   28   29 1
    34   29   30 2
    35   30   31 1
    36   30   32 1
    37   32   33 1
    38   32   34 1
    39   32   35 1
    40    2   36 1
    41    3   37 1
    42    6   38 1
    43    8   39 1
    44    9   40 1
    45   10   41 1
    46   13   42 1
    47   18   43 1
    48   19   44 1
    49   20   45 1
    50   20   46 1
    51   20   47 1
    52   21   48 1
    53   22   49 1
    54   25   50 1
    55   27   51 1
    56   28   52 1
    57   29   53 1
    58   31   54 1
@<TRIPOS>PROPERTY_DATA
  Total_Score	| 10.1452
  Crash		| -3.5006
  Polar		| 3.5619
  FragIndex	| 1
  FragRMSD	| 0.176

