@<TRIPOS>MOLECULE
BindingDB_14974
 69 72 0 0 0
SMALL
NO_CHARGES


@<TRIPOS>ATOM
1    C        34.8872   35.6233   15.1920  C     
2    C        34.4672   34.8852   14.0679  C     
3    C        33.1974   35.1716   13.5170  C     
4    C        32.3817   36.2113   14.0229  C     
5    C        32.8843   36.9892   15.0966  C     
6    C        34.1397   36.7159   15.6876  C     
7    N        35.3123   33.9018   13.6161  N     
8    C        35.4216   33.3823   12.3946  C     
9    O        34.7839   33.8902   11.4799  O     
10   C        36.2962   32.3178   12.1036  C     
11   C        37.6925   30.4080   12.8122  C     
12   C        38.0192   30.0918   11.4759  C     
13   C        37.4924   30.9130   10.4463  C     
14   C        36.6399   31.9931   10.7647  C     
15   C        36.8512   31.4968   13.1177  C     
16   C        38.9042   28.9216   11.2156  C     
17   N        37.7194   30.6403    9.1352  N     
18   C        38.5286   31.3718    8.3214  C     
19   C        39.5497   31.8142    6.1581  C     
20   C        40.2641   32.8858    6.7190  C     
21   C        40.0918   33.1781    8.0808  C     
22   N        39.2504   32.4181    8.8267  N     
23   C        38.6525   31.0381    6.9425  C     
24   C        37.9016   30.0143    6.2989  C     
25   C        37.5106   28.6634    4.3701  C     
26   C        36.0429   28.4518    6.1995  C     
27   C        36.7679   29.4325    6.9105  C     
28   N        36.4230   28.0901    4.9457  N     
29   N        38.2252   29.6038    5.0402  N     
30   C        31.0428   36.4575   13.4101  C     
31   F        30.3332   37.4936   13.9684  F     
32   F        31.1763   36.7502   12.0757  F     
33   F        30.2545   35.3385   13.5223  F     
34   C        34.6469   37.5346   16.8318  C     
35   C        35.9082   38.4083   16.5272  C     
36   C        37.1313   37.6347   15.9525  C     
37   N        38.3782   38.4613   15.8274  N     
38   C        39.5738   37.6368   15.4793  C     
39   C        38.2325   39.6166   14.8922  C     
40   H        35.7576   35.3603   15.6496  H     
41   H        32.8457   34.6012   12.7462  H     
42   H        32.3203   37.7600   15.4629  H     
43   H        35.9931   33.6276   14.2474  H     
44   H        38.0650   29.8348   13.5799  H     
45   H        36.2666   32.5543    9.9904  H     
46   H        36.6439   31.6618   14.1044  H     
47   H        39.8335   29.0210   11.7855  H     
48   H        39.1700   28.8107   10.1637  H     
49   H        38.4037   28.0039   11.5361  H     
50   H        37.1881   29.9247    8.7069  H     
51   H        39.6847   31.6232    5.1622  H     
52   H        40.8982   33.4506    6.1439  H     
53   H        40.5998   33.9463    8.5194  H     
54   H        37.7836   28.3902    3.4247  H     
55   H        35.2211   28.0244    6.6328  H     
56   H        36.5148   29.7185    7.8691  H     
57   H        33.8616   38.2191   17.1686  H     
58   H        34.8445   36.8696   17.6776  H     
59   H        35.6260   39.2254   15.8538  H     
60   H        36.2342   38.8639   17.4660  H     
61   H        37.3223   36.7961   16.6315  H     
62   H        36.8896   37.2129   14.9777  H     
63   H        38.5648   38.8529   16.7530  H     
64   H        39.7334   36.8614   16.2316  H     
65   H        40.4738   38.2535   15.4614  H     
66   H        39.4567   37.1587   14.5035  H     
67   H        37.9386   39.2835   13.8929  H     
68   H        39.1675   40.1727   14.8086  H     
69   H        37.4842   40.3171   15.2603  H     
@<TRIPOS>BOND
     1    1    2 1
     2    1    6 2
     3    2    3 2
     4    2    7 1
     5    3    4 1
     6    4    5 2
     7    4   30 1
     8    5    6 1
     9    6   34 1
    10    7    8 am
    11    8    9 2
    12    8   10 1
    13   10   14 1
    14   10   15 2
    15   11   12 2
    16   11   15 1
    17   12   13 1
    18   12   16 1
    19   13   14 2
    20   13   17 1
    21   17   18 1
    22   18   22 2
    23   18   23 1
    24   19   20 1
    25   19   23 2
    26   20   21 2
    27   21   22 1
    28   23   24 1
    29   24   27 1
    30   24   29 2
    31   25   28 2
    32   25   29 1
    33   26   27 2
    34   26   28 1
    35   30   31 1
    36   30   32 1
    37   30   33 1
    38   34   35 1
    39   35   36 1
    40   36   37 1
    41   37   38 1
    42   37   39 1
    43    1   40 1
    44    3   41 1
    45    5   42 1
    46    7   43 1
    47   11   44 1
    48   14   45 1
    49   15   46 1
    50   16   47 1
    51   16   48 1
    52   16   49 1
    53   17   50 1
    54   19   51 1
    55   20   52 1
    56   21   53 1
    57   25   54 1
    58   26   55 1
    59   27   56 1
    60   34   57 1
    61   34   58 1
    62   35   59 1
    63   35   60 1
    64   36   61 1
    65   36   62 1
    66   37   63 1
    67   38   64 1
    68   38   65 1
    69   38   66 1
    70   39   67 1
    71   39   68 1
    72   39   69 1
@<TRIPOS>PROPERTY_DATA
  Total_Score	| 11.3872
  Crash		| -1.1666
  Polar		| 3.2638
  FragIndex	| 1
  FragRMSD	| 1.366

