@<TRIPOS>MOLECULE
BindingDB_35319
 51 55 0 0 0
SMALL
NO_CHARGES


@<TRIPOS>ATOM
1    N        36.7480   28.7636    5.5954  N     
2    C        37.8218   29.2343    4.9127  C     
3    C        38.6530   30.2144    5.4886  C     
4    C        38.3398   30.6875    6.7834  C     
5    N        37.2350   30.1740    7.3970  N     
6    C        36.4477   29.2256    6.8332  C     
7    C        39.1140   31.6743    7.4632  C     
8    C        39.8403   32.6465    6.7307  C     
9    C        40.4921   33.7079    7.3838  C     
10   C        40.4190   33.7935    8.7825  C     
11   N        39.7354   32.8500    9.4735  N     
12   C        39.0929   31.8036    8.8795  C     
13   N        38.3901   30.9262    9.6420  N     
14   C        37.9320   31.1415   10.9091  C     
15   C        38.1966   30.1586   11.8956  C     
16   C        37.1321   32.2826   11.2217  C     
17   C        36.7001   32.5033   12.5636  C     
18   C        37.0254   31.5412   13.5484  C     
19   C        37.7503   30.3854   13.2146  C     
20   C        38.9169   28.8996   11.5617  C     
21   C        36.7163   33.1953   10.2360  C     
22   C        36.0237   34.2999   10.5503  C     
23   N        35.6200   34.5007   11.7971  N     
24   C        35.8990   33.6667   12.8366  C     
25   N        35.4895   33.9946   14.0903  N     
26   C        34.6391   35.0065   14.4416  C     
27   C        35.0471   35.9098   15.4463  C     
28   C        34.2094   36.9654   15.8493  C     
29   C        32.9387   37.1197   15.2644  C     
30   C        32.5080   36.2078   14.2819  C     
31   C        33.3511   35.1566   13.8776  C     
32   Cl       31.9317   38.3889   15.7459  Cl    
33   H        38.0171   28.8682    3.9794  H     
34   H        39.4718   30.5565    4.9798  H     
35   H        35.6335   28.8676    7.3351  H     
36   H        39.8672   32.6161    5.7084  H     
37   H        41.0024   34.4133    6.8471  H     
38   H        40.8784   34.5563    9.2829  H     
39   H        38.1157   30.0950    9.2238  H     
40   H        36.7201   31.6581   14.5148  H     
41   H        37.9390   29.6960   13.9470  H     
42   H        38.2633   28.2543   10.9702  H     
43   H        39.2271   28.3525   12.4538  H     
44   H        39.8108   29.1192   10.9737  H     
45   H        36.9088   33.0402    9.2794  H     
46   H        35.7966   34.9683    9.8535  H     
47   H        35.9551   33.5469   14.8138  H     
48   H        35.9697   35.8199   15.8718  H     
49   H        34.5296   37.6191   16.5679  H     
50   H        31.5823   36.3050   13.8553  H     
51   H        33.0113   34.4946   13.1749  H     
@<TRIPOS>BOND
     1    1    2 1
     2    1    6 2
     3    2    3 2
     4    3    4 1
     5    4    5 2
     6    4    7 1
     7    5    6 1
     8    7    8 1
     9    7   12 2
    10    8    9 2
    11    9   10 1
    12   10   11 2
    13   11   12 1
    14   12   13 1
    15   13   14 1
    16   14   15 1
    17   14   16 2
    18   15   19 2
    19   15   20 1
    20   16   17 1
    21   16   21 1
    22   17   18 2
    23   17   24 1
    24   18   19 1
    25   21   22 2
    26   22   23 1
    27   23   24 2
    28   24   25 1
    29   25   26 1
    30   26   27 1
    31   26   31 2
    32   27   28 2
    33   28   29 1
    34   29   30 2
    35   29   32 1
    36   30   31 1
    37    2   33 1
    38    3   34 1
    39    6   35 1
    40    8   36 1
    41    9   37 1
    42   10   38 1
    43   13   39 1
    44   18   40 1
    45   19   41 1
    46   20   42 1
    47   20   43 1
    48   20   44 1
    49   21   45 1
    50   22   46 1
    51   25   47 1
    52   27   48 1
    53   28   49 1
    54   30   50 1
    55   31   51 1
@<TRIPOS>PROPERTY_DATA
  Total_Score	| 6.5965
  Crash		| -2.3179
  Polar		| 1.3157
  FragIndex	| 1
  FragRMSD	| 0.580

