@<TRIPOS>MOLECULE
BindingDB_14972
 48 51 0 0 0
SMALL
NO_CHARGES


@<TRIPOS>ATOM
1    C        34.7099   35.5628   14.8915  C     
2    C        34.3852   34.7748   13.7649  C     
3    C        33.1001   34.9409   13.1775  C     
4    C        32.2064   35.9235   13.6485  C     
5    C        32.5672   36.7256   14.7398  C     
6    C        33.8130   36.5414   15.3657  C     
7    N        35.3155   33.8738   13.3062  N     
8    C        35.3928   33.3282   12.0903  C     
9    O        34.7117   33.8493   11.1960  O     
10   C        36.3069   32.3347   11.7259  C     
11   C        37.8318   30.4829   12.2906  C     
12   C        38.0185   30.1569   10.9311  C     
13   C        37.3992   30.9814    9.9626  C     
14   C        36.5537   32.0362   10.3651  C     
15   C        37.0010   31.5453   12.6864  C     
16   C        38.8679   28.9912   10.5705  C     
17   N        37.5916   30.7769    8.6381  N     
18   C        38.4503   31.4603    7.8356  C     
19   C        39.6483   31.9469    5.7906  C     
20   C        40.4460   32.8770    6.4708  C     
21   C        40.2041   33.1109    7.8194  C     
22   N        39.2416   32.3945    8.4432  N     
23   C        38.5961   31.2049    6.4320  C     
24   C        37.7568   30.2750    5.6869  C     
25   C        36.4060   28.2730    5.7378  C     
26   C        36.6436   29.3847    3.6834  C     
27   C        37.4540   30.3636    4.2995  C     
28   N        36.1410   28.3608    4.4126  N     
29   N        37.1859   29.2114    6.3208  N     
30   H        35.6133   35.4431   15.3517  H     
31   H        32.8020   34.3451   12.4031  H     
32   H        31.2966   36.0424   13.1984  H     
33   H        31.9200   37.4411   15.0818  H     
34   H        34.0708   37.1216   16.1662  H     
35   H        36.0317   33.6391   13.9328  H     
36   H        38.2984   29.9255   13.0193  H     
37   H        36.0966   32.5879    9.6253  H     
38   H        36.8804   31.7236   13.6845  H     
39   H        39.8840   29.1281   10.9568  H     
40   H        38.9507   28.8364    9.4902  H     
41   H        38.4484   28.0795   10.9989  H     
42   H        37.1436   29.9938    8.2713  H     
43   H        39.8613   31.8229    4.7990  H     
44   H        41.1923   33.3847    5.9839  H     
45   H        40.7568   33.7896    8.3466  H     
46   H        36.0286   27.5022    6.2931  H     
47   H        36.4400   29.4317    2.6859  H     
48   H        37.8061   31.1173    3.6945  H     
@<TRIPOS>BOND
     1    1    2 1
     2    1    6 2
     3    2    3 2
     4    2    7 1
     5    3    4 1
     6    4    5 2
     7    5    6 1
     8    7    8 am
     9    8    9 2
    10    8   10 1
    11   10   14 1
    12   10   15 2
    13   11   12 2
    14   11   15 1
    15   12   13 1
    16   12   16 1
    17   13   14 2
    18   13   17 1
    19   17   18 1
    20   18   22 2
    21   18   23 1
    22   19   20 1
    23   19   23 2
    24   20   21 2
    25   21   22 1
    26   23   24 1
    27   24   27 1
    28   24   29 2
    29   25   28 2
    30   25   29 1
    31   26   27 2
    32   26   28 1
    33    1   30 1
    34    3   31 1
    35    4   32 1
    36    5   33 1
    37    6   34 1
    38    7   35 1
    39   11   36 1
    40   14   37 1
    41   15   38 1
    42   16   39 1
    43   16   40 1
    44   16   41 1
    45   17   42 1
    46   19   43 1
    47   20   44 1
    48   21   45 1
    49   25   46 1
    50   26   47 1
    51   27   48 1
@<TRIPOS>PROPERTY_DATA
  Total_Score	| 8.8716
  Crash		| -0.9390
  Polar		| 3.3861
  FragIndex	| 1
  FragRMSD	| 0.868

