@<TRIPOS>MOLECULE
BindingDB_26382
 77 81 0 0 0
SMALL
NO_CHARGES


@<TRIPOS>ATOM
1    C        35.2987   37.6726   18.4088  C     
2    C        36.6777   38.8659   20.5769  C     
3    C        35.3978   39.3775   20.1821  C     
4    C        34.7290   38.7632   19.0912  C     
5    C        36.5602   37.1927   18.7902  C     
6    C        37.2461   37.7887   19.8549  C     
7    C        37.4079   39.3494   21.7789  C     
8    C        34.7716   40.4447   20.8394  C     
9    O        35.4734   41.3733   21.2186  O     
10   N        33.4510   40.4575   21.0094  N     
11   C        32.6345   41.3442   21.6664  C     
12   C        30.8105   43.0102   22.9711  C     
13   C        33.0504   42.4629   22.4263  C     
14   C        31.2433   41.1021   21.6359  C     
15   N        30.3781   41.9255   22.2772  N     
16   N        32.1396   43.2567   23.0348  N     
17   N        34.6553   37.0345   17.4025  N     
18   C        34.7079   37.3902   16.1299  C     
19   O        35.3198   38.3771   15.7413  O     
20   N        29.9983   43.9052   23.5713  N     
21   C        28.6488   43.8591   23.5754  C     
22   C        27.9408   42.8246   24.2266  C     
23   C        26.5384   42.8824   24.3361  C     
24   C        25.8143   43.9355   23.7198  C     
25   C        26.5376   44.9756   23.0918  C     
26   C        27.9387   44.9592   23.0528  C     
27   C        23.6806   43.4229   22.6433  C     
28   C        22.7309   44.4893   22.0388  C     
29   C        22.8458   45.7569   24.1654  C     
30   C        23.7302   44.6451   24.8014  C     
31   N        24.4514   43.9761   23.7397  N     
32   N        21.9545   45.2345   23.0805  N     
33   C        20.7720   44.4870   23.6012  C     
34   C        34.1041   36.5711   15.1957  C     
35   C        32.8157   36.8477   14.6428  C     
36   C        32.2656   35.9475   13.6704  C     
37   C        33.0453   34.8308   13.2621  C     
38   C        34.3049   34.5721   13.8164  C     
39   C        34.8233   35.4241   14.7949  C     
40   C        30.9076   36.1340   13.0622  C     
41   F        30.5100   35.1718   12.1657  F     
42   F        29.9346   36.1089   14.0299  F     
43   F        30.8535   37.3226   12.3763  F     
44   C        32.0960   38.0733   15.1218  C     
45   H        33.8197   39.1090   18.7733  H     
46   H        36.9876   36.4118   18.2829  H     
47   H        38.1647   37.4109   20.1037  H     
48   H        37.7790   40.3591   21.6091  H     
49   H        38.2640   38.7168   22.0263  H     
50   H        36.7408   39.3474   22.6423  H     
51   H        32.9822   39.7041   20.6198  H     
52   H        34.0323   42.6921   22.5677  H     
53   H        30.8714   40.3014   21.1243  H     
54   H        34.2487   36.1766   17.6164  H     
55   H        30.4119   44.7188   23.9069  H     
56   H        28.4528   42.0437   24.6533  H     
57   H        26.0426   42.1115   24.7905  H     
58   H        26.0396   45.7850   22.7137  H     
59   H        28.4358   45.7449   22.6250  H     
60   H        23.0870   42.5897   23.0322  H     
61   H        24.3028   43.0142   21.8358  H     
62   H        23.3310   45.2120   21.4750  H     
63   H        22.0662   44.0023   21.3206  H     
64   H        22.2604   46.2546   24.9421  H     
65   H        23.5054   46.5182   23.7309  H     
66   H        24.3928   45.1217   25.5326  H     
67   H        23.1069   43.9219   25.3369  H     
68   H        21.5699   46.0517   22.6037  H     
69   H        20.1378   44.1505   22.7791  H     
70   H        20.1707   45.1449   24.2307  H     
71   H        21.0617   43.6150   24.1882  H     
72   H        32.7042   34.1800   12.5508  H     
73   H        34.8404   33.7524   13.5174  H     
74   H        35.7462   35.2089   15.1867  H     
75   H        32.0258   38.0552   16.2125  H     
76   H        31.0875   38.1964   14.7435  H     
77   H        32.6604   38.9583   14.8240  H     
@<TRIPOS>BOND
     1    1    4 2
     2    1    5 1
     3    1   17 1
     4    2    3 2
     5    2    6 1
     6    2    7 1
     7    3    4 1
     8    3    8 1
     9    5    6 2
    10    8    9 2
    11    8   10 am
    12   10   11 1
    13   11   13 2
    14   11   14 1
    15   12   15 1
    16   12   16 2
    17   12   20 1
    18   13   16 1
    19   14   15 2
    20   17   18 am
    21   18   19 2
    22   18   34 1
    23   20   21 1
    24   21   22 1
    25   21   26 2
    26   22   23 2
    27   23   24 1
    28   24   25 2
    29   24   31 1
    30   25   26 1
    31   27   28 1
    32   27   31 1
    33   28   32 1
    34   29   30 1
    35   29   32 1
    36   30   31 1
    37   32   33 1
    38   34   35 2
    39   34   39 1
    40   35   36 1
    41   35   44 1
    42   36   37 2
    43   36   40 1
    44   37   38 1
    45   38   39 2
    46   40   41 1
    47   40   42 1
    48   40   43 1
    49    4   45 1
    50    5   46 1
    51    6   47 1
    52    7   48 1
    53    7   49 1
    54    7   50 1
    55   10   51 1
    56   13   52 1
    57   14   53 1
    58   17   54 1
    59   20   55 1
    60   22   56 1
    61   23   57 1
    62   25   58 1
    63   26   59 1
    64   27   60 1
    65   27   61 1
    66   28   62 1
    67   28   63 1
    68   29   64 1
    69   29   65 1
    70   30   66 1
    71   30   67 1
    72   32   68 1
    73   33   69 1
    74   33   70 1
    75   33   71 1
    76   37   72 1
    77   38   73 1
    78   39   74 1
    79   44   75 1
    80   44   76 1
    81   44   77 1
@<TRIPOS>PROPERTY_DATA
  Total_Score	| 4.3739
  Crash		| -1.7574
  Polar		| 0.0000
  FragIndex	| 1
  FragRMSD	| 0.282

