@<TRIPOS>MOLECULE
BindingDB_14973
 51 54 0 0 0
SMALL
NO_CHARGES


@<TRIPOS>ATOM
1    C        34.2759   35.5156   14.8269  C     
2    C        34.2912   36.7064   15.5927  C     
3    C        33.1772   37.5745   15.4874  C     
4    C        32.1180   37.2939   14.6171  C     
5    C        32.1173   36.1290   13.8175  C     
6    C        33.2111   35.2300   13.9493  C     
7    N        35.3262   36.9351   16.4598  N     
8    C        35.9093   38.0976   16.7574  C     
9    O        35.7045   39.1079   16.0823  O     
10   C        36.7702   38.2146   17.8310  C     
11   C        37.2648   39.1305   20.0489  C     
12   C        38.5209   38.4818   20.0755  C     
13   C        38.9177   37.7423   18.9310  C     
14   C        38.0212   37.5616   17.8555  C     
15   C        36.4123   39.0145   18.9398  C     
16   C        39.3847   38.6744   21.2667  C     
17   N        40.1501   37.1895   18.8485  N     
18   C        40.9656   37.1128   17.7651  C     
19   C        41.7967   37.4929   15.5051  C     
20   C        42.8246   36.5650   15.7424  C     
21   C        42.9172   35.9474   17.0023  C     
22   N        41.9944   36.2475   17.9504  N     
23   C        40.8515   37.7967   16.5138  C     
24   C        39.9066   38.8038   16.2316  C     
25   C        38.8609   40.8403   16.8542  C     
26   C        38.1734   39.7690   14.8573  C     
27   C        39.1116   38.7465   15.0631  C     
28   N        38.0664   40.7859   15.7525  N     
29   N        39.7705   39.8579   17.0871  N     
30   C        30.9785   35.9053   12.8877  C     
31   F        31.0027   34.7047   12.2153  F     
32   F        29.7775   35.9611   13.5561  F     
33   F        30.9643   36.9062   11.9467  F     
34   H        35.0543   34.8557   14.8970  H     
35   H        33.1041   38.4029   16.0789  H     
36   H        31.3381   37.9601   14.5586  H     
37   H        33.2487   34.3755   13.3859  H     
38   H        35.6619   36.1535   16.9274  H     
39   H        36.9697   39.7140   20.8370  H     
40   H        38.3094   37.0003   17.0506  H     
41   H        35.5091   39.4991   18.9649  H     
42   H        39.5827   39.7393   21.4021  H     
43   H        40.3408   38.1591   21.1814  H     
44   H        38.8788   38.2918   22.1543  H     
45   H        40.4832   36.7753   19.6583  H     
46   H        41.7695   37.9736   14.5942  H     
47   H        43.5035   36.3551   15.0103  H     
48   H        43.6651   35.2794   17.2023  H     
49   H        38.7574   41.6074   17.5136  H     
50   H        37.5615   39.7435   14.0429  H     
51   H        39.1899   37.9661   14.4046  H     
@<TRIPOS>BOND
     1    1    2 1
     2    1    6 2
     3    2    3 2
     4    2    7 1
     5    3    4 1
     6    4    5 2
     7    5    6 1
     8    5   30 1
     9    7    8 am
    10    8    9 2
    11    8   10 1
    12   10   14 1
    13   10   15 2
    14   11   12 2
    15   11   15 1
    16   12   13 1
    17   12   16 1
    18   13   14 2
    19   13   17 1
    20   17   18 1
    21   18   22 2
    22   18   23 1
    23   19   20 1
    24   19   23 2
    25   20   21 2
    26   21   22 1
    27   23   24 1
    28   24   27 1
    29   24   29 2
    30   25   28 2
    31   25   29 1
    32   26   27 2
    33   26   28 1
    34   30   31 1
    35   30   32 1
    36   30   33 1
    37    1   34 1
    38    3   35 1
    39    4   36 1
    40    6   37 1
    41    7   38 1
    42   11   39 1
    43   14   40 1
    44   15   41 1
    45   16   42 1
    46   16   43 1
    47   16   44 1
    48   17   45 1
    49   19   46 1
    50   20   47 1
    51   21   48 1
    52   25   49 1
    53   26   50 1
    54   27   51 1
@<TRIPOS>PROPERTY_DATA
  Total_Score	| 4.0790
  Crash		| -1.6006
  Polar		| 0.1609
  FragIndex	| 1
  FragRMSD	| 0.837

