@<TRIPOS>MOLECULE
BindingDB_35321
 57 61 0 0 0
SMALL
NO_CHARGES


@<TRIPOS>ATOM
1    N        36.0673   28.2599    5.1163  N     
2    C        37.0084   28.8594    4.3575  C     
3    C        37.8539   29.8278    4.9319  C     
4    C        37.7516   30.1492    6.3244  C     
5    N        36.7458   29.4899    6.9858  N     
6    C        35.9099   28.5831    6.4222  C     
7    C        38.5956   31.1163    7.0197  C     
8    C        39.4727   31.9822    6.2909  C     
9    C        40.2302   32.9948    6.8934  C     
10   C        40.1457   33.1635    8.2798  C     
11   N        39.3544   32.3230    8.9842  N     
12   C        38.5964   31.3255    8.4408  C     
13   N        37.8606   30.6052    9.3354  N     
14   C        37.6410   30.8882   10.6607  C     
15   C        38.0457   29.9221   11.6283  C     
16   C        36.9580   32.0776   11.0786  C     
17   C        36.6914   32.3009   12.4686  C     
18   C        37.1446   31.3518   13.4125  C     
19   C        37.8000   30.1825   12.9999  C     
20   C        38.7859   28.6777   11.2480  C     
21   C        36.5421   33.0595   10.1740  C     
22   C        36.0418   34.2347   10.5933  C     
23   N        35.7641   34.4362   11.8768  N     
24   C        36.0572   33.5309   12.8495  C     
25   N        35.6855   33.7913   14.1322  N     
26   C        35.3210   35.0039   14.6345  C     
27   C        36.2142   36.1062   14.6167  C     
28   C        35.8728   37.3155   15.2375  C     
29   C        34.6259   37.4480   15.8979  C     
30   C        33.7290   36.3556   15.9048  C     
31   C        34.0877   35.1365   15.2967  C     
32   C        34.3135   38.5469   16.5171  C     
33   N        37.0741   28.4254    3.0746  N     
34   C        37.7324   29.0740    1.9886  C     
35   N        34.0282   39.5117   17.0730  N     
36   H        38.5247   30.2710    4.3217  H     
37   H        35.1966   28.1229    6.9765  H     
38   H        39.5898   31.9136    5.2869  H     
39   H        40.8365   33.6071    6.3189  H     
40   H        40.6960   33.8749    8.7533  H     
41   H        37.4749   29.7756    9.0308  H     
42   H        37.0330   31.5134   14.4167  H     
43   H        38.1088   29.5227   13.7120  H     
44   H        38.1737   28.0711   10.5852  H     
45   H        39.0449   28.0690   12.1141  H     
46   H        39.7097   28.9427   10.7349  H     
47   H        36.6093   32.9118    9.2048  H     
48   H        35.8123   34.9489    9.9350  H     
49   H        35.7312   33.0555   14.7601  H     
50   H        37.1289   36.0131   14.1731  H     
51   H        36.5375   38.0955   15.2281  H     
52   H        32.8178   36.4335   16.3584  H     
53   H        33.4322   34.3563   15.3315  H     
54   H        36.6150   27.5901    2.8760  H     
55   H        37.2609   30.0327    1.7820  H     
56   H        37.6490   28.4476    1.1009  H     
57   H        38.7907   29.2331    2.2038  H     
@<TRIPOS>BOND
     1    1    2 1
     2    1    6 2
     3    2    3 2
     4    2   33 1
     5    3    4 1
     6    4    5 2
     7    4    7 1
     8    5    6 1
     9    7    8 1
    10    7   12 2
    11    8    9 2
    12    9   10 1
    13   10   11 2
    14   11   12 1
    15   12   13 1
    16   13   14 1
    17   14   15 1
    18   14   16 2
    19   15   19 2
    20   15   20 1
    21   16   17 1
    22   16   21 1
    23   17   18 2
    24   17   24 1
    25   18   19 1
    26   21   22 2
    27   22   23 1
    28   23   24 2
    29   24   25 1
    30   25   26 1
    31   26   27 1
    32   26   31 2
    33   27   28 2
    34   28   29 1
    35   29   30 2
    36   29   32 1
    37   30   31 1
    38   32   35 3
    39   33   34 1
    40    3   36 1
    41    6   37 1
    42    8   38 1
    43    9   39 1
    44   10   40 1
    45   13   41 1
    46   18   42 1
    47   19   43 1
    48   20   44 1
    49   20   45 1
    50   20   46 1
    51   21   47 1
    52   22   48 1
    53   25   49 1
    54   27   50 1
    55   28   51 1
    56   30   52 1
    57   31   53 1
    58   33   54 1
    59   34   55 1
    60   34   56 1
    61   34   57 1
@<TRIPOS>PROPERTY_DATA
  Total_Score	| 8.0435
  Crash		| -2.5989
  Polar		| 1.7798
  FragIndex	| 1
  FragRMSD	| 0.948

