@<TRIPOS>MOLECULE
BindingDB_35320
 56 60 0 0 0
SMALL
NO_CHARGES


@<TRIPOS>ATOM
1    N        36.0782   28.0560    5.0176  N     
2    C        36.9828   28.6758    4.2223  C     
3    C        37.8760   29.6055    4.8069  C     
4    C        37.8472   29.8628    6.2152  C     
5    N        36.8870   29.1726    6.8797  N     
6    C        36.0187   28.3007    6.3444  C     
7    C        38.6811   30.8238    6.9318  C     
8    C        39.6632   31.5917    6.2321  C     
9    C        40.3682   32.6541    6.8179  C     
10   C        40.1195   32.9619    8.1593  C     
11   N        39.2509   32.1937    8.8561  N     
12   C        38.5494   31.1414    8.3362  C     
13   N        37.7878   30.4528    9.2363  N     
14   C        37.5794   30.7911   10.5505  C     
15   C        38.2153   30.0293   11.5665  C     
16   C        36.6965   31.8493   10.9151  C     
17   C        36.5097   32.2050   12.2913  C     
18   C        37.1787   31.4488   13.2764  C     
19   C        38.0012   30.3720   12.9218  C     
20   C        39.1267   28.9036   11.2287  C     
21   C        35.9607   32.5474    9.9468  C     
22   C        35.1316   33.5328   10.3037  C     
23   N        34.9874   33.9001   11.5698  N     
24   C        35.6198   33.2998   12.6115  C     
25   N        35.4580   33.8011   13.8692  N     
26   C        34.6366   34.8301   14.2643  C     
27   C        33.3224   35.0052   13.7566  C     
28   C        32.5106   36.0660   14.2002  C     
29   C        32.9827   36.9597   15.1823  C     
30   C        34.2745   36.7795   15.7158  C     
31   C        35.0854   35.7222   15.2679  C     
32   Cl       31.9975   38.2202   15.7251  Cl    
33   N        36.9410   28.3312    2.9151  N     
34   C        37.6450   28.9501    1.8352  C     
35   H        38.5227   30.0712    4.1814  H     
36   H        35.3179   27.8387    6.9169  H     
37   H        39.8960   31.4135    5.2602  H     
38   H        41.0444   33.2046    6.2755  H     
39   H        40.6120   33.7389    8.6118  H     
40   H        37.4223   29.5979    8.9700  H     
41   H        37.0529   31.6633   14.2688  H     
42   H        38.4516   29.8313   13.6694  H     
43   H        38.5886   28.1474   10.6524  H     
44   H        39.5404   28.4219   12.1165  H     
45   H        39.9600   29.2801   10.6305  H     
46   H        36.0345   32.3174    8.9852  H     
47   H        34.6177   34.0158    9.6229  H     
48   H        36.0754   33.4759   14.5379  H     
49   H        32.9420   34.3415   13.0798  H     
50   H        31.5652   36.1699   13.8251  H     
51   H        34.6243   37.4146   16.4383  H     
52   H        36.0224   35.6132   15.6632  H     
53   H        36.3739   27.5841    2.6635  H     
54   H        37.3316   29.9925    1.7157  H     
55   H        37.4173   28.4121    0.9102  H     
56   H        38.7251   28.9177    1.9990  H     
@<TRIPOS>BOND
     1    1    2 1
     2    1    6 2
     3    2    3 2
     4    2   33 1
     5    3    4 1
     6    4    5 2
     7    4    7 1
     8    5    6 1
     9    7    8 1
    10    7   12 2
    11    8    9 2
    12    9   10 1
    13   10   11 2
    14   11   12 1
    15   12   13 1
    16   13   14 1
    17   14   15 1
    18   14   16 2
    19   15   19 2
    20   15   20 1
    21   16   17 1
    22   16   21 1
    23   17   18 2
    24   17   24 1
    25   18   19 1
    26   21   22 2
    27   22   23 1
    28   23   24 2
    29   24   25 1
    30   25   26 1
    31   26   27 1
    32   26   31 2
    33   27   28 2
    34   28   29 1
    35   29   30 2
    36   29   32 1
    37   30   31 1
    38   33   34 1
    39    3   35 1
    40    6   36 1
    41    8   37 1
    42    9   38 1
    43   10   39 1
    44   13   40 1
    45   18   41 1
    46   19   42 1
    47   20   43 1
    48   20   44 1
    49   20   45 1
    50   21   46 1
    51   22   47 1
    52   25   48 1
    53   27   49 1
    54   28   50 1
    55   30   51 1
    56   31   52 1
    57   33   53 1
    58   34   54 1
    59   34   55 1
    60   34   56 1
@<TRIPOS>PROPERTY_DATA
  Total_Score	| 7.2193
  Crash		| -4.7857
  Polar		| 3.4823
  FragIndex	| 1
  FragRMSD	| 0.889

