@<TRIPOS>MOLECULE
BindingDB_50245248
 52 52 0 0 0
SMALL
NO_CHARGES


@<TRIPOS>ATOM
1    C        21.9755   23.1367   26.7818  C     
2    O        23.0040   23.2789   27.4228  O     
3    N        20.9406   23.8754   27.1463  N     
4    C        22.0017   22.2813   25.6010  C     
5    C        22.5041   23.0342   24.3127  C     
6    C        23.9681   23.2047   24.2940  C     
7    N        24.7738   22.1556   24.1290  N     
8    O        24.4397   24.3199   24.5067  O     
9    O        19.7585   23.7806   26.5956  O     
10   C        26.2225   22.1577   24.0916  C     
11   C        26.6706   22.4066   22.7280  C     
12   N        27.4539   23.4413   22.4506  N     
13   O        26.3418   21.6216   21.8468  O     
14   C        26.7804   20.8130   24.6637  C     
15   C        28.2391   20.5169   24.4819  C     
16   C        28.6694   19.1905   24.2280  C     
17   C        30.0319   18.8816   24.0424  C     
18   C        30.9957   19.9028   24.0981  C     
19   C        30.5986   21.2207   24.3833  C     
20   C        29.2366   21.5178   24.5978  C     
21   C        28.0156   23.7228   21.1688  C     
22   C        21.9483   22.3621   23.0090  C     
23   C        21.8057   23.2329   21.7170  C     
24   C        20.8224   22.5517   20.7199  C     
25   C        21.3428   24.6900   21.9973  C     
26   H        21.0549   24.4970   27.8794  H     
27   H        22.6186   21.3891   25.7835  H     
28   H        20.9832   21.9046   25.4540  H     
29   H        22.0391   24.0323   24.3420  H     
30   H        24.3367   21.2973   24.0120  H     
31   H        19.4738   24.7005   26.3806  H     
32   H        26.5735   22.9509   24.7562  H     
33   H        27.6965   24.0389   23.1795  H     
34   H        26.5858   20.7975   25.7379  H     
35   H        26.1954   20.0006   24.2246  H     
36   H        27.9939   18.4262   24.1856  H     
37   H        30.3232   17.9165   23.8609  H     
38   H        31.9842   19.6873   23.9399  H     
39   H        31.3031   21.9617   24.4351  H     
40   H        28.9815   22.4777   24.8216  H     
41   H        28.6743   22.9089   20.8615  H     
42   H        28.5976   24.6430   21.2282  H     
43   H        27.2307   23.8515   20.4223  H     
44   H        22.5659   21.4913   22.7658  H     
45   H        20.9419   21.9724   23.2254  H     
46   H        22.7879   23.2802   21.2273  H     
47   H        21.1546   21.5401   20.4779  H     
48   H        20.7501   23.1134   19.7846  H     
49   H        19.8177   22.4838   21.1478  H     
50   H        20.4354   24.6878   22.6177  H     
51   H        21.1306   25.2235   21.0607  H     
52   H        22.1330   25.2402   22.5248  H     
@<TRIPOS>BOND
     1    1    2 2
     2    1    3 am
     3    1    4 1
     4    3    9 1
     5    4    5 1
     6    5    6 1
     7    5   22 1
     8    6    7 am
     9    6    8 2
    10    7   10 1
    11   10   11 1
    12   10   14 1
    13   11   12 am
    14   11   13 2
    15   12   21 1
    16   14   15 1
    17   15   16 2
    18   15   20 1
    19   16   17 1
    20   17   18 2
    21   18   19 1
    22   19   20 2
    23   22   23 1
    24   23   24 1
    25   23   25 1
    26    3   26 1
    27    4   27 1
    28    4   28 1
    29    5   29 1
    30    7   30 1
    31    9   31 1
    32   10   32 1
    33   12   33 1
    34   14   34 1
    35   14   35 1
    36   16   36 1
    37   17   37 1
    38   18   38 1
    39   19   39 1
    40   20   40 1
    41   21   41 1
    42   21   42 1
    43   21   43 1
    44   22   44 1
    45   22   45 1
    46   23   46 1
    47   24   47 1
    48   24   48 1
    49   24   49 1
    50   25   50 1
    51   25   51 1
    52   25   52 1
@<TRIPOS>PROPERTY_DATA
  Total_Score	| 10.9418
  Crash		| -0.8591
  Polar		| 8.7748
  FragIndex	| 1
  FragRMSD	| 0.881

