@<TRIPOS>MOLECULE
BindingDB_50109169
 57 57 0 0 0
SMALL
NO_CHARGES


@<TRIPOS>ATOM
1    C        23.9703   22.8926   24.1798  C     
2    C        26.9566   22.1416   22.8333  C     
3    N        24.9159   21.9675   24.0403  N     
4    C        26.3345   22.0837   24.1497  C     
5    C        22.5584   22.4922   24.1318  C     
6    N        28.1069   22.7820   22.6692  N     
7    C        22.0582   23.3496   26.4876  C     
8    C        21.9507   22.2432   25.5523  C     
9    O        24.2728   24.0624   24.3944  O     
10   O        26.4354   21.5264   21.9080  O     
11   C        26.8607   20.8618   24.9834  C     
12   C        21.6729   23.4281   23.2452  C     
13   O        23.1698   23.6546   26.8810  O     
14   N        21.0502   24.0767   26.9464  N     
15   O        30.8874   23.5703   22.6324  O     
16   C        30.3739   22.6368   22.0392  C     
17   C        28.2755   20.4843   24.7221  C     
18   C        28.9997   22.6773   21.5571  C     
19   O        19.7972   23.8440   26.6686  O     
20   C        21.7551   23.1490   21.7042  C     
21   C        28.5850   19.2145   24.1775  C     
22   C        29.3349   21.3931   24.9765  C     
23   C        28.7649   23.8345   20.5669  C     
24   C        21.1015   21.7912   21.3030  C     
25   C        21.0848   24.3027   20.9007  C     
26   C        29.9154   18.8573   23.8795  C     
27   C        30.6668   21.0339   24.6916  C     
28   C        30.9593   19.7613   24.1479  C     
29   H        24.5906   21.0731   23.8478  H     
30   H        26.5964   22.9933   24.7096  H     
31   H        22.5058   21.5068   23.6612  H     
32   H        28.4119   23.3140   23.4159  H     
33   H        20.9009   21.9619   25.4304  H     
34   H        22.4420   21.3780   26.0009  H     
35   H        26.7562   21.1019   26.0548  H     
36   H        26.2068   19.9910   24.8122  H     
37   H        20.6245   23.3197   23.5319  H     
38   H        21.9369   24.4624   23.4520  H     
39   H        21.2542   24.8395   27.5104  H     
40   H        30.9213   21.8206   21.9087  H     
41   H        28.8246   21.7446   21.0052  H     
42   H        19.4315   24.7152   26.4088  H     
43   H        22.8040   23.1151   21.3986  H     
44   H        27.8428   18.5456   23.9660  H     
45   H        29.1380   22.3217   25.3508  H     
46   H        27.7370   23.8021   20.2016  H     
47   H        29.4360   23.7247   19.7097  H     
48   H        28.9432   24.7917   21.0457  H     
49   H        21.6041   20.9461   21.7798  H     
50   H        21.1624   21.6289   20.2157  H     
51   H        20.0440   21.7687   21.5853  H     
52   H        20.0283   24.3986   21.1733  H     
53   H        21.1515   24.1156   19.8233  H     
54   H        21.5886   25.2497   21.1121  H     
55   H        30.1232   17.9499   23.4650  H     
56   H        31.4240   21.6975   24.8525  H     
57   H        31.9265   19.5103   23.9264  H     
@<TRIPOS>BOND
     1    1    3 am
     2    1    5 1
     3    1    9 2
     4    2    4 1
     5    2    6 am
     6    2   10 2
     7    3    4 1
     8    4   11 1
     9    5    8 1
    10    5   12 1
    11    6   18 1
    12    7    8 1
    13    7   13 2
    14    7   14 am
    15   11   17 1
    16   12   20 1
    17   14   19 1
    18   15   16 2
    19   16   18 1
    20   17   21 2
    21   17   22 1
    22   18   23 1
    23   20   24 1
    24   20   25 1
    25   21   26 1
    26   22   27 2
    27   26   28 2
    28   27   28 1
    29    3   29 1
    30    4   30 1
    31    5   31 1
    32    6   32 1
    33    8   33 1
    34    8   34 1
    35   11   35 1
    36   11   36 1
    37   12   37 1
    38   12   38 1
    39   14   39 1
    40   16   40 1
    41   18   41 1
    42   19   42 1
    43   20   43 1
    44   21   44 1
    45   22   45 1
    46   23   46 1
    47   23   47 1
    48   23   48 1
    49   24   49 1
    50   24   50 1
    51   24   51 1
    52   25   52 1
    53   25   53 1
    54   25   54 1
    55   26   55 1
    56   27   56 1
    57   28   57 1
@<TRIPOS>PROPERTY_DATA
  Total_Score	| 10.4009
  Crash		| -1.5991
  Polar		| 9.6870
  FragIndex	| 1
  FragRMSD	| 0.907

