@<TRIPOS>MOLECULE
BindingDB_50069599
 49 49 0 0 0
SMALL
NO_CHARGES


@<TRIPOS>ATOM
1    C        24.1079   22.9322   24.5209  C     
2    N        24.9565   21.9453   24.2463  N     
3    C        26.3896   22.0368   24.1446  C     
4    C        26.7061   22.4702   22.7893  C     
5    C        22.6546   22.7115   24.3989  C     
6    C        21.9705   23.2913   26.7937  C     
7    C        21.9770   22.2882   25.7418  C     
8    O        24.5305   24.0485   24.8057  O     
9    C        27.0357   20.6593   24.5073  C     
10   O        26.3425   21.8165   21.8190  O     
11   C        21.9232   23.8842   23.6354  C     
12   O        23.0043   23.4771   27.4163  O     
13   N        20.9246   24.0110   27.1616  N     
14   N        27.3726   23.5781   22.5529  N     
15   C        28.5159   20.4627   24.3591  C     
16   O        19.7215   23.8330   26.6750  O     
17   C        21.0743   23.4576   22.3976  C     
18   C        28.9940   19.1471   24.1069  C     
19   C        29.4742   21.5031   24.4680  C     
20   C        20.5636   24.7102   21.6354  C     
21   C        21.8367   22.5269   21.4141  C     
22   C        30.8514   21.2406   24.3418  C     
23   C        30.3734   18.8855   23.9874  C     
24   C        31.3056   19.9288   24.1145  C     
25   H        24.5607   21.0827   24.0748  H     
26   H        26.7468   22.7659   24.8796  H     
27   H        22.5228   21.8110   23.7842  H     
28   H        20.9499   21.9934   25.5087  H     
29   H        22.4713   21.3926   26.1217  H     
30   H        26.7898   20.4624   25.5592  H     
31   H        26.5309   19.8742   23.9199  H     
32   H        21.2475   24.4016   24.3232  H     
33   H        22.6420   24.6452   23.3076  H     
34   H        21.0615   24.7252   27.8076  H     
35   H        27.5566   23.8588   21.6431  H     
36   H        27.6900   24.1137   23.2980  H     
37   H        19.4087   24.7257   26.4043  H     
38   H        20.2030   22.9093   22.7683  H     
39   H        28.3325   18.3667   24.0221  H     
40   H        29.1933   22.4678   24.6361  H     
41   H        20.0234   25.3743   22.3205  H     
42   H        19.8802   24.4270   20.8274  H     
43   H        21.4065   25.2649   21.2055  H     
44   H        22.7029   23.0410   20.9958  H     
45   H        21.1784   22.2353   20.5899  H     
46   H        22.1830   21.6136   21.9084  H     
47   H        31.5251   22.0011   24.4269  H     
48   H        30.6955   17.9302   23.8190  H     
49   H        32.3091   19.7403   24.0361  H     
@<TRIPOS>BOND
     1    1    2 am
     2    1    5 1
     3    1    8 2
     4    2    3 1
     5    3    4 1
     6    3    9 1
     7    4   10 2
     8    4   14 am
     9    5    7 1
    10    5   11 1
    11    6    7 1
    12    6   12 2
    13    6   13 am
    14    9   15 1
    15   11   17 1
    16   13   16 1
    17   15   18 2
    18   15   19 1
    19   17   20 1
    20   17   21 1
    21   18   23 1
    22   19   22 2
    23   22   24 1
    24   23   24 2
    25    2   25 1
    26    3   26 1
    27    5   27 1
    28    7   28 1
    29    7   29 1
    30    9   30 1
    31    9   31 1
    32   11   32 1
    33   11   33 1
    34   13   34 1
    35   14   35 1
    36   14   36 1
    37   16   37 1
    38   17   38 1
    39   18   39 1
    40   19   40 1
    41   20   41 1
    42   20   42 1
    43   20   43 1
    44   21   44 1
    45   21   45 1
    46   21   46 1
    47   22   47 1
    48   23   48 1
    49   24   49 1
@<TRIPOS>PROPERTY_DATA
  Total_Score	| 10.2055
  Crash		| -1.1795
  Polar		| 9.1897
  FragIndex	| 1
  FragRMSD	| 0.817

