@<TRIPOS>MOLECULE
BindingDB_50031795
 52 52 0 0 0
SMALL
NO_CHARGES


@<TRIPOS>ATOM
1    C        21.9564   23.2021   26.9792  C     
2    O        22.9788   23.4096   27.6219  O     
3    N        20.9107   23.9648   27.2311  N     
4    C        22.0317   22.1777   25.9362  C     
5    C        22.5490   22.6883   24.5464  C     
6    C        23.9756   23.0470   24.5531  C     
7    N        24.8615   22.1008   24.2412  N     
8    O        24.3542   24.1896   24.8070  O     
9    O        19.7364   23.8036   26.6720  O     
10   C        26.3047   22.1609   24.1751  C     
11   C        26.7027   22.3940   22.7910  C     
12   N        27.4814   23.4226   22.4635  N     
13   O        26.2728   21.6573   21.9132  O     
14   C        26.8686   20.8090   24.7271  C     
15   C        28.3169   20.4642   24.6121  C     
16   C        28.6532   19.0900   24.4450  C     
17   C        30.0002   18.6953   24.3214  C     
18   C        31.0277   19.6496   24.3859  C     
19   C        30.7020   21.0136   24.5711  C     
20   C        29.3604   21.4170   24.6958  C     
21   C        27.9454   23.7234   21.1522  C     
22   C        21.6239   23.8085   23.9487  C     
23   C        21.8804   24.3004   22.4836  C     
24   C        22.6984   23.3373   21.5784  C     
25   C        20.5291   24.6438   21.7766  C     
26   H        21.0525   24.6911   27.8561  H     
27   H        22.6774   21.3513   26.2724  H     
28   H        21.0424   21.7256   25.7908  H     
29   H        22.4224   21.8455   23.8518  H     
30   H        24.4802   21.2313   24.0342  H     
31   H        19.4907   24.7113   26.3930  H     
32   H        26.6706   22.9644   24.8177  H     
33   H        27.8123   23.9892   23.1921  H     
34   H        26.6181   20.7778   25.7971  H     
35   H        26.3021   19.9979   24.2537  H     
36   H        27.9182   18.3724   24.4075  H     
37   H        30.2285   17.7044   24.2013  H     
38   H        32.0078   19.3572   24.2990  H     
39   H        31.4495   21.7030   24.6250  H     
40   H        29.1551   22.4010   24.8696  H     
41   H        28.5694   22.9094   20.7778  H     
42   H        28.5331   24.6402   21.1641  H     
43   H        27.1065   23.8703   20.4735  H     
44   H        20.5842   23.4461   24.0325  H     
45   H        21.6884   24.6913   24.6079  H     
46   H        22.4401   25.2463   22.5504  H     
47   H        23.7476   23.3373   21.8810  H     
48   H        22.6377   23.6785   20.5380  H     
49   H        22.2972   22.3119   21.6418  H     
50   H        19.9688   23.7184   21.5643  H     
51   H        20.7294   25.1615   20.8305  H     
52   H        19.9129   25.2990   22.4063  H     
@<TRIPOS>BOND
     1    1    2 2
     2    1    3 am
     3    1    4 1
     4    3    9 1
     5    4    5 1
     6    5    6 1
     7    5   22 1
     8    6    7 am
     9    6    8 2
    10    7   10 1
    11   10   11 1
    12   10   14 1
    13   11   12 am
    14   11   13 2
    15   12   21 1
    16   14   15 1
    17   15   16 2
    18   15   20 1
    19   16   17 1
    20   17   18 2
    21   18   19 1
    22   19   20 2
    23   22   23 1
    24   23   24 1
    25   23   25 1
    26    3   26 1
    27    4   27 1
    28    4   28 1
    29    5   29 1
    30    7   30 1
    31    9   31 1
    32   10   32 1
    33   12   33 1
    34   14   34 1
    35   14   35 1
    36   16   36 1
    37   17   37 1
    38   18   38 1
    39   19   39 1
    40   20   40 1
    41   21   41 1
    42   21   42 1
    43   21   43 1
    44   22   44 1
    45   22   45 1
    46   23   46 1
    47   24   47 1
    48   24   48 1
    49   24   49 1
    50   25   50 1
    51   25   51 1
    52   25   52 1
@<TRIPOS>PROPERTY_DATA
  Total_Score	| 10.7020
  Crash		| -1.3371
  Polar		| 9.0549
  FragIndex	| 1
  FragRMSD	| 0.914

