@<TRIPOS>MOLECULE
BindingDB_50381096
 45 48 0 0 0
SMALL
NO_CHARGES


@<TRIPOS>ATOM
1    C       -52.9922  -17.7761   30.3801  C     
2    C       -52.1437  -16.7823   30.9561  C     
3    C       -51.6486  -15.7513   30.1115  C     
4    C       -53.2955  -17.7772   29.0051  C     
5    C       -52.7523  -16.7636   28.2006  C     
6    C       -51.9576  -15.7674   28.7482  C     
7    N       -51.6301  -14.9304   27.7580  N     
8    C       -52.1790  -15.3547   26.6310  C     
9    C       -52.8679  -16.4794   26.8763  C     
10   C       -51.7653  -16.7894   32.4177  C     
11   C       -50.2089  -16.8212   32.6293  C     
12   C       -52.4429  -15.5563   33.1189  C     
13   O       -52.2950  -17.9412   33.0899  O     
14   C       -52.0279  -14.7109   25.4247  C     
15   N       -51.2484  -13.6320   25.2030  N     
16   N       -51.3392  -13.2684   23.9554  N     
17   C       -52.6386  -15.0037   24.2096  C     
18   C       -52.1810  -14.0791   23.2998  C     
19   C       -52.7028  -14.2009   22.0016  C     
20   C       -53.6142  -15.2637   21.8715  C     
21   S       -53.7331  -16.0511   23.4041  S     
22   C       -49.4424  -17.8967   31.8182  C     
23   C       -52.1315  -15.3586   34.6225  C     
24   C       -54.3362  -15.6244   20.6409  C     
25   F       -53.4391  -16.1206   19.7341  F     
26   F       -55.3029  -16.5813   20.8418  F     
27   H       -53.3847  -18.5289   30.9493  H     
28   H       -51.0478  -15.0110   30.4792  H     
29   H       -53.8921  -18.4970   28.5941  H     
30   H       -51.1319  -14.1146   27.8947  H     
31   H       -53.3876  -17.0142   26.2184  H     
32   H       -49.7859  -15.8425   32.3875  H     
33   H       -49.9904  -17.0117   33.6844  H     
34   H       -52.1594  -14.6327   32.6137  H     
35   H       -53.5304  -15.6471   33.0213  H     
36   H       -51.9389  -18.7268   32.6204  H     
37   H       -50.8448  -12.5350   23.5665  H     
38   H       -52.4512  -13.5637   21.2406  H     
39   H       -49.8515  -18.8866   32.0158  H     
40   H       -48.3877  -17.8926   32.1026  H     
41   H       -49.5016  -17.6970   30.7473  H     
42   H       -52.3305  -16.2706   35.1907  H     
43   H       -52.7563  -14.5572   35.0321  H     
44   H       -51.0850  -15.0767   34.7598  H     
45   H       -54.8136  -14.7300   20.2363  H     
@<TRIPOS>BOND
     1    1    2 2
     2    1    4 1
     3    2    3 1
     4    2   10 1
     5    3    6 2
     6    4    5 2
     7    5    6 1
     8    5    9 1
     9    6    7 1
    10    7    8 1
    11    8    9 2
    12    8   14 1
    13   10   11 1
    14   10   12 1
    15   10   13 1
    16   11   22 1
    17   12   23 1
    18   14   15 2
    19   14   17 1
    20   15   16 1
    21   16   18 1
    22   17   18 2
    23   17   21 1
    24   18   19 1
    25   19   20 2
    26   20   21 1
    27   20   24 1
    28   24   25 1
    29   24   26 1
    30    1   27 1
    31    3   28 1
    32    4   29 1
    33    7   30 1
    34    9   31 1
    35   11   32 1
    36   11   33 1
    37   12   34 1
    38   12   35 1
    39   13   36 1
    40   16   37 1
    41   19   38 1
    42   22   39 1
    43   22   40 1
    44   22   41 1
    45   23   42 1
    46   23   43 1
    47   23   44 1
    48   24   45 1
@<TRIPOS>PROPERTY_DATA
  Total_Score	| 9.5228
  Crash		| -0.9653
  Polar		| 3.5620
  FragIndex	| 1
  FragRMSD	| 0.310

