@<TRIPOS>MOLECULE
BindingDB_50381093
 63 67 0 0 0
SMALL
NO_CHARGES


@<TRIPOS>ATOM
1    C       -53.0553  -17.8371   30.3183  C     
2    C       -52.1952  -16.8636   30.9128  C     
3    C       -51.6403  -15.8713   30.0557  C     
4    C       -53.3563  -17.8392   28.9327  C     
5    C       -52.7740  -16.8428   28.1262  C     
6    C       -51.9315  -15.8888   28.6854  C     
7    N       -51.6161  -15.0182   27.7192  N     
8    C       -52.1909  -15.3915   26.5843  C     
9    C       -52.9175  -16.4956   26.8191  C     
10   C       -51.9297  -16.8039   32.3955  C     
11   C       -50.3962  -16.8839   32.7198  C     
12   C       -52.5986  -15.5089   32.9889  C     
13   O       -52.5158  -17.9163   33.0745  O     
14   C       -52.0478  -14.7044   25.3930  C     
15   N       -51.3485  -13.5582   25.2344  N     
16   N       -51.3899  -13.1696   23.9948  N     
17   C       -52.5219  -15.0379   24.1313  C     
18   C       -52.1015  -14.0421   23.2707  C     
19   C       -52.4772  -14.1761   21.9274  C     
20   C       -53.2089  -15.3453   21.6885  C     
21   S       -53.3864  -16.1879   23.1859  S     
22   C       -49.5960  -17.9241   31.8938  C     
23   C       -52.4531  -15.2818   34.5138  C     
24   O       -54.3602  -18.6398   28.4714  O     
25   C       -53.9942  -19.7016   27.5720  C     
26   C       -55.2802  -20.1382   26.8133  C     
27   N       -56.1938  -18.9759   26.5501  N     
28   C       -57.6531  -19.2566   26.7590  C     
29   C       -58.2830  -20.0070   25.5578  C     
30   O       -58.0647  -19.2586   24.3405  O     
31   C       -56.6732  -19.0151   24.0510  C     
32   C       -55.9742  -18.2786   25.2317  C     
33   H       -53.5202  -18.5366   30.8996  H     
34   H       -51.0332  -15.1350   30.4122  H     
35   H       -51.1265  -14.1946   27.8674  H     
36   H       -53.4833  -16.9736   26.1551  H     
37   H       -49.9277  -15.9079   32.5820  H     
38   H       -50.2640  -17.1560   33.7676  H     
39   H       -52.2124  -14.6165   32.4864  H     
40   H       -53.6779  -15.5369   32.7798  H     
41   H       -53.4888  -17.7982   33.0295  H     
42   H       -50.9209  -12.3937   23.6446  H     
43   H       -52.2355  -13.5015   21.1997  H     
44   H       -53.5681  -15.6534   20.7896  H     
45   H       -50.0357  -18.9201   31.9999  H     
46   H       -48.5624  -17.9565   32.2522  H     
47   H       -49.5818  -17.6488   30.8354  H     
48   H       -52.7944  -16.1605   35.0641  H     
49   H       -53.0559  -14.4186   34.8205  H     
50   H       -51.4073  -15.0722   34.7704  H     
51   H       -53.2409  -19.3740   26.8473  H     
52   H       -53.5948  -20.5382   28.1513  H     
53   H       -54.9910  -20.6210   25.8654  H     
54   H       -55.7821  -20.9050   27.4210  H     
55   H       -55.9609  -18.2850   27.2585  H     
56   H       -57.8174  -19.8212   27.6824  H     
57   H       -58.1803  -18.3070   26.8876  H     
58   H       -57.8713  -21.0135   25.4629  H     
59   H       -59.3624  -20.1035   25.7187  H     
60   H       -56.1725  -19.9569   23.8302  H     
61   H       -56.6107  -18.3936   23.1514  H     
62   H       -56.3756  -17.2674   25.2939  H     
63   H       -54.9078  -18.1782   25.0171  H     
@<TRIPOS>BOND
     1    1    2 2
     2    1    4 1
     3    2    3 1
     4    2   10 1
     5    3    6 2
     6    4    5 2
     7    4   24 1
     8    5    6 1
     9    5    9 1
    10    6    7 1
    11    7    8 1
    12    8    9 2
    13    8   14 1
    14   10   11 1
    15   10   12 1
    16   10   13 1
    17   11   22 1
    18   12   23 1
    19   14   15 2
    20   14   17 1
    21   15   16 1
    22   16   18 1
    23   17   18 2
    24   17   21 1
    25   18   19 1
    26   19   20 2
    27   20   21 1
    28   24   25 1
    29   25   26 1
    30   26   27 1
    31   27   28 1
    32   27   32 1
    33   28   29 1
    34   29   30 1
    35   30   31 1
    36   31   32 1
    37    1   33 1
    38    3   34 1
    39    7   35 1
    40    9   36 1
    41   11   37 1
    42   11   38 1
    43   12   39 1
    44   12   40 1
    45   13   41 1
    46   16   42 1
    47   19   43 1
    48   20   44 1
    49   22   45 1
    50   22   46 1
    51   22   47 1
    52   23   48 1
    53   23   49 1
    54   23   50 1
    55   25   51 1
    56   25   52 1
    57   26   53 1
    58   26   54 1
    59   27   55 1
    60   28   56 1
    61   28   57 1
    62   29   58 1
    63   29   59 1
    64   31   60 1
    65   31   61 1
    66   32   62 1
    67   32   63 1
@<TRIPOS>PROPERTY_DATA
  Total_Score	| 10.3267
  Crash		| -0.9916
  Polar		| 2.8064
  FragIndex	| 1
  FragRMSD	| 0.764

