@<TRIPOS>MOLECULE
BindingDB_50338046
 44 47 0 0 0
SMALL
NO_CHARGES


@<TRIPOS>ATOM
1    C       -54.3082  -16.1736   22.8861  C     
2    C       -53.8667  -15.2889   21.8633  C     
3    C       -52.8406  -14.3421   22.1247  C     
4    C       -53.7107  -16.1006   24.1601  C     
5    C       -52.6940  -15.1696   24.4101  C     
6    C       -52.2650  -14.3113   23.4103  C     
7    N       -51.2992  -13.5744   23.9734  N     
8    N       -51.1408  -13.9221   25.1849  N     
9    C       -51.9388  -14.8777   25.5121  C     
10   C       -51.9904  -15.4397   26.7815  C     
11   N       -52.8565  -16.3600   27.2674  N     
12   C       -51.1447  -15.0780   27.8287  C     
13   C       -51.5601  -15.7659   28.9531  C     
14   C       -52.6273  -16.5767   28.5749  C     
15   C       -53.2810  -17.3809   29.5292  C     
16   C       -52.8370  -17.3507   30.8746  C     
17   C       -51.7680  -16.4978   31.2477  C     
18   C       -51.1170  -15.7011   30.2837  C     
19   N       -55.2785  -17.1132   22.7696  N     
20   C       -55.8639  -17.6119   21.6979  C     
21   C       -56.8219  -18.6742   21.9075  C     
22   O       -55.5458  -17.2652   20.5716  O     
23   O       -56.1078  -19.8717   22.2762  O     
24   C       -56.9203  -21.0621   22.2904  C     
25   O       -53.4885  -18.0577   31.8522  O     
26   C       -53.1037  -19.4420   31.9213  C     
27   H       -54.2857  -15.3370   20.9236  H     
28   H       -52.5088  -13.6955   21.3966  H     
29   H       -54.0085  -16.7262   24.8998  H     
30   H       -50.7882  -12.8714   23.5334  H     
31   H       -53.5757  -16.7721   26.7712  H     
32   H       -50.3902  -14.3935   27.8001  H     
33   H       -54.0813  -17.9616   29.2626  H     
34   H       -51.4748  -16.4431   32.2284  H     
35   H       -50.3626  -15.0668   30.5556  H     
36   H       -55.5777  -17.4804   23.6192  H     
37   H       -57.5247  -18.3789   22.6978  H     
38   H       -57.3830  -18.8516   20.9867  H     
39   H       -57.5054  -21.0946   23.2139  H     
40   H       -56.2587  -21.9305   22.2737  H     
41   H       -57.5900  -21.1351   21.4291  H     
42   H       -53.4243  -19.9794   31.0249  H     
43   H       -53.6025  -19.8854   32.7838  H     
44   H       -52.0241  -19.5626   32.0545  H     
@<TRIPOS>BOND
     1    1    2 2
     2    1    4 1
     3    1   19 1
     4    2    3 1
     5    3    6 2
     6    4    5 2
     7    5    6 1
     8    5    9 1
     9    6    7 1
    10    7    8 1
    11    8    9 2
    12    9   10 1
    13   10   11 1
    14   10   12 2
    15   11   14 1
    16   12   13 1
    17   13   14 2
    18   13   18 1
    19   14   15 1
    20   15   16 2
    21   16   17 1
    22   16   25 1
    23   17   18 2
    24   19   20 am
    25   20   21 1
    26   20   22 2
    27   21   23 1
    28   23   24 1
    29   25   26 1
    30    2   27 1
    31    3   28 1
    32    4   29 1
    33    7   30 1
    34   11   31 1
    35   12   32 1
    36   15   33 1
    37   17   34 1
    38   18   35 1
    39   19   36 1
    40   21   37 1
    41   21   38 1
    42   24   39 1
    43   24   40 1
    44   24   41 1
    45   26   42 1
    46   26   43 1
    47   26   44 1
@<TRIPOS>PROPERTY_DATA
  Total_Score	| 8.0959
  Crash		| -1.0854
  Polar		| 3.3978
  FragIndex	| 1
  FragRMSD	| 1.187

