@<TRIPOS>MOLECULE
BindingDB_50331277
 32 35 0 0 0
SMALL
NO_CHARGES


@<TRIPOS>ATOM
1    C       -52.9198  -17.0522   28.9651  C     
2    C       -52.0296  -16.4857   29.9063  C     
3    C       -51.1155  -15.5056   29.4802  C     
4    N       -52.8960  -16.6490   27.6628  N     
5    C       -52.0176  -15.7049   27.2327  C     
6    C       -51.1272  -15.1375   28.1249  C     
7    N       -50.4111  -14.2704   27.4112  N     
8    N       -50.8118  -14.2651   26.2022  N     
9    C       -51.7696  -15.1095   26.0245  C     
10   C       -52.4377  -15.3429   24.8341  C     
11   N       -53.4693  -16.1991   24.7198  N     
12   C       -52.1958  -14.7851   23.5747  C     
13   C       -53.1216  -15.3359   22.6987  C     
14   C       -53.8970  -16.2160   23.4520  C     
15   C       -54.9301  -16.9634   22.8606  C     
16   C       -55.2004  -16.7953   21.4785  C     
17   C       -54.3974  -15.9088   20.7191  C     
18   C       -53.3531  -15.1755   21.3212  C     
19   O       -56.1592  -17.5023   20.7818  O     
20   C       -57.3249  -17.9545   21.4877  C     
21   H       -53.5874  -17.7664   29.2608  H     
22   H       -52.0491  -16.7860   30.8845  H     
23   H       -50.4672  -15.0707   30.1371  H     
24   H       -49.7045  -13.7204   27.7743  H     
25   H       -53.8395  -16.7207   25.4495  H     
26   H       -51.4645  -14.1145   23.3259  H     
27   H       -55.4713  -17.6267   23.4261  H     
28   H       -54.5678  -15.8003   19.7129  H     
29   H       -52.7774  -14.5427   20.7741  H     
30   H       -57.0580  -18.7203   22.2167  H     
31   H       -58.0241  -18.3994   20.7601  H     
32   H       -57.8435  -17.1364   21.9878  H     
@<TRIPOS>BOND
     1    1    2 2
     2    1    4 1
     3    2    3 1
     4    3    6 2
     5    4    5 2
     6    5    6 1
     7    5    9 1
     8    6    7 1
     9    7    8 1
    10    8    9 2
    11    9   10 1
    12   10   11 1
    13   10   12 2
    14   11   14 1
    15   12   13 1
    16   13   14 2
    17   13   18 1
    18   14   15 1
    19   15   16 2
    20   16   17 1
    21   16   19 1
    22   17   18 2
    23   19   20 1
    24    1   21 1
    25    2   22 1
    26    3   23 1
    27    7   24 1
    28   11   25 1
    29   12   26 1
    30   15   27 1
    31   17   28 1
    32   18   29 1
    33   20   30 1
    34   20   31 1
    35   20   32 1
@<TRIPOS>PROPERTY_DATA
  Total_Score	| 4.2380
  Crash		| -2.1103
  Polar		| 1.2717
  FragIndex	| 1
  FragRMSD	| 1.215

