@<TRIPOS>MOLECULE
BindingDB_50338048
 47 51 0 0 0
SMALL
NO_CHARGES


@<TRIPOS>ATOM
1    C       -54.2110  -16.2899   22.5361  C     
2    C       -53.6546  -15.3905   21.5893  C     
3    C       -52.6837  -14.4402   21.9723  C     
4    C       -53.7371  -16.2560   23.8758  C     
5    C       -52.7602  -15.3075   24.2473  C     
6    C       -52.2575  -14.4240   23.3058  C     
7    N       -51.3467  -13.6835   23.9409  N     
8    N       -51.2701  -14.0495   25.1511  N     
9    C       -52.0843  -15.0135   25.4034  C     
10   C       -52.2124  -15.5969   26.6504  C     
11   N       -53.1873  -16.4422   27.0532  N     
12   C       -51.3775  -15.3652   27.7453  C     
13   C       -51.8965  -16.0756   28.8172  C     
14   C       -53.0278  -16.7389   28.3530  C     
15   C       -53.8121  -17.5209   29.2171  C     
16   C       -53.4413  -17.6124   30.5780  C     
17   C       -52.2750  -16.9512   31.0392  C     
18   C       -51.4921  -16.1757   30.1589  C     
19   N       -55.1341  -17.2049   22.1029  N     
20   C       -56.2298  -17.6230   22.7269  C     
21   O       -56.6134  -17.1119   23.7768  O     
22   O       -54.1808  -18.3759   31.4416  O     
23   C       -57.0896  -18.4937   22.0897  C     
24   C       -55.2853  -17.6687   32.0298  C     
25   C       -56.7850  -19.8738   21.9910  C     
26   C       -57.6698  -20.7579   21.3474  C     
27   C       -58.8620  -20.2736   20.7770  C     
28   C       -59.1744  -18.9032   20.8680  C     
29   C       -58.3031  -18.0237   21.5315  C     
30   H       -53.9684  -15.4122   20.6139  H     
31   H       -52.2991  -13.7795   21.2963  H     
32   H       -54.0691  -16.9425   24.5519  H     
33   H       -50.8097  -12.9876   23.5356  H     
34   H       -53.9208  -16.7552   26.5062  H     
35   H       -50.5564  -14.7549   27.7744  H     
36   H       -54.6444  -17.9996   28.8677  H     
37   H       -51.9999  -17.0274   32.0211  H     
38   H       -50.6594  -15.6815   30.4916  H     
39   H       -55.0059  -17.5261   21.1946  H     
40   H       -54.9429  -16.8155   32.6180  H     
41   H       -55.8088  -18.3516   32.6974  H     
42   H       -55.9927  -17.3294   31.2706  H     
43   H       -55.9166  -20.2380   22.3856  H     
44   H       -57.4529  -21.7565   21.2881  H     
45   H       -59.5034  -20.9171   20.3033  H     
46   H       -60.0393  -18.5541   20.4495  H     
47   H       -58.5452  -17.0321   21.5867  H     
@<TRIPOS>BOND
     1    1    2 2
     2    1    4 1
     3    1   19 1
     4    2    3 1
     5    3    6 2
     6    4    5 2
     7    5    6 1
     8    5    9 1
     9    6    7 1
    10    7    8 1
    11    8    9 2
    12    9   10 1
    13   10   11 1
    14   10   12 2
    15   11   14 1
    16   12   13 1
    17   13   14 2
    18   13   18 1
    19   14   15 1
    20   15   16 2
    21   16   17 1
    22   16   22 1
    23   17   18 2
    24   19   20 am
    25   20   21 2
    26   20   23 1
    27   22   24 1
    28   23   25 2
    29   23   29 1
    30   25   26 1
    31   26   27 2
    32   27   28 1
    33   28   29 2
    34    2   30 1
    35    3   31 1
    36    4   32 1
    37    7   33 1
    38   11   34 1
    39   12   35 1
    40   15   36 1
    41   17   37 1
    42   18   38 1
    43   19   39 1
    44   24   40 1
    45   24   41 1
    46   24   42 1
    47   25   43 1
    48   26   44 1
    49   27   45 1
    50   28   46 1
    51   29   47 1
@<TRIPOS>PROPERTY_DATA
  Total_Score	| 7.4568
  Crash		| -0.9459
  Polar		| 2.0507
  FragIndex	| 1
  FragRMSD	| 0.911

