@<TRIPOS>MOLECULE
BindingDB_50381094
 42 45 0 0 0
SMALL
NO_CHARGES


@<TRIPOS>ATOM
1    C       -52.8652  -17.8289   30.4058  C     
2    C       -52.1256  -16.7651   31.0021  C     
3    C       -51.6193  -15.7562   30.1370  C     
4    C       -53.1069  -17.8867   29.0138  C     
5    C       -52.6155  -16.8537   28.2036  C     
6    C       -51.8859  -15.8125   28.7606  C     
7    N       -51.5800  -14.9702   27.7686  N     
8    C       -52.0746  -15.4331   26.6302  C     
9    C       -52.6994  -16.5930   26.8713  C     
10   C       -51.7861  -16.7353   32.4829  C     
11   C       -50.2465  -16.9507   32.6987  C     
12   C       -52.2423  -15.3937   33.1829  C     
13   O       -52.3868  -17.8288   33.1946  O     
14   C       -51.9635  -14.7836   25.4229  C     
15   N       -51.3277  -13.6061   25.2419  N     
16   N       -51.3890  -13.2583   23.9910  N     
17   C       -52.4242  -15.1738   24.1732  C     
18   C       -52.0606  -14.1796   23.2916  C     
19   C       -52.4420  -14.3715   21.9559  C     
20   C       -53.1197  -15.5809   21.7554  C     
21   S       -53.2449  -16.3888   23.2748  S     
22   C       -49.5940  -18.1008   31.8927  C     
23   C       -53.6267  -15.4038   33.8659  C     
24   H       -53.2134  -18.6019   30.9755  H     
25   H       -51.0389  -14.9929   30.4911  H     
26   H       -53.6318  -18.6594   28.6007  H     
27   H       -51.1376  -14.1201   27.9015  H     
28   H       -53.1931  -17.1497   26.2134  H     
29   H       -49.6997  -16.0267   32.4827  H     
30   H       -50.0797  -17.1657   33.7575  H     
31   H       -51.5298  -15.1162   33.9612  H     
32   H       -52.2237  -14.5719   32.4651  H     
33   H       -53.3478  -17.7683   33.0311  H     
34   H       -50.9655  -12.4716   23.6192  H     
35   H       -52.2514  -13.6966   21.2158  H     
36   H       -53.4734  -15.9313   20.8643  H     
37   H       -50.1611  -19.0272   32.0061  H     
38   H       -48.5789  -18.2686   32.2543  H     
39   H       -49.5440  -17.8462   30.8325  H     
40   H       -54.3959  -15.7360   33.1703  H     
41   H       -53.8798  -14.4065   34.2264  H     
42   H       -53.6112  -16.0738   34.7259  H     
@<TRIPOS>BOND
     1    1    2 2
     2    1    4 1
     3    2    3 1
     4    2   10 1
     5    3    6 2
     6    4    5 2
     7    5    6 1
     8    5    9 1
     9    6    7 1
    10    7    8 1
    11    8    9 2
    12    8   14 1
    13   10   11 1
    14   10   12 1
    15   10   13 1
    16   11   22 1
    17   12   23 1
    18   14   15 2
    19   14   17 1
    20   15   16 1
    21   16   18 1
    22   17   18 2
    23   17   21 1
    24   18   19 1
    25   19   20 2
    26   20   21 1
    27    1   24 1
    28    3   25 1
    29    4   26 1
    30    7   27 1
    31    9   28 1
    32   11   29 1
    33   11   30 1
    34   12   31 1
    35   12   32 1
    36   13   33 1
    37   16   34 1
    38   19   35 1
    39   20   36 1
    40   22   37 1
    41   22   38 1
    42   22   39 1
    43   23   40 1
    44   23   41 1
    45   23   42 1
@<TRIPOS>PROPERTY_DATA
  Total_Score	| 8.7892
  Crash		| -0.6550
  Polar		| 2.8147
  FragIndex	| 1
  FragRMSD	| 0.399

