@<TRIPOS>MOLECULE
BindingDB_50381091
 56 60 0 0 0
SMALL
NO_CHARGES


@<TRIPOS>ATOM
1    C       -52.9712  -17.7883   30.9769  C     
2    C       -52.0733  -16.7715   31.3929  C     
3    C       -51.6105  -15.8627   30.4030  C     
4    C       -53.4018  -17.8983   29.6361  C     
5    C       -52.9103  -16.9981   28.6719  C     
6    C       -52.0260  -16.0100   29.0679  C     
7    N       -51.7631  -15.2747   27.9888  N     
8    C       -52.4187  -15.7461   26.9333  C     
9    C       -53.1464  -16.8194   27.3200  C     
10   C       -51.6190  -16.6611   32.8209  C     
11   C       -50.0527  -16.7307   32.9296  C     
12   C       -52.1397  -15.3340   33.4821  C     
13   O       -52.0750  -17.7379   33.6494  O     
14   C       -52.1971  -15.1544   25.6960  C     
15   N       -51.2166  -14.2384   25.4806  N     
16   N       -51.1865  -13.8691   24.2378  N     
17   C       -52.8148  -15.3124   24.4612  C     
18   C       -52.1433  -14.5086   23.5635  C     
19   C       -52.5893  -14.5050   22.2289  C     
20   C       -53.6666  -15.3789   22.0362  C     
21   S       -54.0631  -16.0840   23.5538  S     
22   C       -49.3839  -17.8357   32.0654  C     
23   C       -53.5519  -15.4035   34.1165  C     
24   C       -54.1058  -17.5571   26.6346  C     
25   C       -55.3282  -16.9589   26.2709  C     
26   C       -56.3705  -17.7042   25.6920  C     
27   C       -56.2344  -19.0889   25.5132  C     
28   C       -55.0441  -19.7236   25.9278  C     
29   C       -53.9932  -18.9681   26.4825  C     
30   O       -57.3066  -19.7951   25.0298  O     
31   C       -57.0295  -20.5400   23.8415  C     
32   H       -53.3404  -18.4687   31.6434  H     
33   H       -50.9695  -15.0995   30.6390  H     
34   H       -54.0717  -18.6193   29.3788  H     
35   H       -51.2343  -14.4640   28.0090  H     
36   H       -49.6097  -15.7707   32.6427  H     
37   H       -49.7660  -16.9080   33.9760  H     
38   H       -51.4465  -15.0304   34.2737  H     
39   H       -52.1479  -14.5355   32.7434  H     
40   H       -53.0538  -17.7592   33.5664  H     
41   H       -50.5752  -13.2098   23.8594  H     
42   H       -52.1722  -13.9388   21.4866  H     
43   H       -54.1433  -15.5500   21.1534  H     
44   H       -49.8209  -18.8129   32.2926  H     
45   H       -48.3083  -17.8702   32.2887  H     
46   H       -49.5095  -17.6192   31.0039  H     
47   H       -54.2966  -15.6939   33.3652  H     
48   H       -53.8215  -14.4235   34.5133  H     
49   H       -53.5779  -16.1292   34.9404  H     
50   H       -55.5068  -15.9821   26.4888  H     
51   H       -57.2615  -17.2432   25.4676  H     
52   H       -54.9694  -20.7367   25.8680  H     
53   H       -53.1564  -19.4603   26.8002  H     
54   H       -56.6534  -19.9030   23.0409  H     
55   H       -57.9593  -21.0032   23.5233  H     
56   H       -56.3131  -21.3345   24.0493  H     
@<TRIPOS>BOND
     1    1    2 2
     2    1    4 1
     3    2    3 1
     4    2   10 1
     5    3    6 2
     6    4    5 2
     7    5    6 1
     8    5    9 1
     9    6    7 1
    10    7    8 1
    11    8    9 2
    12    8   14 1
    13    9   24 1
    14   10   11 1
    15   10   12 1
    16   10   13 1
    17   11   22 1
    18   12   23 1
    19   14   15 2
    20   14   17 1
    21   15   16 1
    22   16   18 1
    23   17   18 2
    24   17   21 1
    25   18   19 1
    26   19   20 2
    27   20   21 1
    28   24   25 2
    29   24   29 1
    30   25   26 1
    31   26   27 2
    32   27   28 1
    33   27   30 1
    34   28   29 2
    35   30   31 1
    36    1   32 1
    37    3   33 1
    38    4   34 1
    39    7   35 1
    40   11   36 1
    41   11   37 1
    42   12   38 1
    43   12   39 1
    44   13   40 1
    45   16   41 1
    46   19   42 1
    47   20   43 1
    48   22   44 1
    49   22   45 1
    50   22   46 1
    51   23   47 1
    52   23   48 1
    53   23   49 1
    54   25   50 1
    55   26   51 1
    56   28   52 1
    57   29   53 1
    58   31   54 1
    59   31   55 1
    60   31   56 1
@<TRIPOS>PROPERTY_DATA
  Total_Score	| 7.0250
  Crash		| -2.5588
  Polar		| 2.8316
  FragIndex	| 1
  FragRMSD	| 0.769

