@<TRIPOS>MOLECULE
BindingDB_50381097
 52 56 0 0 0
SMALL
NO_CHARGES


@<TRIPOS>ATOM
1    C       -52.4925  -17.9125   30.7456  C     
2    C       -51.8898  -16.7419   31.2921  C     
3    C       -51.4707  -15.7245   30.3891  C     
4    C       -52.6726  -18.0732   29.3585  C     
5    C       -52.2367  -17.0472   28.5099  C     
6    C       -51.6505  -15.8955   29.0079  C     
7    N       -51.3830  -15.1020   27.9595  N     
8    C       -51.7942  -15.6987   26.8474  C     
9    C       -52.2845  -16.9049   27.1693  C     
10   C       -51.6750  -16.5774   32.7772  C     
11   C       -50.1462  -16.4781   33.1105  C     
12   C       -52.4956  -15.3385   33.2857  C     
13   O       -52.1571  -17.7109   33.5165  O     
14   C       -51.8647  -15.0990   25.6036  C     
15   N       -51.3866  -13.8926   25.2265  N     
16   N       -51.8318  -13.5931   24.0334  N     
17   C       -52.6590  -15.5240   24.5530  C     
18   C       -52.6605  -14.5515   23.5860  C     
19   C       -53.5530  -14.7858   22.5205  C     
20   C       -54.2774  -15.9912   22.6482  C     
21   S       -53.7696  -16.7473   24.1089  S     
22   C       -49.2743  -17.6374   32.5613  C     
23   C       -52.4513  -15.0559   34.8066  C     
24   C       -55.4723  -16.4251   22.0352  C     
25   C       -56.5591  -15.5272   21.9232  C     
26   C       -57.8478  -15.9918   21.6003  C     
27   C       -58.0631  -17.3616   21.3773  C     
28   C       -56.9919  -18.2674   21.4766  C     
29   C       -55.7033  -17.8015   21.8001  C     
30   H       -52.8034  -18.6746   31.3498  H     
31   H       -51.0318  -14.8638   30.7224  H     
32   H       -53.1076  -18.9183   28.9802  H     
33   H       -51.0405  -14.1977   28.0357  H     
34   H       -52.6834  -17.5774   26.5595  H     
35   H       -49.7421  -15.5356   32.7320  H     
36   H       -50.0150  -16.4675   34.1948  H     
37   H       -52.1604  -14.4330   32.7761  H     
38   H       -53.5464  -15.4835   33.0162  H     
39   H       -53.1254  -17.7396   33.3634  H     
40   H       -51.6417  -12.7618   23.5709  H     
41   H       -53.7268  -14.0991   21.7845  H     
42   H       -49.6361  -18.5991   32.9295  H     
43   H       -48.2427  -17.5086   32.8914  H     
44   H       -49.2854  -17.6527   31.4711  H     
45   H       -52.7688  -15.9329   35.3740  H     
46   H       -53.1261  -14.2311   35.0452  H     
47   H       -51.4450  -14.7714   35.1187  H     
48   H       -56.4409  -14.5405   22.1549  H     
49   H       -58.6322  -15.3407   21.5567  H     
50   H       -59.0042  -17.7057   21.1703  H     
51   H       -57.1581  -19.2655   21.3402  H     
52   H       -54.9461  -18.4848   21.9119  H     
@<TRIPOS>BOND
     1    1    2 2
     2    1    4 1
     3    2    3 1
     4    2   10 1
     5    3    6 2
     6    4    5 2
     7    5    6 1
     8    5    9 1
     9    6    7 1
    10    7    8 1
    11    8    9 2
    12    8   14 1
    13   10   11 1
    14   10   12 1
    15   10   13 1
    16   11   22 1
    17   12   23 1
    18   14   15 2
    19   14   17 1
    20   15   16 1
    21   16   18 1
    22   17   18 2
    23   17   21 1
    24   18   19 1
    25   19   20 2
    26   20   21 1
    27   20   24 1
    28   24   25 2
    29   24   29 1
    30   25   26 1
    31   26   27 2
    32   27   28 1
    33   28   29 2
    34    1   30 1
    35    3   31 1
    36    4   32 1
    37    7   33 1
    38    9   34 1
    39   11   35 1
    40   11   36 1
    41   12   37 1
    42   12   38 1
    43   13   39 1
    44   16   40 1
    45   19   41 1
    46   22   42 1
    47   22   43 1
    48   22   44 1
    49   23   45 1
    50   23   46 1
    51   23   47 1
    52   25   48 1
    53   26   49 1
    54   27   50 1
    55   28   51 1
    56   29   52 1
@<TRIPOS>PROPERTY_DATA
  Total_Score	| 5.9208
  Crash		| -2.6913
  Polar		| 1.9300
  FragIndex	| 1
  FragRMSD	| 0.794

