@<TRIPOS>MOLECULE
BindingDB_50381092
 36 39 0 0 0
SMALL
NO_CHARGES


@<TRIPOS>ATOM
1    C       -52.8058  -17.9531   30.2900  C     
2    C       -52.1108  -16.8763   30.9175  C     
3    C       -51.6575  -15.8101   30.0911  C     
4    C       -53.0421  -17.9757   28.8981  C     
5    C       -52.5873  -16.8988   28.1211  C     
6    C       -51.9113  -15.8429   28.7120  C     
7    N       -51.6203  -14.9685   27.7428  N     
8    C       -52.0717  -15.4336   26.5843  C     
9    C       -52.6649  -16.6151   26.7942  C     
10   C       -51.8375  -16.8480   32.4015  C     
11   C       -50.3165  -16.6833   32.6832  C     
12   C       -52.6575  -15.7231   33.0989  C     
13   O       -52.2370  -18.0615   33.0561  O     
14   C       -51.9465  -14.7678   25.3813  C     
15   N       -51.3485  -13.5660   25.2302  N     
16   N       -51.3963  -13.1956   23.9830  N     
17   C       -52.3595  -15.1548   24.1125  C     
18   C       -52.0183  -14.1315   23.2567  C     
19   C       -52.3596  -14.3127   21.9111  C     
20   C       -52.9738  -15.5493   21.6696  C     
21   S       -53.1066  -16.3847   23.1723  S     
22   H       -53.1435  -18.7428   30.8399  H     
23   H       -51.1555  -15.0101   30.4780  H     
24   H       -53.5287  -18.7595   28.4574  H     
25   H       -51.1868  -14.1153   27.8999  H     
26   H       -53.1146  -17.1835   26.1183  H     
27   H       -49.7493  -17.4642   32.1783  H     
28   H       -50.1181  -16.7589   33.7541  H     
29   H       -49.9470  -15.7120   32.3419  H     
30   H       -52.3419  -14.7327   32.7703  H     
31   H       -52.5246  -15.7717   34.1797  H     
32   H       -53.7234  -15.8301   32.8787  H     
33   H       -51.7102  -18.7839   32.6467  H     
34   H       -50.9796  -12.3982   23.6241  H     
35   H       -52.1859  -13.6131   21.1904  H     
36   H       -53.2903  -15.8950   20.7616  H     
@<TRIPOS>BOND
     1    1    2 2
     2    1    4 1
     3    2    3 1
     4    2   10 1
     5    3    6 2
     6    4    5 2
     7    5    6 1
     8    5    9 1
     9    6    7 1
    10    7    8 1
    11    8    9 2
    12    8   14 1
    13   10   11 1
    14   10   12 1
    15   10   13 1
    16   14   15 2
    17   14   17 1
    18   15   16 1
    19   16   18 1
    20   17   18 2
    21   17   21 1
    22   18   19 1
    23   19   20 2
    24   20   21 1
    25    1   22 1
    26    3   23 1
    27    4   24 1
    28    7   25 1
    29    9   26 1
    30   11   27 1
    31   11   28 1
    32   11   29 1
    33   12   30 1
    34   12   31 1
    35   12   32 1
    36   13   33 1
    37   16   34 1
    38   19   35 1
    39   20   36 1
@<TRIPOS>PROPERTY_DATA
  Total_Score	| 8.0015
  Crash		| -0.3583
  Polar		| 2.8085
  FragIndex	| 1
  FragRMSD	| 0.221

