@<TRIPOS>MOLECULE
BindingDB_8043
 34 36 0 0 0
SMALL
NO_CHARGES


@<TRIPOS>ATOM
1    C        15.8127   42.9855   25.4960  C     
2    C        15.9338   44.0511   23.4530  C     
3    C        14.5624   44.3186   23.6817  C     
4    N        16.5665   43.3692   24.4494  N     
5    C        16.2843   42.2425   26.6696  C     
6    C        16.7342   44.4693   22.2874  C     
7    S        14.2348   43.5936   25.2139  S     
8    C        13.5713   45.0497   22.9678  C     
9    C        13.6715   45.5133   21.6360  C     
10   C        12.6034   46.2480   21.0887  C     
11   C        11.3801   46.0584   23.1181  C     
12   N        12.4114   45.3390   23.6308  N     
13   N        11.5017   46.5003   21.8373  N     
14   N        10.2287   46.3404   23.7772  N     
15   C         9.8384   46.0553   25.0616  C     
16   C         7.9503   45.8547   26.6268  C     
17   C         8.4513   46.0734   25.3256  C     
18   C        10.7127   45.8214   26.1486  C     
19   C        10.2206   45.6101   27.4528  C     
20   C         8.8361   45.6233   27.6934  C     
21   Cl        8.2392   45.3628   29.2580  Cl    
22   H        16.6614   41.2683   26.3577  H     
23   H        15.4781   42.0938   27.3933  H     
24   H        17.0932   42.7931   27.1499  H     
25   H        16.3604   43.9813   21.3858  H     
26   H        17.7871   44.1933   22.4056  H     
27   H        16.6785   45.5541   22.1642  H     
28   H        14.4905   45.3463   21.0563  H     
29   H        12.6503   46.5873   20.1233  H     
30   H         9.5557   46.7912   23.2429  H     
31   H         6.9415   45.8648   26.7931  H     
32   H         7.7833   46.2436   24.5675  H     
33   H        11.7222   45.8410   26.0230  H     
34   H        10.8745   45.4764   28.2275  H     
@<TRIPOS>BOND
     1    1    4 2
     2    1    5 1
     3    1    7 1
     4    2    3 2
     5    2    4 1
     6    2    6 1
     7    3    7 1
     8    3    8 1
     9    8    9 1
    10    8   12 2
    11    9   10 2
    12   10   13 1
    13   11   12 1
    14   11   13 2
    15   11   14 1
    16   14   15 1
    17   15   17 1
    18   15   18 2
    19   16   17 2
    20   16   20 1
    21   18   19 1
    22   19   20 2
    23   20   21 1
    24    5   22 1
    25    5   23 1
    26    5   24 1
    27    6   25 1
    28    6   26 1
    29    6   27 1
    30    9   28 1
    31   10   29 1
    32   14   30 1
    33   16   31 1
    34   17   32 1
    35   18   33 1
    36   19   34 1
@<TRIPOS>PROPERTY_DATA
  Total_Score	| 5.9046
  Crash		| -1.1427
  Polar		| 2.0694
  FragIndex	| 1
  FragRMSD	| 0.543

