@<TRIPOS>MOLECULE
BindingDB_8066
 42 44 0 0 0
SMALL
NO_CHARGES


@<TRIPOS>ATOM
1    C        15.8736   42.8748   25.5102  C     
2    C        16.0654   43.9861   23.4978  C     
3    C        14.6802   44.2290   23.6793  C     
4    N        16.6665   43.2792   24.4971  N     
5    C        16.9178   44.4557   22.3860  C     
6    S        14.2992   43.4716   25.1806  S     
7    C        13.7153   44.9714   22.9472  C     
8    C        13.8620   45.4086   21.6112  C     
9    C        12.8281   46.1632   21.0310  C     
10   C        11.5519   46.0250   23.0209  C     
11   N        12.5497   45.2920   23.5803  N     
12   N        11.7097   46.4528   21.7414  N     
13   N        10.3900   46.3469   23.6349  N     
14   C         9.9348   46.0527   24.8900  C     
15   C         7.9694   45.8528   26.3441  C     
16   C         8.5414   46.1196   25.0904  C     
17   C        10.7357   45.7481   26.0083  C     
18   C        10.1591   45.5135   27.2717  C     
19   C         8.7499   45.5480   27.4925  C     
20   C        16.3070   42.1293   26.6980  C     
21   N         8.1744   45.3148   28.7312  N     
22   C         8.9814   45.1361   29.9253  C     
23   C         6.7336   45.2445   28.8981  C     
24   H        16.6199   43.9685   21.4523  H     
25   H        17.9746   44.2127   22.5688  H     
26   H        16.8328   45.5420   22.2811  H     
27   H        14.6819   45.1849   21.0480  H     
28   H        12.9097   46.4887   20.0656  H     
29   H         9.7547   46.8189   23.0739  H     
30   H         6.9550   45.9234   26.4094  H     
31   H         7.9200   46.3490   24.3099  H     
32   H        11.7514   45.7282   25.9231  H     
33   H        10.8003   45.3091   28.0396  H     
34   H        16.6846   41.1543   26.3990  H     
35   H        15.4770   41.9919   27.3926  H     
36   H        17.1046   42.6729   27.2049  H     
37   H         9.5778   44.2289   29.8402  H     
38   H         8.4092   45.0609   30.8533  H     
39   H         9.6486   45.9928   30.0481  H     
40   H         6.2859   46.2170   28.6825  H     
41   H         6.4067   44.9557   29.8970  H     
42   H         6.3209   44.5033   28.2152  H     
@<TRIPOS>BOND
     1    1    4 2
     2    1    6 1
     3    1   20 1
     4    2    3 2
     5    2    4 1
     6    2    5 1
     7    3    6 1
     8    3    7 1
     9    7    8 1
    10    7   11 2
    11    8    9 2
    12    9   12 1
    13   10   11 1
    14   10   12 2
    15   10   13 1
    16   13   14 1
    17   14   16 1
    18   14   17 2
    19   15   16 2
    20   15   19 1
    21   17   18 1
    22   18   19 2
    23   19   21 1
    24   21   22 1
    25   21   23 1
    26    5   24 1
    27    5   25 1
    28    5   26 1
    29    8   27 1
    30    9   28 1
    31   13   29 1
    32   15   30 1
    33   16   31 1
    34   17   32 1
    35   18   33 1
    36   20   34 1
    37   20   35 1
    38   20   36 1
    39   22   37 1
    40   22   38 1
    41   22   39 1
    42   23   40 1
    43   23   41 1
    44   23   42 1
@<TRIPOS>PROPERTY_DATA
  Total_Score	| 7.3096
  Crash		| -1.5865
  Polar		| 1.8732
  FragIndex	| 1
  FragRMSD	| 0.637

