@<TRIPOS>MOLECULE
BindingDB_7641
 28 30 0 0 0
SMALL
NO_CHARGES


@<TRIPOS>ATOM
1    C        13.4263   -7.1074   10.8045  C     
2    C        15.7319   -5.6692   10.4081  C     
3    C        14.6451   -5.4655    9.6327  C     
4    C        13.4949   -6.1820    9.8255  C     
5    C        14.7272   -8.1924   12.6603  C     
6    C        16.0632   -7.9481   13.0551  C     
7    C        15.6400   -6.6336   11.4039  C     
8    N        14.5008   -7.3428   11.6157  N     
9    N        16.5898   -7.0056   12.2579  N     
10   C        16.9166   -8.5056   14.1198  C     
11   C        13.7963   -9.1347   13.2193  C     
12   C        11.5981  -10.1059   13.0746  C     
13   C        14.0510   -9.9866   14.3236  C     
14   C        13.0438  -10.8592   14.7626  C     
15   N        12.5647   -9.2547   12.6536  N     
16   N        11.8448  -10.9057   14.1340  N     
17   N        10.4132  -10.1510   12.4520  N     
18   H        12.5816   -7.6094   10.8994  H     
19   H        16.5673   -5.1493   10.2712  H     
20   H        14.6834   -4.7945    8.9023  H     
21   H        12.7132   -6.0295    9.2293  H     
22   H        16.4754   -8.3175   15.1010  H     
23   H        17.8997   -8.0304   14.1025  H     
24   H        17.0555   -9.5765   13.9647  H     
25   H        14.9354  -10.0178   14.8176  H     
26   H        13.2283  -11.4913   15.5391  H     
27   H         9.7260  -10.7550   12.7717  H     
28   H        10.2352   -9.5606   11.7042  H     
@<TRIPOS>BOND
     1    1    4 2
     2    1    8 1
     3    2    3 2
     4    2    7 1
     5    3    4 1
     6    5    6 2
     7    5    8 1
     8    5   11 1
     9    6    9 1
    10    6   10 1
    11    7    8 1
    12    7    9 2
    13   11   13 1
    14   11   15 2
    15   12   15 1
    16   12   16 2
    17   12   17 1
    18   13   14 2
    19   14   16 1
    20    1   18 1
    21    2   19 1
    22    3   20 1
    23    4   21 1
    24   10   22 1
    25   10   23 1
    26   10   24 1
    27   13   25 1
    28   14   26 1
    29   17   27 1
    30   17   28 1
@<TRIPOS>PROPERTY_DATA
  Total_Score	| 5.2510
  Crash		| -0.6757
  Polar		| 3.4747
  FragIndex	| 1
  FragRMSD	| 0.420

