@<TRIPOS>MOLECULE
BindingDB_7644
 42 45 0 0 0
SMALL
NO_CHARGES


@<TRIPOS>ATOM
1    C        13.5067   -6.6179   11.2970  C     
2    C        15.9822   -5.5857   10.6919  C     
3    C        14.8649   -5.0827   10.1273  C     
4    C        13.6264   -5.5943   10.4238  C     
5    C        14.7932   -8.1813   12.7378  C     
6    C        16.1827   -8.2690   12.9524  C     
7    C        15.8394   -6.6451   11.5786  C     
8    N        14.6168   -7.1570   11.8651  N     
9    N        16.7934   -7.3138   12.2311  N     
10   C        16.9597   -9.2537   13.7295  C     
11   C        13.7849   -9.0531   13.2403  C     
12   C        11.7411  -10.2298   12.7756  C     
13   C        13.8191   -9.6520   14.5199  C     
14   C        12.8026  -10.5575   14.8684  C     
15   N        12.7353   -9.3646   12.4338  N     
16   N        11.8050  -10.8295   13.9927  N     
17   N        10.7116  -10.5446   11.9517  N     
18   C        10.3725   -9.9394   10.8144  C     
19   O        10.8524   -8.8596   10.4987  O     
20   N         9.4337  -10.3814    9.9905  N     
21   C         8.8827  -11.6265    9.8882  C     
22   C         7.7333  -14.1620    9.3610  C     
23   C         7.0036  -12.9894    9.0984  C     
24   C         7.5818  -11.7298    9.3451  C     
25   C         9.6080  -12.8154   10.1411  C     
26   C         9.0391  -14.0743    9.8759  C     
27   H        12.6049   -6.9597   11.5169  H     
28   H        16.8790   -5.2196   10.4737  H     
29   H        14.9400   -4.3264    9.4867  H     
30   H        12.8175   -5.2061    9.9976  H     
31   H        16.7918   -9.1089   14.7962  H     
32   H        18.0292   -9.1378   13.5398  H     
33   H        16.6692  -10.2658   13.4454  H     
34   H        14.5448   -9.4322   15.2009  H     
35   H        12.8039  -11.0064   15.7838  H     
36   H        10.1410  -11.2743   12.2475  H     
37   H         9.1347   -9.7421    9.3226  H     
38   H         7.3207  -15.0770    9.1662  H     
39   H         6.0593  -13.0518    8.7101  H     
40   H         7.0493  -10.8858    9.1174  H     
41   H        10.5733  -12.7738   10.4709  H     
42   H         9.5846  -14.9245   10.0357  H     
@<TRIPOS>BOND
     1    1    4 2
     2    1    8 1
     3    2    3 2
     4    2    7 1
     5    3    4 1
     6    5    6 2
     7    5    8 1
     8    5   11 1
     9    6    9 1
    10    6   10 1
    11    7    8 1
    12    7    9 2
    13   11   13 1
    14   11   15 2
    15   12   15 1
    16   12   16 2
    17   12   17 1
    18   13   14 2
    19   14   16 1
    20   17   18 am
    21   18   19 2
    22   18   20 am
    23   20   21 1
    24   21   24 1
    25   21   25 2
    26   22   23 1
    27   22   26 2
    28   23   24 2
    29   25   26 1
    30    1   27 1
    31    2   28 1
    32    3   29 1
    33    4   30 1
    34   10   31 1
    35   10   32 1
    36   10   33 1
    37   13   34 1
    38   14   35 1
    39   17   36 1
    40   20   37 1
    41   22   38 1
    42   23   39 1
    43   24   40 1
    44   25   41 1
    45   26   42 1
@<TRIPOS>PROPERTY_DATA
  Total_Score	| 6.7757
  Crash		| -0.9424
  Polar		| 2.8555
  FragIndex	| 1
  FragRMSD	| 0.185

