@<TRIPOS>MOLECULE
BindingDB_7642
 33 35 0 0 0
SMALL
NO_CHARGES


@<TRIPOS>ATOM
1    C        13.5094   -6.6689   11.1868  C     
2    C        15.9713   -5.6013   10.5993  C     
3    C        14.8536   -5.1538    9.9720  C     
4    C        13.6197   -5.6714   10.2819  C     
5    C        14.8120   -8.2022   12.7009  C     
6    C        16.2217   -8.2033   12.9275  C     
7    C        15.8337   -6.6379   11.5100  C     
8    N        14.6220   -7.1936   11.8005  N     
9    N        16.8066   -7.2523   12.1926  N     
10   C        17.0789   -9.0562   13.7741  C     
11   C        13.8009   -9.0887   13.2310  C     
12   C        11.6238  -10.1033   12.9430  C     
13   C        13.9245   -9.7976   14.4656  C     
14   C        12.8851  -10.6648   14.8586  C     
15   N        12.6408   -9.2738   12.5355  N     
16   N        11.7690  -10.8046   14.1011  N     
17   N        10.4596  -10.3131   12.2899  N     
18   C        10.0242   -9.7418   11.1685  C     
19   C         8.7322  -10.1553   10.6674  C     
20   O        10.6604   -8.8835   10.5578  O     
21   H        12.5978   -7.0082   11.3854  H     
22   H        16.8730   -5.2258   10.3918  H     
23   H        14.9276   -4.4119    9.3193  H     
24   H        12.8052   -5.3017    9.8231  H     
25   H        16.8277   -8.8824   14.8273  H     
26   H        18.1495   -8.8302   13.6459  H     
27   H        16.9087  -10.1177   13.5162  H     
28   H        14.7262   -9.6792   15.0884  H     
29   H        12.9813  -11.1712   15.7393  H     
30   H         9.8576  -10.9687   12.7024  H     
31   H         8.7608  -11.2310   10.4444  H     
32   H         8.4736   -9.6180    9.7478  H     
33   H         7.9582   -9.9556   11.4218  H     
@<TRIPOS>BOND
     1    1    4 2
     2    1    8 1
     3    2    3 2
     4    2    7 1
     5    3    4 1
     6    5    6 2
     7    5    8 1
     8    5   11 1
     9    6    9 1
    10    6   10 1
    11    7    8 1
    12    7    9 2
    13   11   13 1
    14   11   15 2
    15   12   15 1
    16   12   16 2
    17   12   17 1
    18   13   14 2
    19   14   16 1
    20   17   18 am
    21   18   19 1
    22   18   20 2
    23    1   21 1
    24    2   22 1
    25    3   23 1
    26    4   24 1
    27   10   25 1
    28   10   26 1
    29   10   27 1
    30   13   28 1
    31   14   29 1
    32   17   30 1
    33   19   31 1
    34   19   32 1
    35   19   33 1
@<TRIPOS>PROPERTY_DATA
  Total_Score	| 7.1293
  Crash		| -0.6890
  Polar		| 3.3978
  FragIndex	| 1
  FragRMSD	| 0.177

