@<TRIPOS>MOLECULE
BindingDB_7643
 33 35 0 0 0
SMALL
NO_CHARGES


@<TRIPOS>ATOM
1    C        13.5017   -6.7423   11.2328  C     
2    C        15.9456   -5.6401   10.6264  C     
3    C        14.8190   -5.1893   10.0377  C     
4    C        13.5961   -5.7333   10.3351  C     
5    C        14.8176   -8.2267   12.7151  C     
6    C        16.2067   -8.2948   12.9219  C     
7    C        15.8307   -6.6914   11.5301  C     
8    N        14.6207   -7.2327   11.8144  N     
9    N        16.7986   -7.3324   12.1902  N     
10   C        16.9848   -9.2770   13.7012  C     
11   C        13.8271   -9.0856   13.2767  C     
12   C        11.7354  -10.2242   12.9878  C     
13   C        13.9152   -9.6106   14.5902  C     
14   C        12.8923  -10.4684   15.0384  C     
15   N        12.7281   -9.4103   12.5345  N     
16   N        11.8342  -10.7488   14.2340  N     
17   N        10.6071  -10.5004   12.2936  N     
18   C        10.2328  -10.0368   11.1079  C     
19   O        10.9615   -9.3246   10.4272  O     
20   C         8.8888  -10.3399   10.6445  C     
21   F         8.5903   -9.7637    9.4298  F     
22   F         8.7260  -11.6984   10.5201  F     
23   F         7.9742   -9.8712   11.5567  F     
24   H        12.6066   -7.1059   11.4502  H     
25   H        16.8337   -5.2377   10.4168  H     
26   H        14.8730   -4.4410    9.3817  H     
27   H        12.7767   -5.3765    9.9011  H     
28   H        16.7250   -9.2063   14.7629  H     
29   H        18.0636   -9.0974   13.5771  H     
30   H        16.7711  -10.2956   13.3538  H     
31   H        14.7097   -9.3609   15.2107  H     
32   H        12.9353  -10.8612   15.9775  H     
33   H         9.9590  -11.0655   12.7508  H     
@<TRIPOS>BOND
     1    1    4 2
     2    1    8 1
     3    2    3 2
     4    2    7 1
     5    3    4 1
     6    5    6 2
     7    5    8 1
     8    5   11 1
     9    6    9 1
    10    6   10 1
    11    7    8 1
    12    7    9 2
    13   11   13 1
    14   11   15 2
    15   12   15 1
    16   12   16 2
    17   12   17 1
    18   13   14 2
    19   14   16 1
    20   17   18 am
    21   18   19 2
    22   18   20 1
    23   20   21 1
    24   20   22 1
    25   20   23 1
    26    1   24 1
    27    2   25 1
    28    3   26 1
    29    4   27 1
    30   10   28 1
    31   10   29 1
    32   10   30 1
    33   13   31 1
    34   14   32 1
    35   17   33 1
@<TRIPOS>PROPERTY_DATA
  Total_Score	| 7.3497
  Crash		| -0.6574
  Polar		| 3.4325
  FragIndex	| 1
  FragRMSD	| 0.076

