@<TRIPOS>MOLECULE
BindingDB_7656
 35 38 0 0 0
SMALL
NO_CHARGES


@<TRIPOS>ATOM
1    C        13.5467   -7.1062   11.0329  C     
2    C        15.9178   -5.7768   10.5801  C     
3    C        14.8625   -5.6408    9.7350  C     
4    C        13.6757   -6.2982    9.9593  C     
5    C        14.7686   -8.1177   12.9420  C     
6    C        16.0782   -7.8934   13.3791  C     
7    C        15.7846   -6.6573   11.6502  C     
8    N        14.6100   -7.3146   11.8547  N     
9    N        16.6916   -7.0150   12.5767  N     
10   C        13.8513   -9.0567   13.5011  C     
11   C        11.8133  -10.3052   13.1821  C     
12   C        14.0204   -9.6774   14.7595  C     
13   C        13.0473  -10.5915   15.1895  C     
14   N        12.7511   -9.4080   12.7869  N     
15   N        11.9771  -10.8770   14.4024  N     
16   N        10.7050  -10.6160   12.4584  N     
17   C        10.3182  -10.1271   11.2363  C     
18   C        11.1929   -9.5091   10.2999  C     
19   C        10.7021   -8.9576    9.0984  C     
20   C         9.3360   -9.0651    8.8048  C     
21   C         8.4646   -9.7287    9.6855  C     
22   C         8.9535  -10.2578   10.8930  C     
23   Cl       11.7587   -8.1800    8.0166  Cl    
24   H        12.6661   -7.5347   11.1944  H     
25   H        16.7703   -5.2954   10.4258  H     
26   H        14.9465   -5.0396    8.9475  H     
27   H        12.9048   -6.1941    9.3253  H     
28   H        16.5378   -8.3409   14.1743  H     
29   H        14.8179   -9.4746   15.3587  H     
30   H        13.1225  -11.0351   16.1048  H     
31   H        10.0643  -11.1990   12.9051  H     
32   H        12.1985   -9.4489   10.4791  H     
33   H         8.9539   -8.6323    7.9639  H     
34   H         7.4767   -9.7971    9.4598  H     
35   H         8.2979  -10.7017   11.5434  H     
@<TRIPOS>BOND
     1    1    4 2
     2    1    8 1
     3    2    3 2
     4    2    7 1
     5    3    4 1
     6    5    6 2
     7    5    8 1
     8    5   10 1
     9    6    9 1
    10    7    8 1
    11    7    9 2
    12   10   12 1
    13   10   14 2
    14   11   14 1
    15   11   15 2
    16   11   16 1
    17   12   13 2
    18   13   15 1
    19   16   17 1
    20   17   18 2
    21   17   22 1
    22   18   19 1
    23   19   20 2
    24   19   23 1
    25   20   21 1
    26   21   22 2
    27    1   24 1
    28    2   25 1
    29    3   26 1
    30    4   27 1
    31    6   28 1
    32   12   29 1
    33   13   30 1
    34   16   31 1
    35   18   32 1
    36   20   33 1
    37   21   34 1
    38   22   35 1
@<TRIPOS>PROPERTY_DATA
  Total_Score	| 6.1406
  Crash		| -1.2359
  Polar		| 4.2162
  FragIndex	| 1
  FragRMSD	| 0.386

