@<TRIPOS>MOLECULE
BindingDB_7657
 40 43 0 0 0
SMALL
NO_CHARGES


@<TRIPOS>ATOM
1    C        13.3945   -6.8598   11.0177  C     
2    C        15.7754   -5.5374   10.6029  C     
3    C        14.6401   -5.1512    9.9714  C     
4    C        13.4636   -5.8186   10.1636  C     
5    C        14.7363   -8.3079   12.5017  C     
6    C        16.1258   -8.2912   12.7344  C     
7    C        15.7004   -6.6542   11.4391  C     
8    N        14.5139   -7.2808   11.6523  N     
9    N        16.6987   -7.2684   12.0979  N     
10   C        13.8063   -9.2025   13.1102  C     
11   C        11.7551  -10.4589   12.9509  C     
12   C        13.9270   -9.6139   14.4619  C     
13   C        12.9416  -10.4515   15.0067  C     
14   N        12.7139   -9.6388   12.4204  N     
15   N        11.8856  -10.8321   14.2508  N     
16   N        10.6716  -10.9470   12.2992  N     
17   C        10.3018  -10.7474   10.9982  C     
18   C        10.1533   -9.4681   10.4340  C     
19   C         9.7387   -9.3131    9.0935  C     
20   C         9.4867  -10.4422    8.2895  C     
21   C         9.5940  -11.7226    8.8566  C     
22   C         9.9837  -11.8782   10.2034  C     
23   N         9.4746  -11.4097    5.5542  N     
24   S         8.9980  -10.2123    6.6328  S     
25   O         7.4076  -10.2315    6.6041  O     
26   O         9.4729   -8.7936    6.0683  O     
27   H        12.5444   -7.3421   11.1253  H     
28   H        16.6386   -5.0434   10.4847  H     
29   H        14.6784   -4.3656    9.3667  H     
30   H        12.6663   -5.5608    9.6352  H     
31   H        16.6500   -8.9401   13.3329  H     
32   H        14.7215   -9.3440   15.0419  H     
33   H        12.9972  -10.7581   15.9733  H     
34   H        10.1208  -11.5644   12.8084  H     
35   H        10.3223   -8.6298   11.0034  H     
36   H         9.6437   -8.3632    8.7262  H     
37   H         9.3952  -12.5533    8.3007  H     
38   H        10.0522  -12.8176   10.6007  H     
39   H         9.0660  -11.4557    4.6613  H     
40   H        10.3438  -11.8402    5.6838  H     
@<TRIPOS>BOND
     1    1    4 2
     2    1    8 1
     3    2    3 2
     4    2    7 1
     5    3    4 1
     6    5    6 2
     7    5    8 1
     8    5   10 1
     9    6    9 1
    10    7    8 1
    11    7    9 2
    12   10   12 1
    13   10   14 2
    14   11   14 1
    15   11   15 2
    16   11   16 1
    17   12   13 2
    18   13   15 1
    19   16   17 1
    20   17   18 2
    21   17   22 1
    22   18   19 1
    23   19   20 2
    24   20   21 1
    25   20   24 1
    26   21   22 2
    27   23   24 am
    28   24   25 2
    29   24   26 2
    30    1   27 1
    31    2   28 1
    32    3   29 1
    33    4   30 1
    34    6   31 1
    35   12   32 1
    36   13   33 1
    37   16   34 1
    38   18   35 1
    39   19   36 1
    40   21   37 1
    41   22   38 1
    42   23   39 1
    43   23   40 1
@<TRIPOS>PROPERTY_DATA
  Total_Score	| 6.1011
  Crash		| -0.6671
  Polar		| 4.2412
  FragIndex	| 1
  FragRMSD	| 0.464

