@<TRIPOS>MOLECULE
BindingDB_7645
 38 41 0 0 0
SMALL
NO_CHARGES


@<TRIPOS>ATOM
1    C        13.4422   -6.8531   11.1328  C     
2    C        15.8688   -5.6838   10.5802  C     
3    C        14.7361   -5.2315   10.0063  C     
4    C        13.5191   -5.8120   10.2746  C     
5    C        14.7689   -8.3150   12.6345  C     
6    C        16.1597   -8.3449   12.8600  C     
7    C        15.7642   -6.7625   11.4519  C     
8    N        14.5654   -7.3274   11.7286  N     
9    N        16.7400   -7.3741   12.1329  N     
10   C        16.9419   -9.2874   13.6859  C     
11   C        13.7771   -9.1475   13.2179  C     
12   C        11.7978  -10.4732   12.9593  C     
13   C        13.7925   -9.4652   14.5964  C     
14   C        12.7958  -10.3163   15.1012  C     
15   N        12.7636   -9.6471   12.4519  N     
16   N        11.8340  -10.7966   14.2759  N     
17   N        10.7894  -11.0105   12.2293  N     
18   C        10.4768  -10.7410   10.9361  C     
19   C        10.1569  -11.8249   10.0740  C     
20   C         9.8037  -11.5940    8.7325  C     
21   C         9.7358  -10.2752    8.2363  C     
22   C        10.0197   -9.1902    9.0932  C     
23   C        10.3727   -9.4269   10.4326  C     
24   H        12.5584   -7.2605   11.3205  H     
25   H        16.7469   -5.2619   10.3962  H     
26   H        14.7769   -4.4550    9.3818  H     
27   H        12.6980   -5.4686    9.8305  H     
28   H        16.7523   -9.1182   14.7435  H     
29   H        18.0104   -9.1566   13.5075  H     
30   H        16.6728  -10.3094   13.4224  H     
31   H        14.4907   -9.0823   15.2449  H     
32   H        12.7759  -10.5547   16.0942  H     
33   H        10.2573  -11.6952   12.6719  H     
34   H        10.2174  -12.7863   10.4155  H     
35   H         9.6163  -12.3772    8.1019  H     
36   H         9.5028  -10.1022    7.2593  H     
37   H         9.9638   -8.2347    8.7406  H     
38   H        10.5269   -8.6338   11.0592  H     
@<TRIPOS>BOND
     1    1    4 2
     2    1    8 1
     3    2    3 2
     4    2    7 1
     5    3    4 1
     6    5    6 2
     7    5    8 1
     8    5   11 1
     9    6    9 1
    10    6   10 1
    11    7    8 1
    12    7    9 2
    13   11   13 1
    14   11   15 2
    15   12   15 1
    16   12   16 2
    17   12   17 1
    18   13   14 2
    19   14   16 1
    20   17   18 1
    21   18   19 2
    22   18   23 1
    23   19   20 1
    24   20   21 2
    25   21   22 1
    26   22   23 2
    27    1   24 1
    28    2   25 1
    29    3   26 1
    30    4   27 1
    31   10   28 1
    32   10   29 1
    33   10   30 1
    34   13   31 1
    35   14   32 1
    36   17   33 1
    37   19   34 1
    38   20   35 1
    39   21   36 1
    40   22   37 1
    41   23   38 1
@<TRIPOS>PROPERTY_DATA
  Total_Score	| 7.7670
  Crash		| -0.7118
  Polar		| 3.3960
  FragIndex	| 1
  FragRMSD	| 0.489

