@<TRIPOS>MOLECULE
BindingDB_7651
 38 41 0 0 0
SMALL
NO_CHARGES


@<TRIPOS>ATOM
1    C        13.5140   -6.6308   11.2782  C     
2    C        15.9945   -5.6919   10.5552  C     
3    C        14.8738   -5.1760   10.0099  C     
4    C        13.6320   -5.6400   10.3667  C     
5    C        14.7926   -8.2226   12.6708  C     
6    C        16.1809   -8.3131   12.8896  C     
7    C        15.8509   -6.7258   11.4716  C     
8    N        14.6246   -7.2030   11.7967  N     
9    N        16.8004   -7.3839   12.1397  N     
10   C        16.9439   -9.2779   13.7061  C     
11   C        13.7818   -9.0699   13.2085  C     
12   C        11.7200  -10.2712   12.9030  C     
13   C        13.8852   -9.5914   14.5169  C     
14   C        12.8955  -10.4733   14.9677  C     
15   N        12.6928   -9.4228   12.4575  N     
16   N        11.8621  -10.7838   14.1545  N     
17   N        10.5996  -10.7187   12.2828  N     
18   C         9.9012  -10.5287   11.1103  C     
19   C         9.9800   -9.4804   10.1494  C     
20   C         9.0487   -9.4084    9.0884  C     
21   C         8.0614  -10.3914    8.9299  C     
22   C         7.9974  -11.4579    9.8335  C     
23   C         8.9000  -11.5160   10.9080  C     
24   Cl       11.1262   -8.2444   10.1678  Cl    
25   H        12.6156   -6.9128   11.5831  H     
26   H        16.8934   -5.3529   10.3043  H     
27   H        14.9481   -4.4392    9.3473  H     
28   H        12.8207   -5.2350    9.9630  H     
29   H        16.7672   -9.1012   14.7663  H     
30   H        18.0153   -9.1768   13.5227  H     
31   H        16.6450  -10.2952   13.4529  H     
32   H        14.6441   -9.3284   15.1462  H     
33   H        12.9369  -10.8694   15.9067  H     
34   H        10.1445  -11.3615   12.8505  H     
35   H         9.0489   -8.6211    8.4367  H     
36   H         7.3889  -10.3271    8.1620  H     
37   H         7.2813  -12.1795    9.7225  H     
38   H         8.8064  -12.3059   11.5537  H     
@<TRIPOS>BOND
     1    1    4 2
     2    1    8 1
     3    2    3 2
     4    2    7 1
     5    3    4 1
     6    5    6 2
     7    5    8 1
     8    5   11 1
     9    6    9 1
    10    6   10 1
    11    7    8 1
    12    7    9 2
    13   11   13 1
    14   11   15 2
    15   12   15 1
    16   12   16 2
    17   12   17 1
    18   13   14 2
    19   14   16 1
    20   17   18 1
    21   18   19 2
    22   18   23 1
    23   19   20 1
    24   19   24 1
    25   20   21 2
    26   21   22 1
    27   22   23 2
    28    1   25 1
    29    2   26 1
    30    3   27 1
    31    4   28 1
    32   10   29 1
    33   10   30 1
    34   10   31 1
    35   13   32 1
    36   14   33 1
    37   17   34 1
    38   20   35 1
    39   21   36 1
    40   22   37 1
    41   23   38 1
@<TRIPOS>PROPERTY_DATA
  Total_Score	| 7.8189
  Crash		| -1.4137
  Polar		| 4.0524
  FragIndex	| 1
  FragRMSD	| 0.340

