@<TRIPOS>MOLECULE
BindingDB_7652
 38 41 0 0 0
SMALL
NO_CHARGES


@<TRIPOS>ATOM
1    C        13.4714   -6.7432   11.3209  C     
2    C        15.9228   -5.7467   10.5629  C     
3    C        14.7805   -5.2473   10.0439  C     
4    C        13.5558   -5.7495   10.4088  C     
5    C        14.8149   -8.2054   12.8115  C     
6    C        16.2102   -8.2731   12.9851  C     
7    C        15.8149   -6.7587   11.5069  C     
8    N        14.6041   -7.2484   11.8744  N     
9    N        16.7925   -7.3649   12.1828  N     
10   C        17.0065   -9.1797   13.8321  C     
11   C        13.8317   -9.0520   13.3973  C     
12   C        11.7713  -10.2444   13.0648  C     
13   C        13.9214   -9.5962   14.6977  C     
14   C        12.9117  -10.4716   15.1309  C     
15   N        12.7499   -9.3964   12.6503  N     
16   N        11.8762  -10.7727   14.3104  N     
17   N        10.6674  -10.5674   12.3496  N     
18   C        10.2469  -10.1091   11.1312  C     
19   C        11.0782   -9.5158   10.1473  C     
20   C        10.5433   -9.0435    8.9342  C     
21   C         9.1687   -9.1939    8.6757  C     
22   C         8.3356   -9.8113    9.6232  C     
23   C         8.8721  -10.2720   10.8378  C     
24   Cl       11.5508   -8.3152    7.7822  Cl    
25   H        12.5821   -7.0756   11.5966  H     
26   H        16.8094   -5.3812   10.3040  H     
27   H        14.8291   -4.5008    9.3896  H     
28   H        12.7291   -5.3673   10.0134  H     
29   H        18.0701   -9.1017   13.5979  H     
30   H        16.6941  -10.2106   13.6717  H     
31   H        16.8740   -8.9175   14.8821  H     
32   H        14.6792   -9.3549   15.3350  H     
33   H        12.9406  -10.8702   16.0687  H     
34   H        10.0361  -11.1397   12.8144  H     
35   H        12.0840   -9.4483   10.2874  H     
36   H         8.7603   -8.8373    7.8113  H     
37   H         7.3381   -9.9216    9.4273  H     
38   H         8.2428  -10.7085   11.5176  H     
@<TRIPOS>BOND
     1    1    4 2
     2    1    8 1
     3    2    3 2
     4    2    7 1
     5    3    4 1
     6    5    6 2
     7    5    8 1
     8    5   11 1
     9    6    9 1
    10    6   10 1
    11    7    8 1
    12    7    9 2
    13   11   13 1
    14   11   15 2
    15   12   15 1
    16   12   16 2
    17   12   17 1
    18   13   14 2
    19   14   16 1
    20   17   18 1
    21   18   19 2
    22   18   23 1
    23   19   20 1
    24   20   21 2
    25   20   24 1
    26   21   22 1
    27   22   23 2
    28    1   25 1
    29    2   26 1
    30    3   27 1
    31    4   28 1
    32   10   29 1
    33   10   30 1
    34   10   31 1
    35   13   32 1
    36   14   33 1
    37   17   34 1
    38   19   35 1
    39   21   36 1
    40   22   37 1
    41   23   38 1
@<TRIPOS>PROPERTY_DATA
  Total_Score	| 7.8388
  Crash		| -1.2971
  Polar		| 3.8387
  FragIndex	| 1
  FragRMSD	| 0.151

