@<TRIPOS>MOLECULE
BindingDB_7646
 58 61 0 0 0
SMALL
NO_CHARGES


@<TRIPOS>ATOM
1    C        13.5003   -6.7094   11.3449  C     
2    C        15.9631   -5.7385   10.6114  C     
3    C        14.8391   -5.2988   10.0095  C     
4    C        13.6069   -5.7730   10.3762  C     
5    C        14.8184   -8.1774   12.8670  C     
6    C        16.2121   -8.2470   13.0543  C     
7    C        15.8406   -6.7187   11.5819  C     
8    N        14.6229   -7.2083   11.9320  N     
9    N        16.8072   -7.3383   12.2600  N     
10   C        16.9982   -9.1863   13.8748  C     
11   C        13.8124   -9.0171   13.4211  C     
12   C        11.7151  -10.1184   13.0398  C     
13   C        13.8623   -9.5720   14.7203  C     
14   C        12.8041  -10.4040   15.1342  C     
15   N        12.7343   -9.3160   12.6430  N     
16   N        11.7721  -10.6496   14.2903  N     
17   N        10.6242  -10.3776   12.2742  N     
18   C        10.3510   -9.9445   11.0020  C     
19   C        11.3286   -9.4165   10.1227  C     
20   C        10.9895   -8.9716    8.8298  C     
21   C         9.6663   -9.0748    8.3708  C     
22   C         8.6765   -9.5939    9.2346  C     
23   C         9.0215  -10.0304   10.5313  C     
24   O         9.4005   -8.6136    7.1089  O     
25   C         8.9122   -9.5929    6.1706  C     
26   C         9.3357   -9.2150    4.7237  C     
27   C         8.4116   -8.1873    4.0097  C     
28   N         7.9197   -7.0363    4.8345  N     
29   C         8.9737   -6.0492    5.2266  C     
30   C         6.7535   -6.3493    4.2045  C     
31   O        10.6949   -8.7755    4.7213  O     
32   H        12.5995   -7.0099   11.6297  H     
33   H        16.8606   -5.3985   10.3428  H     
34   H        14.9047   -4.6201    9.2900  H     
35   H        12.7852   -5.4178    9.9361  H     
36   H        16.8348   -8.9843   14.9343  H     
37   H        18.0709   -9.0857   13.6691  H     
38   H        16.7000  -10.2125   13.6498  H     
39   H        14.6159   -9.3577   15.3774  H     
40   H        12.7882  -10.8001   16.0744  H     
41   H         9.9315  -10.9078   12.7039  H     
42   H        12.3094   -9.3649   10.3956  H     
43   H        11.7163   -8.5783    8.2235  H     
44   H         7.7041   -9.6501    8.9193  H     
45   H         8.2874  -10.4022   11.1406  H     
46   H         9.3255  -10.5841    6.3823  H     
47   H         7.8206   -9.6646    6.2289  H     
48   H         9.3155  -10.1318    4.1220  H     
49   H         8.9264   -7.8083    3.1184  H     
50   H         7.5482   -8.7610    3.6594  H     
51   H         7.5649   -7.4449    5.6990  H     
52   H         9.7334   -6.5163    5.8641  H     
53   H         8.5383   -5.2237    5.7995  H     
54   H         9.4633   -5.6355    4.3418  H     
55   H         7.0468   -5.8293    3.2872  H     
56   H         6.3235   -5.6251    4.9001  H     
57   H         5.9664   -7.0674    3.9620  H     
58   H        11.2129   -9.5334    5.0759  H     
@<TRIPOS>BOND
     1    1    4 2
     2    1    8 1
     3    2    3 2
     4    2    7 1
     5    3    4 1
     6    5    6 2
     7    5    8 1
     8    5   11 1
     9    6    9 1
    10    6   10 1
    11    7    8 1
    12    7    9 2
    13   11   13 1
    14   11   15 2
    15   12   15 1
    16   12   16 2
    17   12   17 1
    18   13   14 2
    19   14   16 1
    20   17   18 1
    21   18   19 2
    22   18   23 1
    23   19   20 1
    24   20   21 2
    25   21   22 1
    26   21   24 1
    27   22   23 2
    28   24   25 1
    29   25   26 1
    30   26   27 1
    31   26   31 1
    32   27   28 1
    33   28   29 1
    34   28   30 1
    35    1   32 1
    36    2   33 1
    37    3   34 1
    38    4   35 1
    39   10   36 1
    40   10   37 1
    41   10   38 1
    42   13   39 1
    43   14   40 1
    44   17   41 1
    45   19   42 1
    46   20   43 1
    47   22   44 1
    48   23   45 1
    49   25   46 1
    50   25   47 1
    51   26   48 1
    52   27   49 1
    53   27   50 1
    54   28   51 1
    55   29   52 1
    56   29   53 1
    57   29   54 1
    58   30   55 1
    59   30   56 1
    60   30   57 1
    61   31   58 1
@<TRIPOS>PROPERTY_DATA
  Total_Score	| 10.7308
  Crash		| -2.1697
  Polar		| 6.5425
  FragIndex	| 1
  FragRMSD	| 0.156

