@<TRIPOS>MOLECULE
BindingDB_7653
 38 41 0 0 0
SMALL
NO_CHARGES


@<TRIPOS>ATOM
1    C        13.4502   -6.8751   11.0958  C     
2    C        15.8809   -5.7042   10.5452  C     
3    C        14.7554   -5.2432    9.9844  C     
4    C        13.5269   -5.8056   10.2831  C     
5    C        14.7888   -8.3681   12.5820  C     
6    C        16.1828   -8.3725   12.8266  C     
7    C        15.7864   -6.7996   11.4019  C     
8    N        14.5788   -7.3818   11.6765  N     
9    N        16.7578   -7.3889   12.1073  N     
10   C        16.9903   -9.2401   13.7075  C     
11   C        13.8046   -9.2302   13.1638  C     
12   C        11.7759  -10.4991   12.8924  C     
13   C        13.7855   -9.5562   14.5396  C     
14   C        12.7454  -10.3570   15.0466  C     
15   N        12.7832   -9.7200   12.3936  N     
16   N        11.7716  -10.7913   14.2187  N     
17   N        10.7053  -10.9446   12.2118  N     
18   C        10.3908  -10.8366   10.8865  C     
19   C        10.3039  -11.9925   10.0831  C     
20   C         9.7668  -11.9196    8.7763  C     
21   C         9.3301  -10.6940    8.2519  C     
22   C         9.4679   -9.5178    9.0283  C     
23   C         9.9543   -9.5971   10.3509  C     
24   Cl        8.7350  -10.6126    6.6630  Cl    
25   H        12.5590   -7.2812   11.2901  H     
26   H        16.7677   -5.2885   10.3637  H     
27   H        14.7941   -4.4640    9.3630  H     
28   H        12.7055   -5.4270    9.8727  H     
29   H        16.7769   -9.0224   14.7536  H     
30   H        18.0556   -9.0479   13.5590  H     
31   H        16.7860  -10.2910   13.4906  H     
32   H        14.4517   -9.1503   15.1955  H     
33   H        12.6746  -10.5426   16.0488  H     
34   H        10.0226  -11.3369   12.7657  H     
35   H        10.5803  -12.8957   10.4534  H     
36   H         9.6836  -12.7620    8.2022  H     
37   H         9.2098   -8.6187    8.6398  H     
38   H        10.0242   -8.7397   10.9209  H     
@<TRIPOS>BOND
     1    1    4 2
     2    1    8 1
     3    2    3 2
     4    2    7 1
     5    3    4 1
     6    5    6 2
     7    5    8 1
     8    5   11 1
     9    6    9 1
    10    6   10 1
    11    7    8 1
    12    7    9 2
    13   11   13 1
    14   11   15 2
    15   12   15 1
    16   12   16 2
    17   12   17 1
    18   13   14 2
    19   14   16 1
    20   17   18 1
    21   18   19 2
    22   18   23 1
    23   19   20 1
    24   20   21 2
    25   21   22 1
    26   21   24 1
    27   22   23 2
    28    1   25 1
    29    2   26 1
    30    3   27 1
    31    4   28 1
    32   10   29 1
    33   10   30 1
    34   10   31 1
    35   13   32 1
    36   14   33 1
    37   17   34 1
    38   19   35 1
    39   20   36 1
    40   22   37 1
    41   23   38 1
@<TRIPOS>PROPERTY_DATA
  Total_Score	| 8.1455
  Crash		| -0.6129
  Polar		| 4.4105
  FragIndex	| 1
  FragRMSD	| 0.420

