@<TRIPOS>MOLECULE
BindingDB_7655
 35 38 0 0 0
SMALL
NO_CHARGES


@<TRIPOS>ATOM
1    C        13.4755   -6.7422   11.1235  C     
2    C        15.9477   -5.6502   10.6014  C     
3    C        14.8449   -5.2104    9.9600  C     
4    C        13.6090   -5.7503   10.2152  C     
5    C        14.7302   -8.1600   12.7286  C     
6    C        16.0940   -8.1650   13.0356  C     
7    C        15.7938   -6.6692   11.5325  C     
8    N        14.5712   -7.2073   11.7775  N     
9    N        16.7311   -7.2489   12.2930  N     
10   C        13.7578   -9.0247   13.2982  C     
11   C        11.6605  -10.1599   13.0203  C     
12   C        13.9028   -9.6224   14.5711  C     
13   C        12.8840  -10.4746   15.0293  C     
14   N        12.6397   -9.3238   12.5857  N     
15   N        11.8024  -10.7184   14.2502  N     
16   N        10.5385  -10.4649   12.3270  N     
17   C        10.1318  -10.1029   11.0689  C     
18   C        10.9647   -9.5670   10.0529  C     
19   C        10.4577   -9.3021    8.7670  C     
20   C         9.1121   -9.5739    8.4714  C     
21   C         8.2668  -10.0899    9.4678  C     
22   C         8.7756  -10.3554   10.7524  C     
23   H        12.5736   -7.1133   11.3028  H     
24   H        16.8412   -5.2575   10.4180  H     
25   H        14.9290   -4.4797    9.2912  H     
26   H        12.8106   -5.4065    9.7335  H     
27   H        16.5612   -8.7806   13.7037  H     
28   H        14.7129   -9.4377   15.1670  H     
29   H        12.9488  -10.9101   15.9480  H     
30   H         9.9119  -11.0260   12.8118  H     
31   H        11.9582   -9.4019   10.2101  H     
32   H        11.0759   -8.9352    8.0392  H     
33   H         8.7518   -9.4053    7.5298  H     
34   H         7.2866  -10.2860    9.2546  H     
35   H         8.1432  -10.7464   11.4572  H     
@<TRIPOS>BOND
     1    1    4 2
     2    1    8 1
     3    2    3 2
     4    2    7 1
     5    3    4 1
     6    5    6 2
     7    5    8 1
     8    5   10 1
     9    6    9 1
    10    7    8 1
    11    7    9 2
    12   10   12 1
    13   10   14 2
    14   11   14 1
    15   11   15 2
    16   11   16 1
    17   12   13 2
    18   13   15 1
    19   16   17 1
    20   17   18 2
    21   17   22 1
    22   18   19 1
    23   19   20 2
    24   20   21 1
    25   21   22 2
    26    1   23 1
    27    2   24 1
    28    3   25 1
    29    4   26 1
    30    6   27 1
    31   12   28 1
    32   13   29 1
    33   16   30 1
    34   18   31 1
    35   19   32 1
    36   20   33 1
    37   21   34 1
    38   22   35 1
@<TRIPOS>PROPERTY_DATA
  Total_Score	| 5.8470
  Crash		| -0.9865
  Polar		| 3.4899
  FragIndex	| 1
  FragRMSD	| 0.116

