@<TRIPOS>MOLECULE
BindingDB_7647
 43 46 0 0 0
SMALL
NO_CHARGES


@<TRIPOS>ATOM
1    C        13.4643   -6.7645   11.1662  C     
2    C        15.9194   -5.6992   10.5414  C     
3    C        14.7955   -5.2306    9.9631  C     
4    C        13.5641   -5.7577   10.2707  C     
5    C        14.7716   -8.2357   12.6776  C     
6    C        16.1663   -8.2957   12.8861  C     
7    C        15.7943   -6.7331   11.4578  C     
8    N        14.5789   -7.2584   11.7616  N     
9    N        16.7600   -7.3535   12.1379  N     
10   C        16.9569   -9.2521   13.6842  C     
11   C        13.7773   -9.0626   13.2594  C     
12   C        11.7659  -10.3510   12.9945  C     
13   C        13.8188   -9.4377   14.6171  C     
14   C        12.8251  -10.2984   15.1149  C     
15   N        12.7385   -9.5329   12.5027  N     
16   N        11.8374  -10.7293   14.2943  N     
17   N        10.7324  -10.8635   12.2772  N     
18   C        10.4211  -10.6561   10.9676  C     
19   C        10.4687   -9.3958   10.3313  C     
20   C        10.1065   -9.2535    8.9815  C     
21   C         9.6894  -10.3718    8.2258  C     
22   C         9.6065  -11.6261    8.8657  C     
23   C         9.9549  -11.7661   10.2207  C     
24   O        10.3211   -9.1959    5.8048  O     
25   O         9.5644  -11.5942    5.7785  O     
26   S         9.3315  -10.2094    6.5273  S     
27   N         7.7566   -9.7655    6.1525  N     
28   H        12.5688   -7.1177   11.3968  H     
29   H        16.8174   -5.3373   10.3051  H     
30   H        14.8587   -4.4842    9.3090  H     
31   H        12.7468   -5.3896    9.8354  H     
32   H        16.7797   -9.1052   14.7504  H     
33   H        18.0283   -9.1188   13.4989  H     
34   H        16.6847  -10.2706   13.4040  H     
35   H        14.5276   -9.0834   15.2608  H     
36   H        12.8289  -10.5910   16.0945  H     
37   H        10.1783  -11.5084   12.7491  H     
38   H        10.7380   -8.5689   10.8638  H     
39   H        10.1424   -8.3262    8.5527  H     
40   H         9.2985  -12.4553    8.3490  H     
41   H         9.8963  -12.6887   10.6624  H     
42   H         7.4352   -8.8971    6.4344  H     
43   H         7.1243  -10.4359    5.8477  H     
@<TRIPOS>BOND
     1    1    4 2
     2    1    8 1
     3    2    3 2
     4    2    7 1
     5    3    4 1
     6    5    6 2
     7    5    8 1
     8    5   11 1
     9    6    9 1
    10    6   10 1
    11    7    8 1
    12    7    9 2
    13   11   13 1
    14   11   15 2
    15   12   15 1
    16   12   16 2
    17   12   17 1
    18   13   14 2
    19   14   16 1
    20   17   18 1
    21   18   19 2
    22   18   23 1
    23   19   20 1
    24   20   21 2
    25   21   22 1
    26   21   26 1
    27   22   23 2
    28   24   26 2
    29   25   26 2
    30   26   27 am
    31    1   28 1
    32    2   29 1
    33    3   30 1
    34    4   31 1
    35   10   32 1
    36   10   33 1
    37   10   34 1
    38   13   35 1
    39   14   36 1
    40   17   37 1
    41   19   38 1
    42   20   39 1
    43   22   40 1
    44   23   41 1
    45   27   42 1
    46   27   43 1
@<TRIPOS>PROPERTY_DATA
  Total_Score	| 8.3290
  Crash		| -0.8151
  Polar		| 4.5946
  FragIndex	| 1
  FragRMSD	| 0.480

