@<TRIPOS>MOLECULE
BindingDB_17682
 66 70 0 0 0
SMALL
NO_CHARGES


@<TRIPOS>ATOM
1    C        62.8475   96.2516   46.0518  C     
2    C        61.7998   97.0979   45.6360  C     
3    C        61.2434   98.0364   46.5214  C     
4    C        61.7766   98.1799   47.8281  C     
5    C        62.8148   97.3016   48.2380  C     
6    C        63.3620   96.3406   47.3647  C     
7    Cl       59.8624   98.9032   46.0236  Cl    
8    N        64.2548   95.4438   47.8834  N     
9    C        65.1796   94.7169   47.2310  C     
10   C        66.5760   93.0861   46.9172  C     
11   C        66.5335   93.8747   45.7688  C     
12   C        68.1332   92.4002   44.6984  C     
13   C        67.3144   93.5526   44.6480  C     
14   C        67.3615   91.9197   46.9753  C     
15   C        68.1483   91.5833   45.8613  C     
16   N        65.6566   94.8698   45.9744  N     
17   N        65.7636   93.6496   47.8078  N     
18   O        68.9506   92.1137   43.6498  O     
19   C        68.5366   91.2512   42.6547  C     
20   C        66.9933   89.8073   41.4424  C     
21   N        67.9633   89.5690   40.5299  N     
22   C        67.2586   90.6496   42.5360  C     
23   C        69.5044   90.9738   41.6677  C     
24   C        69.2157   90.1055   40.5851  C     
25   C        70.1436   89.8046   39.5911  C     
26   O        71.2407   90.3528   39.5926  O     
27   N        69.8567   88.9316   38.6309  N     
28   C        70.7076   88.5870   37.5408  C     
29   C        61.2062   99.1507   48.8132  C     
30   C        62.5142  101.2578   48.2688  C     
31   C        60.1862  101.4144   49.1147  C     
32   C        60.7231  101.9360   50.4801  C     
33   C        63.0036  101.8970   49.6046  C     
34   N        61.1780  100.5818   48.3573  N     
35   N        61.9578  102.7366   50.2611  N     
36   C        62.4627  103.4106   51.4862  C     
37   H        63.1842   95.5455   45.4057  H     
38   H        61.4173   96.9888   44.6912  H     
39   H        63.1652   97.3469   49.1987  H     
40   H        64.1855   95.2771   48.8409  H     
41   H        67.2917   94.1378   43.8117  H     
42   H        67.3487   91.3284   47.8097  H     
43   H        68.7279   90.7420   45.8823  H     
44   H        65.5680   93.3210   48.6992  H     
45   H        66.0746   89.3810   41.3290  H     
46   H        66.5274   90.8129   43.2281  H     
47   H        70.4276   91.4091   41.7508  H     
48   H        68.9932   88.4886   38.6673  H     
49   H        70.9105   89.4668   36.9259  H     
50   H        70.2143   87.8357   36.9222  H     
51   H        71.6495   88.1755   37.9093  H     
52   H        60.1918   98.7859   49.0032  H     
53   H        61.7329   99.1059   49.7783  H     
54   H        62.4447  102.0519   47.5183  H     
55   H        63.2866  100.5622   47.9134  H     
56   H        59.2541  100.8562   49.2903  H     
57   H        59.9119  102.2727   48.4962  H     
58   H        59.9460  102.5514   50.9366  H     
59   H        60.9129  101.0978   51.1508  H     
60   H        63.3216  101.0998   50.2790  H     
61   H        63.8770  102.5087   49.3833  H     
62   H        60.8315  100.5466   47.3825  H     
63   H        61.6885  103.4688   49.5998  H     
64   H        61.6979  104.0571   51.9181  H     
65   H        63.3184  104.0389   51.2426  H     
66   H        62.7722  102.6900   52.2445  H     
@<TRIPOS>BOND
     1    1    2 1
     2    1    6 2
     3    2    3 2
     4    3    4 1
     5    3    7 1
     6    4    5 2
     7    4   29 1
     8    5    6 1
     9    6    8 1
    10    8    9 1
    11    9   16 2
    12    9   17 1
    13   10   11 2
    14   10   14 1
    15   10   17 1
    16   11   13 1
    17   11   16 1
    18   12   13 2
    19   12   15 1
    20   12   18 1
    21   14   15 2
    22   18   19 1
    23   19   22 2
    24   19   23 1
    25   20   21 2
    26   20   22 1
    27   21   24 1
    28   23   24 2
    29   24   25 1
    30   25   26 2
    31   25   27 am
    32   27   28 1
    33   29   34 1
    34   30   33 1
    35   30   34 1
    36   31   32 1
    37   31   34 1
    38   32   35 1
    39   33   35 1
    40   35   36 1
    41    1   37 1
    42    2   38 1
    43    5   39 1
    44    8   40 1
    45   13   41 1
    46   14   42 1
    47   15   43 1
    48   17   44 1
    49   20   45 1
    50   22   46 1
    51   23   47 1
    52   27   48 1
    53   28   49 1
    54   28   50 1
    55   28   51 1
    56   29   52 1
    57   29   53 1
    58   30   54 1
    59   30   55 1
    60   31   56 1
    61   31   57 1
    62   32   58 1
    63   32   59 1
    64   33   60 1
    65   33   61 1
    66   34   62 1
    67   35   63 1
    68   36   64 1
    69   36   65 1
    70   36   66 1
@<TRIPOS>PROPERTY_DATA
  Total_Score	| 14.1177
  Crash		| -1.3456
  Polar		| 3.8960
  FragIndex	| 1
  FragRMSD	| 0.605

