@<TRIPOS>MOLECULE
BindingDB_17691
 63 68 0 0 0
SMALL
NO_CHARGES


@<TRIPOS>ATOM
1    C        62.9685   96.4096   46.0892  C     
2    C        61.9178   97.2172   45.6364  C     
3    C        61.2375   98.0778   46.5108  C     
4    C        61.6055   98.1359   47.8837  C     
5    C        62.6430   97.2843   48.3365  C     
6    C        63.3372   96.4212   47.4602  C     
7    N        64.2460   95.5497   47.9852  N     
8    C        65.1784   94.8103   47.3472  C     
9    C        66.5780   93.1569   47.0787  C     
10   C        66.4737   93.8833   45.8879  C     
11   C        67.9999   92.3037   44.8203  C     
12   C        67.2093   93.4760   44.7469  C     
13   C        67.3597   91.9969   47.1774  C     
14   C        68.0692   91.5626   46.0339  C     
15   N        65.6118   94.8923   46.0627  N     
16   N        65.8047   93.7871   47.9703  N     
17   O        68.6984   91.8535   43.7289  O     
18   C        68.0188   91.1752   42.7367  C     
19   C        66.0597   90.1484   41.6725  C     
20   N        66.7967   89.8723   40.5658  N     
21   Cl       59.9384   98.9418   45.8531  Cl    
22   C        60.9344   99.0819   48.8173  C     
23   C        62.9282  101.7404   49.1420  C     
24   C        62.1863  101.1212   47.9282  C     
25   C        60.0252  101.3960   49.1239  C     
26   C        60.7781  101.9594   50.3539  C     
27   N        60.8745  100.4902   48.2979  N     
28   N        62.0197  102.6586   49.9046  N     
29   C        62.7137  103.3621   51.0171  C     
30   C        68.1054   90.2128   40.4947  C     
31   C        68.7367   90.8509   41.5663  C     
32   C        70.0561   91.0461   41.1759  C     
33   C        70.1802   90.5288   39.8863  C     
34   N        68.9871   90.0389   39.5013  N     
35   C        66.6460   90.7983   42.7738  C     
36   H        63.4197   95.7566   45.4449  H     
37   H        61.6393   97.1517   44.6516  H     
38   H        62.8809   97.2772   49.3316  H     
39   H        64.1505   95.3644   48.9304  H     
40   H        67.1425   94.0052   43.8746  H     
41   H        67.3899   91.4705   48.0539  H     
42   H        68.6202   90.7021   46.0886  H     
43   H        65.6674   93.5260   48.8993  H     
44   H        65.0697   89.8925   41.6904  H     
45   H        59.9166   98.7047   48.9716  H     
46   H        61.4283   99.0765   49.7924  H     
47   H        63.3007  100.9396   49.7880  H     
48   H        63.7874  102.3020   48.7550  H     
49   H        61.9904  101.9100   47.2000  H     
50   H        62.8390  100.4052   47.4288  H     
51   H        59.1160  100.8843   49.4511  H     
52   H        59.6984  102.2284   48.4931  H     
53   H        60.1172  102.6672   50.8612  H     
54   H        61.0220  101.1519   51.0532  H     
55   H        60.3756  100.4294   47.4176  H     
56   H        61.6967  103.3875   49.2558  H     
57   H        62.0337  104.0704   51.4944  H     
58   H        63.5651  103.9324   50.6333  H     
59   H        63.0723  102.6579   51.7711  H     
60   H        70.7989   91.4799   41.7290  H     
61   H        71.0302   90.5197   39.3279  H     
62   H        68.7907   89.6371   38.6378  H     
63   H        66.0600   91.0097   43.5850  H     
@<TRIPOS>BOND
     1    1    2 1
     2    1    6 2
     3    2    3 2
     4    3    4 1
     5    3   21 1
     6    4    5 2
     7    4   22 1
     8    5    6 1
     9    6    7 1
    10    7    8 1
    11    8   15 2
    12    8   16 1
    13    9   10 2
    14    9   13 1
    15    9   16 1
    16   10   12 1
    17   10   15 1
    18   11   12 2
    19   11   14 1
    20   11   17 1
    21   13   14 2
    22   17   18 1
    23   18   31 1
    24   18   35 2
    25   19   20 2
    26   19   35 1
    27   20   30 1
    28   22   27 1
    29   23   24 1
    30   23   28 1
    31   24   27 1
    32   25   26 1
    33   25   27 1
    34   26   28 1
    35   28   29 1
    36   30   31 2
    37   30   34 1
    38   31   32 1
    39   32   33 2
    40   33   34 1
    41    1   36 1
    42    2   37 1
    43    5   38 1
    44    7   39 1
    45   12   40 1
    46   13   41 1
    47   14   42 1
    48   16   43 1
    49   19   44 1
    50   22   45 1
    51   22   46 1
    52   23   47 1
    53   23   48 1
    54   24   49 1
    55   24   50 1
    56   25   51 1
    57   25   52 1
    58   26   53 1
    59   26   54 1
    60   27   55 1
    61   28   56 1
    62   29   57 1
    63   29   58 1
    64   29   59 1
    65   32   60 1
    66   33   61 1
    67   34   62 1
    68   35   63 1
@<TRIPOS>PROPERTY_DATA
  Total_Score	| 13.4302
  Crash		| -2.0397
  Polar		| 4.7520
  FragIndex	| 1
  FragRMSD	| 0.821

