@<TRIPOS>MOLECULE
BindingDB_17694
 69 73 0 0 0
SMALL
NO_CHARGES


@<TRIPOS>ATOM
1    C        63.5255   96.8963   46.3284  C     
2    C        62.7663   98.0307   45.9924  C     
3    C        61.9240   98.6423   46.9465  C     
4    C        61.8693   98.1383   48.2772  C     
5    C        62.6461   96.9878   48.5857  C     
6    C        63.4997   96.3713   47.6451  C     
7    N        64.2118   95.2705   48.0585  N     
8    C        65.1788   94.5645   47.4184  C     
9    C        66.5259   92.9286   46.9087  C     
10   C        66.5865   93.9126   45.9154  C     
11   C        68.1026   92.5149   44.6190  C     
12   C        67.3806   93.7218   44.7673  C     
13   C        67.2777   91.7357   46.7968  C     
14   C        68.0638   91.5344   45.6430  C     
15   N        65.7582   94.9286   46.2530  N     
16   N        65.6503   93.3601   47.8382  N     
17   O        68.8602   92.3255   43.4943  O     
18   Cl       60.9490   99.9183   46.3930  Cl    
19   C        61.0546   98.7928   49.3607  C     
20   C        61.2291  102.5293   50.4547  C     
21   C        60.8051  101.3266   49.5732  C     
22   C        63.0283  100.3022   49.9416  C     
23   C        63.4710  101.5445   50.7555  C     
24   N        61.5453  100.0879   49.9779  N     
25   N        62.7026  102.7611   50.3493  N     
26   C        63.1444  103.9806   51.0847  C     
27   C        68.4768   91.3952   42.5487  C     
28   C        69.1900   90.1660   40.5384  C     
29   C        66.9809   89.8337   41.4218  C     
30   C        67.2152   90.7538   42.4580  C     
31   N        67.9598   89.5767   40.5182  N     
32   C        65.2214   92.6418   49.0094  C     
33   C        69.4490   91.1025   41.5723  C     
34   C        70.1349   89.8523   39.5625  C     
35   O        71.2150   90.4324   39.5539  O     
36   N        69.8883   88.9311   38.6378  N     
37   C        70.7749   88.5692   37.5798  C     
38   H        64.0596   96.4077   45.5919  H     
39   H        62.8032   98.3780   45.0266  H     
40   H        62.5992   96.5897   49.5327  H     
41   H        63.9570   94.9083   48.9178  H     
42   H        67.4134   94.4350   44.0344  H     
43   H        67.2478   91.0196   47.5325  H     
44   H        68.5992   90.6620   45.5493  H     
45   H        60.0237   98.8795   48.9966  H     
46   H        60.9868   98.1042   50.2095  H     
47   H        60.6852  103.4167   50.1244  H     
48   H        60.9459  102.3311   51.4935  H     
49   H        59.7308  101.1822   49.6951  H     
50   H        60.9894  101.5816   48.5293  H     
51   H        63.3667  100.4338   48.9108  H     
52   H        63.5343   99.4300   50.3609  H     
53   H        63.3332  101.3405   51.8236  H     
54   H        64.5374  101.7035   50.5738  H     
55   H        61.3255   99.9961   50.9765  H     
56   H        62.9177  102.9453   49.3621  H     
57   H        62.9760  103.8871   52.1617  H     
58   H        62.6093  104.8604   50.7172  H     
59   H        64.2087  104.1566   50.9137  H     
60   H        66.0758   89.3653   41.3375  H     
61   H        66.4649   90.9476   43.1282  H     
62   H        65.4614   93.2113   49.9042  H     
63   H        65.7075   91.6702   49.1008  H     
64   H        64.1433   92.4768   48.9728  H     
65   H        70.3516   91.5864   41.6254  H     
66   H        69.0347   88.4684   38.6701  H     
67   H        70.9606   89.4287   36.9315  H     
68   H        70.3212   87.7750   36.9836  H     
69   H        71.7224   88.2076   37.9854  H     
@<TRIPOS>BOND
     1    1    2 1
     2    1    6 2
     3    2    3 2
     4    3    4 1
     5    3   18 1
     6    4    5 2
     7    4   19 1
     8    5    6 1
     9    6    7 1
    10    7    8 1
    11    8   15 2
    12    8   16 1
    13    9   10 2
    14    9   13 1
    15    9   16 1
    16   10   12 1
    17   10   15 1
    18   11   12 2
    19   11   14 1
    20   11   17 1
    21   13   14 2
    22   16   32 1
    23   17   27 1
    24   19   24 1
    25   20   21 1
    26   20   25 1
    27   21   24 1
    28   22   23 1
    29   22   24 1
    30   23   25 1
    31   25   26 1
    32   27   30 1
    33   27   33 2
    34   28   31 2
    35   28   33 1
    36   28   34 1
    37   29   30 2
    38   29   31 1
    39   34   35 2
    40   34   36 am
    41   36   37 1
    42    1   38 1
    43    2   39 1
    44    5   40 1
    45    7   41 1
    46   12   42 1
    47   13   43 1
    48   14   44 1
    49   19   45 1
    50   19   46 1
    51   20   47 1
    52   20   48 1
    53   21   49 1
    54   21   50 1
    55   22   51 1
    56   22   52 1
    57   23   53 1
    58   23   54 1
    59   24   55 1
    60   25   56 1
    61   26   57 1
    62   26   58 1
    63   26   59 1
    64   29   60 1
    65   30   61 1
    66   32   62 1
    67   32   63 1
    68   32   64 1
    69   33   65 1
    70   36   66 1
    71   37   67 1
    72   37   68 1
    73   37   69 1
@<TRIPOS>PROPERTY_DATA
  Total_Score	| 15.2222
  Crash		| -2.6944
  Polar		| 3.4098
  FragIndex	| 1
  FragRMSD	| 0.195

