@<TRIPOS>MOLECULE
BindingDB_17686
 67 71 0 0 0
SMALL
NO_CHARGES


@<TRIPOS>ATOM
1    C        62.4040   96.8388   48.9273  C     
2    C        61.5538   97.9632   48.8467  C     
3    C        61.7450   98.8381   47.7597  C     
4    C        62.8832   98.7382   46.9446  C     
5    C        63.6511   97.5588   46.9946  C     
6    C        63.4067   96.5734   47.9746  C     
7    N        64.1410   95.4358   48.1708  N     
8    C        65.0402   94.8025   47.3826  C     
9    C        66.4227   93.2116   46.8794  C     
10   C        66.3761   94.1230   45.8298  C     
11   C        67.9608   92.7591   44.5856  C     
12   C        67.1489   93.9180   44.6701  C     
13   C        67.2411   92.0709   46.8279  C     
14   C        68.0220   91.8511   45.6705  C     
15   N        65.5212   95.1106   46.1593  N     
16   N        65.5942   93.6587   47.8206  N     
17   O        68.7016   92.5572   43.4525  O     
18   C        68.3700   91.5295   42.5874  C     
19   C        66.9147   89.8901   41.5266  C     
20   N        67.9200   89.5738   40.6745  N     
21   C        67.1086   90.8932   42.4945  C     
22   C        69.3894   91.1467   41.6915  C     
23   C        69.1521   90.1575   40.6998  C     
24   C        70.1043   89.8163   39.7416  C     
25   O        71.2074   90.3498   39.7652  O     
26   N        69.8167   88.9500   38.7740  N     
27   C        70.6789   88.6291   37.6824  C     
28   O        63.3974   99.8489   46.3155  O     
29   C        63.6647  101.0415   47.1119  C     
30   C        63.8839  100.8899   48.6579  C     
31   C        61.5010  101.9353   50.9053  C     
32   C        62.0012  102.3608   49.5078  C     
33   C        63.9309  102.1928   50.8321  C     
34   C        62.7915  101.6413   51.6981  C     
35   N        63.4693  102.1150   49.4239  N     
36   C        60.6620   98.3276   49.9840  C     
37   F        60.1612   99.6038   49.8979  F     
38   F        59.6001   97.4650   50.0759  F     
39   F        61.3634   98.3045   51.1660  F     
40   H        62.3321   96.2237   49.7342  H     
41   H        61.1531   99.6609   47.6634  H     
42   H        64.4351   97.4498   46.3659  H     
43   H        63.9626   94.9689   49.0049  H     
44   H        67.1193   94.5890   43.9006  H     
45   H        67.2750   91.4146   47.6173  H     
46   H        68.6310   91.0289   45.6112  H     
47   H        65.4111   93.2281   48.6656  H     
48   H        66.0148   89.4210   41.4420  H     
49   H        66.3402   91.1587   43.1122  H     
50   H        70.2994   91.6156   41.7529  H     
51   H        68.9435   88.5248   38.7844  H     
52   H        70.8764   89.5211   37.0803  H     
53   H        70.1967   87.8820   37.0490  H     
54   H        71.6253   88.2210   38.0458  H     
55   H        64.5705  101.4845   46.6908  H     
56   H        62.8516  101.7426   46.9283  H     
57   H        63.3287  100.0324   49.0599  H     
58   H        64.9517  100.7097   48.8123  H     
59   H        60.9215  102.7469   51.3772  H     
60   H        60.8559  101.0439   50.8491  H     
61   H        61.4272  101.8604   48.7321  H     
62   H        61.8407  103.4316   49.3823  H     
63   H        64.1072  103.2446   51.0759  H     
64   H        64.8549  101.6469   51.0172  H     
65   H        62.7769  102.1134   52.6849  H     
66   H        62.9118  100.5603   51.8186  H     
67   H        63.8816  102.9050   48.9258  H     
@<TRIPOS>BOND
     1    1    2 1
     2    1    6 2
     3    2    3 2
     4    2   36 1
     5    3    4 1
     6    4    5 2
     7    4   28 1
     8    5    6 1
     9    6    7 1
    10    7    8 1
    11    8   15 2
    12    8   16 1
    13    9   10 2
    14    9   13 1
    15    9   16 1
    16   10   12 1
    17   10   15 1
    18   11   12 2
    19   11   14 1
    20   11   17 1
    21   13   14 2
    22   17   18 1
    23   18   21 2
    24   18   22 1
    25   19   20 2
    26   19   21 1
    27   20   23 1
    28   22   23 2
    29   23   24 1
    30   24   25 2
    31   24   26 am
    32   26   27 1
    33   28   29 1
    34   29   30 1
    35   30   35 1
    36   31   32 1
    37   31   34 1
    38   32   35 1
    39   33   34 1
    40   33   35 1
    41   36   37 1
    42   36   38 1
    43   36   39 1
    44    1   40 1
    45    3   41 1
    46    5   42 1
    47    7   43 1
    48   12   44 1
    49   13   45 1
    50   14   46 1
    51   16   47 1
    52   19   48 1
    53   21   49 1
    54   22   50 1
    55   26   51 1
    56   27   52 1
    57   27   53 1
    58   27   54 1
    59   29   55 1
    60   29   56 1
    61   30   57 1
    62   30   58 1
    63   31   59 1
    64   31   60 1
    65   32   61 1
    66   32   62 1
    67   33   63 1
    68   33   64 1
    69   34   65 1
    70   34   66 1
    71   35   67 1
@<TRIPOS>PROPERTY_DATA
  Total_Score	| 11.9708
  Crash		| -5.1453
  Polar		| 3.6760
  FragIndex	| 1
  FragRMSD	| 0.492

