@<TRIPOS>MOLECULE
BindingDB_17688
 65 70 0 0 0
SMALL
NO_CHARGES


@<TRIPOS>ATOM
1    C        62.8759   96.3000   46.0729  C     
2    C        61.8630   97.1768   45.6225  C     
3    C        61.2533   98.0853   46.5026  C     
4    C        61.7024   98.1851   47.8489  C     
5    C        62.7309   97.3028   48.2801  C     
6    C        63.3192   96.3587   47.4156  C     
7    N        64.1891   95.4505   47.9578  N     
8    C        65.1447   94.7165   47.3421  C     
9    C        66.5685   93.0926   47.0729  C     
10   C        66.5288   93.8632   45.9123  C     
11   C        68.0994   92.3529   44.8430  C     
12   C        67.3054   93.5230   44.7948  C     
13   C        67.3710   91.9346   47.1487  C     
14   C        68.1336   91.5644   46.0198  C     
15   N        65.6363   94.8553   46.0940  N     
16   N        65.7356   93.6645   47.9458  N     
17   O        68.8191   91.9870   43.7364  O     
18   C        68.2348   91.2119   42.7461  C     
19   C        66.3529   90.0727   41.6747  C     
20   N        67.1757   89.6531   40.6898  N     
21   C        66.8611   90.8582   42.7220  C     
22   C        69.0607   90.7799   41.6703  C     
23   C        71.1993   90.7090   40.4645  C     
24   C        70.6327   89.8817   39.4794  C     
25   C        69.2817   89.5045   39.5753  C     
26   C        68.4950   89.9718   40.6465  C     
27   C        70.4302   91.1302   41.5644  C     
28   Cl       59.9199   98.9836   45.9439  Cl    
29   C        61.0646   99.1306   48.8107  C     
30   C        60.7575  101.9705   50.4103  C     
31   C        60.1172  101.4448   49.1016  C     
32   C        62.3709  101.1949   48.1117  C     
33   C        62.9873  101.8516   49.3770  C     
34   N        61.0339  100.5533   48.3190  N     
35   N        61.9995  102.7226   50.0845  N     
36   C        62.5796  103.4291   51.2604  C     
37   H        63.2420   95.5911   45.4351  H     
38   H        61.5282   97.0925   44.6569  H     
39   H        63.0180   97.3219   49.2610  H     
40   H        64.0664   95.2675   48.9030  H     
41   H        67.2692   94.0875   43.9478  H     
42   H        67.3916   91.3655   48.0023  H     
43   H        68.7082   90.7128   46.0479  H     
44   H        65.5449   93.3465   48.8444  H     
45   H        65.3619   89.8307   41.6441  H     
46   H        66.2157   91.1652   43.4518  H     
47   H        72.1784   90.9942   40.3853  H     
48   H        71.1997   89.5573   38.6933  H     
49   H        68.8742   88.9023   38.8581  H     
50   H        70.8757   91.7015   42.2837  H     
51   H        60.0425   98.7626   48.9346  H     
52   H        61.5307   99.0905   49.8023  H     
53   H        60.0386  102.6185   50.9176  H     
54   H        60.9825  101.1364   51.0757  H     
55   H        59.1771  100.9396   49.3407  H     
56   H        59.8508  102.3041   48.4810  H     
57   H        62.2454  101.9746   47.3586  H     
58   H        63.0868  100.4788   47.6989  H     
59   H        63.3562  101.0745   50.0480  H     
60   H        63.8475  102.4495   49.0677  H     
61   H        60.6205  100.5058   47.3718  H     
62   H        61.7052  103.4481   49.4277  H     
63   H        61.8405  104.0967   51.7036  H     
64   H        63.4298  104.0401   50.9565  H     
65   H        62.9113  102.7242   52.0237  H     
@<TRIPOS>BOND
     1    1    2 1
     2    1    6 2
     3    2    3 2
     4    3    4 1
     5    3   28 1
     6    4    5 2
     7    4   29 1
     8    5    6 1
     9    6    7 1
    10    7    8 1
    11    8   15 2
    12    8   16 1
    13    9   10 2
    14    9   13 1
    15    9   16 1
    16   10   12 1
    17   10   15 1
    18   11   12 2
    19   11   14 1
    20   11   17 1
    21   13   14 2
    22   17   18 1
    23   18   21 2
    24   18   22 1
    25   19   20 2
    26   19   21 1
    27   20   26 1
    28   22   26 2
    29   22   27 1
    30   23   24 1
    31   23   27 2
    32   24   25 2
    33   25   26 1
    34   29   34 1
    35   30   31 1
    36   30   35 1
    37   31   34 1
    38   32   33 1
    39   32   34 1
    40   33   35 1
    41   35   36 1
    42    1   37 1
    43    2   38 1
    44    5   39 1
    45    7   40 1
    46   12   41 1
    47   13   42 1
    48   14   43 1
    49   16   44 1
    50   19   45 1
    51   21   46 1
    52   23   47 1
    53   24   48 1
    54   25   49 1
    55   27   50 1
    56   29   51 1
    57   29   52 1
    58   30   53 1
    59   30   54 1
    60   31   55 1
    61   31   56 1
    62   32   57 1
    63   32   58 1
    64   33   59 1
    65   33   60 1
    66   34   61 1
    67   35   62 1
    68   36   63 1
    69   36   64 1
    70   36   65 1
@<TRIPOS>PROPERTY_DATA
  Total_Score	| 12.8080
  Crash		| -2.2448
  Polar		| 3.7616
  FragIndex	| 1
  FragRMSD	| 0.709

