@<TRIPOS>MOLECULE
BindingDB_17679
 40 43 0 0 0
SMALL
NO_CHARGES


@<TRIPOS>ATOM
1    C        63.5578   97.2269   46.4615  C     
2    C        62.7962   98.3913   46.2630  C     
3    C        61.9606   98.8822   47.2871  C     
4    C        61.8573   98.1870   48.5222  C     
5    C        62.6378   97.0094   48.6851  C     
6    C        63.5151   96.5326   47.6897  C     
7    C        60.9734   98.6751   49.6284  C     
8    F        60.9951   97.9188   50.7781  F     
9    F        61.3415   99.9432   50.0106  F     
10   F        59.6647   98.6998   49.2127  F     
11   Cl       61.0988  100.3077   46.9467  Cl    
12   N        64.2491   95.4143   47.9940  N     
13   C        65.1817   94.7399   47.2834  C     
14   C        66.5612   93.1116   46.8572  C     
15   C        66.5586   93.9949   45.7824  C     
16   C        68.1026   92.5486   44.5811  C     
17   C        67.3428   93.7410   44.6428  C     
18   C        67.3386   91.9408   46.8376  C     
19   C        68.1126   91.6645   45.6863  C     
20   N        65.6968   94.9907   46.0584  N     
21   N        65.7292   93.6128   47.7731  N     
22   O        68.8634   92.3103   43.4713  O     
23   C        68.4448   91.3190   42.6209  C     
24   C        66.7684   90.0053   41.4276  C     
25   C        67.0872   91.0189   42.3527  C     
26   C        69.4402   90.5927   41.9334  C     
27   C        69.0725   89.6018   41.0038  C     
28   N        67.7576   89.3383   40.7855  N     
29   H        64.1372   96.8961   45.6936  H     
30   H        62.8659   98.8792   45.3657  H     
31   H        62.5752   96.4873   49.5613  H     
32   H        64.0646   95.0343   48.8674  H     
33   H        67.3393   94.3996   43.8648  H     
34   H        67.3266   91.2923   47.6303  H     
35   H        68.6748   90.8147   45.6562  H     
36   H        65.5238   93.2129   48.6347  H     
37   H        65.7872   89.7730   41.2282  H     
38   H        66.3294   91.5247   42.8101  H     
39   H        70.4265   90.7975   42.0982  H     
40   H        69.7831   89.0841   40.4884  H     
@<TRIPOS>BOND
     1    1    2 1
     2    1    6 2
     3    2    3 2
     4    3    4 1
     5    3   11 1
     6    4    5 2
     7    4    7 1
     8    5    6 1
     9    6   12 1
    10    7    8 1
    11    7    9 1
    12    7   10 1
    13   12   13 1
    14   13   20 2
    15   13   21 1
    16   14   15 2
    17   14   18 1
    18   14   21 1
    19   15   17 1
    20   15   20 1
    21   16   17 2
    22   16   19 1
    23   16   22 1
    24   18   19 2
    25   22   23 1
    26   23   25 2
    27   23   26 1
    28   24   25 1
    29   24   28 2
    30   26   27 2
    31   27   28 1
    32    1   29 1
    33    2   30 1
    34    5   31 1
    35   12   32 1
    36   17   33 1
    37   18   34 1
    38   19   35 1
    39   21   36 1
    40   24   37 1
    41   25   38 1
    42   26   39 1
    43   27   40 1
@<TRIPOS>PROPERTY_DATA
  Total_Score	| 9.5837
  Crash		| -1.1558
  Polar		| 2.3636
  FragIndex	| 1
  FragRMSD	| 0.223

