@<TRIPOS>MOLECULE
BindingDB_17683
 63 66 0 0 0
SMALL
NO_CHARGES


@<TRIPOS>ATOM
1    C        63.1376   96.3313   48.4334  C     
2    C        62.2947   97.0239   49.3061  C     
3    C        61.7969   98.3072   48.9943  C     
4    C        62.2993   98.9498   47.8283  C     
5    C        63.0595   98.2044   46.8945  C     
6    C        63.4869   96.8871   47.1857  C     
7    N        64.2193   96.2355   46.2381  N     
8    C        65.1141   95.2167   46.2997  C     
9    C        66.4159   93.5431   46.8002  C     
10   C        66.4931   93.7847   45.4380  C     
11   C        67.9995   91.9048   45.1558  C     
12   C        67.2950   92.9992   44.5933  C     
13   C        67.1389   92.4906   47.3845  C     
14   C        67.9240   91.6665   46.5469  C     
15   N        65.6811   94.8039   45.1487  N     
16   N        65.5790   94.4551   47.3108  N     
17   O        68.8075   91.0985   44.4039  O     
18   C        68.4357   90.7957   43.1189  C     
19   C        66.8916   90.0225   41.4011  C     
20   N        67.9224   89.9628   40.5252  N     
21   C        67.1287   90.4317   42.7268  C     
22   C        69.4702   90.7359   42.1642  C     
23   C        69.2076   90.3065   40.8347  C     
24   C        70.2256   90.1750   39.8904  C     
25   O        71.3799   90.4557   40.1998  O     
26   N        69.9740   89.7390   38.6609  N     
27   C        70.9709   89.4892   37.6724  C     
28   C        60.7677   98.9028   49.8926  C     
29   F        60.1936  100.0752   49.4520  F     
30   F        59.7019   98.0412   50.0267  F     
31   F        61.2855   99.1038   51.1543  F     
32   O        62.0328  100.2938   47.6224  O     
33   C        63.0078  101.2629   48.0728  C     
34   C        63.9864  100.8673   49.2262  C     
35   N        63.7167  101.2204   50.6719  N     
36   C        62.4711  101.9986   50.9614  C     
37   C        63.8970  100.0645   51.5978  C     
38   H        63.4603   95.4019   48.7047  H     
39   H        62.0357   96.5838   50.1831  H     
40   H        63.3264   98.6367   46.0124  H     
41   H        64.0894   96.5912   45.3450  H     
42   H        67.3371   93.1982   43.5891  H     
43   H        67.0789   92.3057   48.3862  H     
44   H        68.4375   90.8798   46.9516  H     
45   H        65.3634   94.5338   48.2532  H     
46   H        65.9524   89.7500   41.1041  H     
47   H        66.3594   90.4372   43.3988  H     
48   H        70.4170   90.9851   42.4543  H     
49   H        69.0563   89.5475   38.4132  H     
50   H        71.5466   90.3953   37.4689  H     
51   H        70.4850   89.1666   36.7505  H     
52   H        71.6473   88.7002   38.0111  H     
53   H        63.6106  101.5796   47.2091  H     
54   H        62.4561  102.1540   48.3672  H     
55   H        64.1760   99.8013   49.1042  H     
56   H        64.9332  101.3530   48.9835  H     
57   H        64.4593  101.8618   50.9474  H     
58   H        62.4714  102.9159   50.3726  H     
59   H        62.4429  102.2858   52.0143  H     
60   H        61.5852  101.4214   50.7395  H     
61   H        63.2007   99.2629   51.3592  H     
62   H        63.7588  100.3612   52.6449  H     
63   H        64.9137   99.6791   51.5011  H     
@<TRIPOS>BOND
     1    1    2 1
     2    1    6 2
     3    2    3 2
     4    3    4 1
     5    3   28 1
     6    4    5 2
     7    4   32 1
     8    5    6 1
     9    6    7 1
    10    7    8 1
    11    8   15 2
    12    8   16 1
    13    9   10 2
    14    9   13 1
    15    9   16 1
    16   10   12 1
    17   10   15 1
    18   11   12 2
    19   11   14 1
    20   11   17 1
    21   13   14 2
    22   17   18 1
    23   18   21 2
    24   18   22 1
    25   19   20 2
    26   19   21 1
    27   20   23 1
    28   22   23 2
    29   23   24 1
    30   24   25 2
    31   24   26 am
    32   26   27 1
    33   28   29 1
    34   28   30 1
    35   28   31 1
    36   32   33 1
    37   33   34 1
    38   34   35 1
    39   35   36 1
    40   35   37 1
    41    1   38 1
    42    2   39 1
    43    5   40 1
    44    7   41 1
    45   12   42 1
    46   13   43 1
    47   14   44 1
    48   16   45 1
    49   19   46 1
    50   21   47 1
    51   22   48 1
    52   26   49 1
    53   27   50 1
    54   27   51 1
    55   27   52 1
    56   33   53 1
    57   33   54 1
    58   34   55 1
    59   34   56 1
    60   35   57 1
    61   36   58 1
    62   36   59 1
    63   36   60 1
    64   37   61 1
    65   37   62 1
    66   37   63 1
@<TRIPOS>PROPERTY_DATA
  Total_Score	| 7.7469
  Crash		| -5.8651
  Polar		| 2.6718
  FragIndex	| 1
  FragRMSD	| 0.873

