@<TRIPOS>MOLECULE
BindingDB_17678
 47 50 0 0 0
SMALL
NO_CHARGES


@<TRIPOS>ATOM
1    C        63.5292   97.2355   46.4799  C     
2    C        62.7432   98.3849   46.2766  C     
3    C        61.8846   98.8637   47.2940  C     
4    C        61.8033   98.1727   48.5402  C     
5    C        62.5919   97.0004   48.7011  C     
6    C        63.4767   96.5332   47.7060  C     
7    C        60.9098   98.6486   49.6459  C     
8    F        60.9766   97.9094   50.8086  F     
9    F        61.2243   99.9388   50.0113  F     
10   F        59.5963   98.6081   49.2410  F     
11   Cl       60.9653  100.2483   46.9394  Cl    
12   N        64.2028   95.4144   48.0154  N     
13   C        65.1292   94.7316   47.3013  C     
14   C        66.5171   93.1124   46.8603  C     
15   C        66.4856   93.9959   45.7801  C     
16   C        68.0854   92.5913   44.5960  C     
17   C        67.2781   93.7575   44.6390  C     
18   C        67.3184   91.9518   46.8412  C     
19   C        68.1036   91.6909   45.6938  C     
20   N        65.6219   94.9875   46.0690  N     
21   N        65.6836   93.6005   47.7867  N     
22   O        68.8708   92.3721   43.4958  O     
23   C        68.5391   91.3763   42.6033  C     
24   C        69.2737   90.1125   40.6254  C     
25   C        69.5277   91.0596   41.6456  C     
26   C        67.2869   90.7129   42.5276  C     
27   C        67.0702   89.7605   41.5170  C     
28   N        68.0521   89.5054   40.6153  N     
29   C        70.2021   89.8005   39.6386  C     
30   O        71.3201   90.3226   39.6632  O     
31   N        69.9031   88.9605   38.6564  N     
32   C        70.7719   88.5954   37.5863  C     
33   H        64.1367   96.9204   45.7211  H     
34   H        62.8057   98.8684   45.3800  H     
35   H        62.5283   96.4778   49.5793  H     
36   H        64.0324   95.0400   48.8912  H     
37   H        67.2584   94.4146   43.8556  H     
38   H        67.3303   91.3034   47.6355  H     
39   H        68.6973   90.8588   45.6554  H     
40   H        65.4928   93.1942   48.6518  H     
41   H        70.4304   91.5424   41.7001  H     
42   H        66.5370   90.9179   43.1885  H     
43   H        66.1765   89.2728   41.4464  H     
44   H        69.0167   88.5670   38.6507  H     
45   H        71.0483   89.4794   37.0062  H     
46   H        70.2573   87.8927   36.9236  H     
47   H        71.6745   88.1165   37.9717  H     
@<TRIPOS>BOND
     1    1    2 1
     2    1    6 2
     3    2    3 2
     4    3    4 1
     5    3   11 1
     6    4    5 2
     7    4    7 1
     8    5    6 1
     9    6   12 1
    10    7    8 1
    11    7    9 1
    12    7   10 1
    13   12   13 1
    14   13   20 2
    15   13   21 1
    16   14   15 2
    17   14   18 1
    18   14   21 1
    19   15   17 1
    20   15   20 1
    21   16   17 2
    22   16   19 1
    23   16   22 1
    24   18   19 2
    25   22   23 1
    26   23   25 2
    27   23   26 1
    28   24   25 1
    29   24   28 2
    30   24   29 1
    31   26   27 2
    32   27   28 1
    33   29   30 2
    34   29   31 am
    35   31   32 1
    36    1   33 1
    37    2   34 1
    38    5   35 1
    39   12   36 1
    40   17   37 1
    41   18   38 1
    42   19   39 1
    43   21   40 1
    44   25   41 1
    45   26   42 1
    46   27   43 1
    47   31   44 1
    48   32   45 1
    49   32   46 1
    50   32   47 1
@<TRIPOS>PROPERTY_DATA
  Total_Score	| 11.2310
  Crash		| -1.3514
  Polar		| 2.3325
  FragIndex	| 1
  FragRMSD	| 0.089

