@<TRIPOS>MOLECULE
BindingDB_17689
 73 78 0 0 0
SMALL
NO_CHARGES


@<TRIPOS>ATOM
1    C        62.8298   96.3997   46.1004  C     
2    C        61.8035   97.2552   45.6779  C     
3    C        61.1979   98.1506   46.5761  C     
4    C        61.6653   98.2444   47.9174  C     
5    C        62.7092   97.3658   48.3166  C     
6    C        63.3012   96.4349   47.4312  C     
7    N        64.2026   95.5323   47.9375  N     
8    C        65.1160   94.7614   47.2967  C     
9    C        66.5444   93.1401   47.0466  C     
10   C        66.4409   93.8529   45.8476  C     
11   C        68.0280   92.3311   44.8156  C     
12   C        67.1898   93.4686   44.7191  C     
13   C        67.3839   92.0253   47.1637  C     
14   C        68.1293   91.6163   46.0383  C     
15   N        65.5543   94.8359   46.0152  N     
16   N        65.7416   93.7521   47.9220  N     
17   O        68.7268   91.9078   43.7220  O     
18   C        68.1086   91.1687   42.7192  C     
19   C        66.2016   90.0436   41.6833  C     
20   N        67.0071   89.6033   40.6843  N     
21   C        66.7302   90.8186   42.7253  C     
22   C        68.9075   90.7395   41.6332  C     
23   C        71.0333   90.6342   40.3876  C     
24   C        70.4721   89.7339   39.4429  C     
25   C        69.1062   89.3873   39.5874  C     
26   C        68.3285   89.9104   40.6326  C     
27   C        70.2674   91.0909   41.4769  C     
28   Cl       59.8480   98.9752   45.9621  Cl    
29   C        61.0553   99.1913   48.9097  C     
30   C        62.9094  101.8901   49.5266  C     
31   C        62.3127  101.2840   48.2341  C     
32   C        60.0362  101.4905   49.2117  C     
33   C        60.6520  102.0432   50.5134  C     
34   N        60.9900  100.6208   48.4527  N     
35   N        61.9139  102.7741   50.2081  N     
36   C        62.4816  103.4668   51.4020  C     
37   O        71.3683   89.1919   38.5400  O     
38   C        70.9459   88.7856   37.2245  C     
39   O        72.3601   90.9767   40.3627  O     
40   C        72.7596   91.8994   39.3267  C     
41   H        63.1731   95.7049   45.4398  H     
42   H        61.4585   97.1863   44.7146  H     
43   H        63.0329   97.3868   49.2875  H     
44   H        64.1368   95.3761   48.8953  H     
45   H        67.0997   93.9812   43.8445  H     
46   H        67.4414   91.5010   48.0419  H     
47   H        68.7413   90.8038   46.1004  H     
48   H        65.6156   93.5194   48.8556  H     
49   H        65.2053   89.8065   41.6629  H     
50   H        66.1045   91.1121   43.4846  H     
51   H        68.6862   88.7196   38.9481  H     
52   H        70.7172   91.6689   42.1905  H     
53   H        60.0460   98.8120   49.1065  H     
54   H        61.5855   99.1703   49.8652  H     
55   H        63.2321  101.0870   50.2001  H     
56   H        63.7923  102.4745   49.2534  H     
57   H        62.1742  102.0896   47.5118  H     
58   H        63.0353  100.5883   47.7927  H     
59   H        59.1119  100.9593   49.4429  H     
60   H        59.7628  102.3287   48.5665  H     
61   H        59.9294  102.7240   50.9689  H     
62   H        60.8466  101.2272   51.2132  H     
63   H        60.5755  100.5826   47.5298  H     
64   H        61.6406  103.5023   49.5498  H     
65   H        62.7820  102.7452   52.1740  H     
66   H        61.7382  104.1514   51.8324  H     
67   H        63.3604  104.0616   51.1145  H     
68   H        70.3240   87.8854   37.2831  H     
69   H        71.8318   88.5430   36.6383  H     
70   H        70.3932   89.5811   36.7080  H     
71   H        72.6256   91.4610   38.3306  H     
72   H        73.8262   92.0972   39.4786  H     
73   H        72.2092   92.8440   39.3675  H     
@<TRIPOS>BOND
     1    1    2 1
     2    1    6 2
     3    2    3 2
     4    3    4 1
     5    3   28 1
     6    4    5 2
     7    4   29 1
     8    5    6 1
     9    6    7 1
    10    7    8 1
    11    8   15 2
    12    8   16 1
    13    9   10 2
    14    9   13 1
    15    9   16 1
    16   10   12 1
    17   10   15 1
    18   11   12 2
    19   11   14 1
    20   11   17 1
    21   13   14 2
    22   17   18 1
    23   18   21 2
    24   18   22 1
    25   19   20 2
    26   19   21 1
    27   20   26 1
    28   22   26 2
    29   22   27 1
    30   23   24 1
    31   23   27 2
    32   23   39 1
    33   24   25 2
    34   24   37 1
    35   25   26 1
    36   29   34 1
    37   30   31 1
    38   30   35 1
    39   31   34 1
    40   32   33 1
    41   32   34 1
    42   33   35 1
    43   35   36 1
    44   37   38 1
    45   39   40 1
    46    1   41 1
    47    2   42 1
    48    5   43 1
    49    7   44 1
    50   12   45 1
    51   13   46 1
    52   14   47 1
    53   16   48 1
    54   19   49 1
    55   21   50 1
    56   25   51 1
    57   27   52 1
    58   29   53 1
    59   29   54 1
    60   30   55 1
    61   30   56 1
    62   31   57 1
    63   31   58 1
    64   32   59 1
    65   32   60 1
    66   33   61 1
    67   33   62 1
    68   34   63 1
    69   35   64 1
    70   36   65 1
    71   36   66 1
    72   36   67 1
    73   38   68 1
    74   38   69 1
    75   38   70 1
    76   40   71 1
    77   40   72 1
    78   40   73 1
@<TRIPOS>PROPERTY_DATA
  Total_Score	| 13.3693
  Crash		| -2.9800
  Polar		| 3.7380
  FragIndex	| 1
  FragRMSD	| 0.609

