@<TRIPOS>MOLECULE
BindingDB_17692
 63 67 0 0 0
SMALL
NO_CHARGES


@<TRIPOS>ATOM
1    C        62.9515   96.4242   46.0566  C     
2    C        61.9625   97.3459   45.6584  C     
3    C        61.4021   98.2463   46.5790  C     
4    C        61.9050   98.3123   47.9080  C     
5    C        62.9009   97.3702   48.2913  C     
6    C        63.4324   96.4241   47.3887  C     
7    N        64.2863   95.4744   47.8864  N     
8    C        65.1876   94.7037   47.2367  C     
9    C        66.5639   93.0478   46.9201  C     
10   C        66.5204   93.8304   45.7713  C     
11   C        68.1031   92.3401   44.6785  C     
12   C        67.3008   93.5099   44.6441  C     
13   C        67.3692   91.8929   46.9828  C     
14   C        68.1298   91.5392   45.8456  C     
15   N        65.6611   94.8416   45.9797  N     
16   N        65.7553   93.6236   47.8150  N     
17   O        68.8712   91.9873   43.5960  O     
18   Cl       60.0554   99.1696   46.0935  Cl    
19   C        61.3280   99.2498   48.9188  C     
20   C        62.9554  102.0791   49.8758  C     
21   C        62.5934  101.4137   48.5106  C     
22   C        60.2038  101.4756   49.1537  C     
23   C        60.6045  101.9508   50.5765  C     
24   N        61.2853  100.6891   48.4810  N     
25   N        61.8067  102.8151   50.4841  N     
26   C        62.1454  103.4761   51.7726  C     
27   C        68.2883   91.2847   42.5617  C     
28   C        68.6210   90.4554   40.3354  C     
29   C        66.5694   89.9990   41.4323  C     
30   C        67.0034   90.6883   42.5770  C     
31   N        69.0501   91.1367   41.4381  N     
32   N        67.3834   89.9029   40.3596  N     
33   N        69.3466   90.2891   39.2095  N     
34   C        70.6653   90.7643   38.9864  C     
35   H        63.2566   95.7230   45.3855  H     
36   H        61.5951   97.3063   44.6999  H     
37   H        63.2021   97.3322   49.2693  H     
38   H        64.2044   95.3025   48.8358  H     
39   H        67.2759   94.1046   43.8145  H     
40   H        67.3985   91.3228   47.8325  H     
41   H        68.7138   90.7005   45.8749  H     
42   H        65.5909   93.3145   48.7174  H     
43   H        60.3141   98.8702   49.1105  H     
44   H        61.8638   99.1784   49.8797  H     
45   H        63.3154  101.3097   50.5557  H     
46   H        63.7785  102.7751   49.6981  H     
47   H        62.5395  102.2048   47.7548  H     
48   H        63.4179  100.7545   48.1978  H     
49   H        59.2690  100.9012   49.2142  H     
50   H        59.9837  102.3574   48.5426  H     
51   H        59.7645  102.5038   51.0011  H     
52   H        60.7895  101.0881   51.2145  H     
53   H        61.0259  100.6512   47.4824  H     
54   H        61.5422  103.5625   49.8382  H     
55   H        61.2942  104.0476   52.1465  H     
56   H        62.9681  104.1777   51.6311  H     
57   H        62.4324  102.7475   52.5338  H     
58   H        65.6382   89.5823   41.3998  H     
59   H        66.3874   90.7518   43.3893  H     
60   H        68.9277   89.7997   38.4795  H     
61   H        70.6843   91.8562   39.0041  H     
62   H        70.9930   90.4219   38.0039  H     
63   H        71.3532   90.3730   39.7395  H     
@<TRIPOS>BOND
     1    1    2 1
     2    1    6 2
     3    2    3 2
     4    3    4 1
     5    3   18 1
     6    4    5 2
     7    4   19 1
     8    5    6 1
     9    6    7 1
    10    7    8 1
    11    8   15 2
    12    8   16 1
    13    9   10 2
    14    9   13 1
    15    9   16 1
    16   10   12 1
    17   10   15 1
    18   11   12 2
    19   11   14 1
    20   11   17 1
    21   13   14 2
    22   17   27 1
    23   19   24 1
    24   20   21 1
    25   20   25 1
    26   21   24 1
    27   22   23 1
    28   22   24 1
    29   23   25 1
    30   25   26 1
    31   27   30 1
    32   27   31 2
    33   28   31 1
    34   28   32 2
    35   28   33 1
    36   29   30 2
    37   29   32 1
    38   33   34 1
    39    1   35 1
    40    2   36 1
    41    5   37 1
    42    7   38 1
    43   12   39 1
    44   13   40 1
    45   14   41 1
    46   16   42 1
    47   19   43 1
    48   19   44 1
    49   20   45 1
    50   20   46 1
    51   21   47 1
    52   21   48 1
    53   22   49 1
    54   22   50 1
    55   23   51 1
    56   23   52 1
    57   24   53 1
    58   25   54 1
    59   26   55 1
    60   26   56 1
    61   26   57 1
    62   29   58 1
    63   30   59 1
    64   33   60 1
    65   34   61 1
    66   34   62 1
    67   34   63 1
@<TRIPOS>PROPERTY_DATA
  Total_Score	| 12.3728
  Crash		| -1.8087
  Polar		| 4.8577
  FragIndex	| 1
  FragRMSD	| 0.606

