@<TRIPOS>MOLECULE
BindingDB_17690
 62 67 0 0 0
SMALL
NO_CHARGES


@<TRIPOS>ATOM
1    C        63.0331   96.4510   46.0879  C     
2    C        62.1598   97.4642   45.6697  C     
3    C        61.5219   98.2932   46.6061  C     
4    C        61.7552   98.0963   47.9968  C     
5    C        62.6329   97.0598   48.3959  C     
6    C        63.3143   96.2541   47.4594  C     
7    N        64.1672   95.2990   47.9285  N     
8    C        65.1346   94.6360   47.2588  C     
9    C        66.6221   93.0995   46.8790  C     
10   C        66.5207   93.9221   45.7586  C     
11   C        68.1277   92.5225   44.5879  C     
12   C        67.2874   93.6614   44.6078  C     
13   C        67.4762   91.9834   46.8934  C     
14   C        68.2217   91.6967   45.7319  C     
15   N        65.6046   94.8726   46.0092  N     
16   N        65.7748   93.5835   47.7938  N     
17   O        68.8289   92.2001   43.4543  O     
18   C        68.1710   91.4048   42.5425  C     
19   C        66.2369   90.2548   41.7070  C     
20   N        66.9207   89.8438   40.6066  N     
21   Cl       60.5384   99.5246   45.9703  Cl    
22   C        61.1793   98.9822   49.0514  C     
23   C        62.8360  101.2054   51.7161  C     
24   C        61.6946  100.5118   50.9350  C     
25   C        63.0119  100.6998   48.8472  C     
26   C        64.1680  101.3701   49.6251  C     
27   N        62.2361   99.7836   49.7431  N     
28   N        63.6961  102.0826   50.8596  N     
29   C        63.1023  103.4215   50.5735  C     
30   N        66.8579   91.0254   42.6410  N     
31   C        68.2174   90.1953   40.4520  C     
32   C        68.8767   90.9668   41.4078  C     
33   C        70.1809   91.1177   40.9563  C     
34   C        70.2647   90.4463   39.7385  C     
35   N        69.0641   89.9093   39.4547  N     
36   H        63.4448   95.8448   45.3838  H     
37   H        61.9897   97.6002   44.6759  H     
38   H        62.8126   96.9085   49.3912  H     
39   H        64.0663   95.0517   48.8628  H     
40   H        67.2063   94.2628   43.7889  H     
41   H        67.5339   91.3810   47.7172  H     
42   H        68.8125   90.8616   45.7037  H     
43   H        65.6024   93.2115   48.6753  H     
44   H        65.2497   90.0076   41.8194  H     
45   H        60.4217   99.6618   48.6627  H     
46   H        60.6789   98.3420   49.7826  H     
47   H        62.4149  101.7842   52.5471  H     
48   H        63.4728  100.4291   52.1618  H     
49   H        61.2104   99.8028   51.6163  H     
50   H        60.9442  101.2562   50.6389  H     
51   H        62.3594  101.4527   48.3999  H     
52   H        63.4737  100.1330   48.0280  H     
53   H        64.8826  100.6009   49.9252  H     
54   H        64.6966  102.0574   48.9580  H     
55   H        62.9171   99.1215   50.1247  H     
56   H        64.5326  102.2735   51.4152  H     
57   H        62.2374  103.3475   49.9119  H     
58   H        63.8512  104.0635   50.1065  H     
59   H        62.7913  103.9109   51.5004  H     
60   H        70.9371   91.6130   41.4224  H     
61   H        71.1031   90.3690   39.1570  H     
62   H        68.8415   89.4014   38.6525  H     
@<TRIPOS>BOND
     1    1    2 1
     2    1    6 2
     3    2    3 2
     4    3    4 1
     5    3   21 1
     6    4    5 2
     7    4   22 1
     8    5    6 1
     9    6    7 1
    10    7    8 1
    11    8   15 2
    12    8   16 1
    13    9   10 2
    14    9   13 1
    15    9   16 1
    16   10   12 1
    17   10   15 1
    18   11   12 2
    19   11   14 1
    20   11   17 1
    21   13   14 2
    22   17   18 1
    23   18   30 2
    24   18   32 1
    25   19   20 2
    26   19   30 1
    27   20   31 1
    28   22   27 1
    29   23   24 1
    30   23   28 1
    31   24   27 1
    32   25   26 1
    33   25   27 1
    34   26   28 1
    35   28   29 1
    36   31   32 2
    37   31   35 1
    38   32   33 1
    39   33   34 2
    40   34   35 1
    41    1   36 1
    42    2   37 1
    43    5   38 1
    44    7   39 1
    45   12   40 1
    46   13   41 1
    47   14   42 1
    48   16   43 1
    49   19   44 1
    50   22   45 1
    51   22   46 1
    52   23   47 1
    53   23   48 1
    54   24   49 1
    55   24   50 1
    56   25   51 1
    57   25   52 1
    58   26   53 1
    59   26   54 1
    60   27   55 1
    61   28   56 1
    62   29   57 1
    63   29   58 1
    64   29   59 1
    65   33   60 1
    66   34   61 1
    67   35   62 1
@<TRIPOS>PROPERTY_DATA
  Total_Score	| 12.6702
  Crash		| -2.5514
  Polar		| 4.8683
  FragIndex	| 1
  FragRMSD	| 0.603

