@<TRIPOS>MOLECULE
BindingDB_17695
 65 69 0 0 0
SMALL
NO_CHARGES


@<TRIPOS>ATOM
1    C        62.8950   96.2785   46.0439  C     
2    C        61.9018   97.1675   45.5962  C     
3    C        61.3271   98.1087   46.4716  C     
4    C        61.7743   98.1816   47.8267  C     
5    C        62.7520   97.2320   48.2606  C     
6    C        63.3394   96.3028   47.3942  C     
7    N        64.2224   95.3943   47.9189  N     
8    C        65.1433   94.6521   47.2734  C     
9    C        66.5458   93.0320   46.9029  C     
10   C        66.5251   93.8777   45.8008  C     
11   C        68.1495   92.4685   44.6712  C     
12   C        67.3495   93.6351   44.6877  C     
13   C        67.3498   91.8786   46.9111  C     
14   C        68.1355   91.5869   45.7790  C     
15   N        65.6452   94.8623   46.0404  N     
16   O        68.9527   92.2263   43.5833  O     
17   Cl       60.0688   99.0669   45.8491  Cl    
18   C        61.2190   99.1496   48.8152  C     
19   C        63.0793  101.9465   49.4830  C     
20   C        62.5166  101.2535   48.2050  C     
21   C        60.2195  101.4361   49.1569  C     
22   C        60.8234  102.0173   50.4590  C     
23   N        61.1856  100.5935   48.3769  N     
24   N        62.0494  102.8134   50.1270  N     
25   C        62.5780  103.6109   51.2581  C     
26   C        68.5636   91.3125   42.6222  C     
27   C        69.2319   90.1254   40.5680  C     
28   C        67.0425   89.7785   41.4888  C     
29   C        67.3049   90.6753   42.5408  C     
30   N        68.0001   89.5409   40.5605  N     
31   C        69.5172   91.0333   41.6205  C     
32   C        70.1467   89.8250   39.5558  C     
33   O        71.2202   90.4138   39.5073  O     
34   N        69.8707   88.9038   38.6393  N     
35   C        70.7096   88.5386   37.5445  C     
36   O        65.7004   93.5364   47.8251  O     
37   H        63.2209   95.5547   45.4127  H     
38   H        61.5595   97.0850   44.6370  H     
39   H        63.0351   97.2268   49.2475  H     
40   H        64.1336   95.2210   48.8765  H     
41   H        67.3577   94.2865   43.9040  H     
42   H        67.3481   91.2554   47.7199  H     
43   H        68.6907   90.7321   45.7504  H     
44   H        60.1989   98.8056   49.0267  H     
45   H        61.7590   99.1110   49.7727  H     
46   H        63.4336  101.1862   50.1806  H     
47   H        63.9447  102.5446   49.1871  H     
48   H        62.3957  102.0187   47.4309  H     
49   H        63.2693  100.5480   47.8336  H     
50   H        59.3159  100.8693   49.3975  H     
51   H        59.9144  102.2602   48.5111  H     
52   H        60.0687  102.6423   50.9448  H     
53   H        61.0562  101.2107   51.1565  H     
54   H        60.7933  100.5689   47.4392  H     
55   H        61.7349  103.4791   49.4197  H     
56   H        61.8050  104.2633   51.6595  H     
57   H        63.3901  104.2474   50.9080  H     
58   H        62.9524  102.9791   52.0610  H     
59   H        66.1343   89.3224   41.4110  H     
60   H        66.5708   90.8513   43.2294  H     
61   H        70.4305   91.4943   41.6646  H     
62   H        69.0225   88.4362   38.7118  H     
63   H        70.8735   89.3985   36.8927  H     
64   H        70.2219   87.7521   36.9678  H     
65   H        71.6687   88.1654   37.9079  H     
@<TRIPOS>BOND
     1    1    2 1
     2    1    6 2
     3    2    3 2
     4    3    4 1
     5    3   17 1
     6    4    5 2
     7    4   18 1
     8    5    6 1
     9    6    7 1
    10    7    8 1
    11    8   15 2
    12    8   36 1
    13    9   10 2
    14    9   13 1
    15    9   36 1
    16   10   12 1
    17   10   15 1
    18   11   12 2
    19   11   14 1
    20   11   16 1
    21   13   14 2
    22   16   26 1
    23   18   23 1
    24   19   20 1
    25   19   24 1
    26   20   23 1
    27   21   22 1
    28   21   23 1
    29   22   24 1
    30   24   25 1
    31   26   29 1
    32   26   31 2
    33   27   30 2
    34   27   31 1
    35   27   32 1
    36   28   29 2
    37   28   30 1
    38   32   33 2
    39   32   34 am
    40   34   35 1
    41    1   37 1
    42    2   38 1
    43    5   39 1
    44    7   40 1
    45   12   41 1
    46   13   42 1
    47   14   43 1
    48   18   44 1
    49   18   45 1
    50   19   46 1
    51   19   47 1
    52   20   48 1
    53   20   49 1
    54   21   50 1
    55   21   51 1
    56   22   52 1
    57   22   53 1
    58   23   54 1
    59   24   55 1
    60   25   56 1
    61   25   57 1
    62   25   58 1
    63   28   59 1
    64   29   60 1
    65   31   61 1
    66   34   62 1
    67   35   63 1
    68   35   64 1
    69   35   65 1
@<TRIPOS>PROPERTY_DATA
  Total_Score	| 13.5863
  Crash		| -1.4428
  Polar		| 3.8497
  FragIndex	| 1
  FragRMSD	| 0.610

