@<TRIPOS>MOLECULE
BindingDB_17681
 44 48 0 0 0
SMALL
NO_CHARGES


@<TRIPOS>ATOM
1    C        63.5409   97.1678   46.4057  C     
2    C        62.7571   98.3235   46.1809  C     
3    C        61.9211   98.8317   47.2000  C     
4    C        61.8502   98.1868   48.4684  C     
5    C        62.6425   97.0180   48.6465  C     
6    C        63.4987   96.5131   47.6528  C     
7    Cl       60.9953  100.2139   46.8284  Cl    
8    N        64.2137   95.4006   47.9828  N     
9    C        65.1269   94.6981   47.2710  C     
10   C        66.5589   93.1064   46.9552  C     
11   C        66.4829   93.8761   45.7944  C     
12   C        68.0755   92.3734   44.7130  C     
13   C        67.2580   93.5210   44.6690  C     
14   C        67.3871   91.9677   47.0407  C     
15   C        68.1467   91.5965   45.8987  C     
16   N        65.5968   94.8671   46.0113  N     
17   N        65.7298   93.6371   47.8408  N     
18   O        68.7497   91.9563   43.5963  O     
19   C        68.0527   91.2349   42.6412  C     
20   C        66.0722   90.1798   41.6346  C     
21   N        66.8046   89.8196   40.5435  N     
22   C        60.9778   98.6745   49.5892  C     
23   F        61.0630   97.9556   50.7657  F     
24   F        61.3025   99.9728   49.9276  F     
25   F        59.6535   98.6389   49.2233  F     
26   C        66.6743   90.8786   42.6962  C     
27   C        68.7665   90.8377   41.4885  C     
28   C        68.1239   90.1343   40.4622  C     
29   C        70.0698   91.0245   41.0737  C     
30   C        70.1962   90.4124   39.8248  C     
31   N        69.0072   89.8973   39.4777  N     
32   H        64.1406   96.8079   45.6608  H     
33   H        62.8049   98.7852   45.2691  H     
34   H        62.6119   96.5301   49.5468  H     
35   H        64.0790   95.0795   48.8781  H     
36   H        67.1937   94.0803   43.8176  H     
37   H        67.4215   91.3899   47.8914  H     
38   H        68.7163   90.7542   45.9237  H     
39   H        65.5614   93.3074   48.7450  H     
40   H        65.0838   89.9316   41.6785  H     
41   H        66.0977   91.1346   43.5039  H     
42   H        70.8184   91.5059   41.5799  H     
43   H        71.0446   90.3741   39.2617  H     
44   H        68.8120   89.4477   38.6455  H     
@<TRIPOS>BOND
     1    1    2 1
     2    1    6 2
     3    2    3 2
     4    3    4 1
     5    3    7 1
     6    4    5 2
     7    4   22 1
     8    5    6 1
     9    6    8 1
    10    8    9 1
    11    9   16 2
    12    9   17 1
    13   10   11 2
    14   10   14 1
    15   10   17 1
    16   11   13 1
    17   11   16 1
    18   12   13 2
    19   12   15 1
    20   12   18 1
    21   14   15 2
    22   18   19 1
    23   19   26 2
    24   19   27 1
    25   20   21 2
    26   20   26 1
    27   21   28 1
    28   22   23 1
    29   22   24 1
    30   22   25 1
    31   27   28 2
    32   27   29 1
    33   28   31 1
    34   29   30 2
    35   30   31 1
    36    1   32 1
    37    2   33 1
    38    5   34 1
    39    8   35 1
    40   13   36 1
    41   14   37 1
    42   15   38 1
    43   17   39 1
    44   20   40 1
    45   26   41 1
    46   29   42 1
    47   30   43 1
    48   31   44 1
@<TRIPOS>PROPERTY_DATA
  Total_Score	| 10.3831
  Crash		| -1.4917
  Polar		| 2.9784
  FragIndex	| 1
  FragRMSD	| 0.499

