@<TRIPOS>MOLECULE
BindingDB_17684
 67 71 0 0 0
SMALL
NO_CHARGES


@<TRIPOS>ATOM
1    C        62.6766   96.3591   46.2232  C     
2    C        61.7626   97.3904   45.9072  C     
3    C        61.5509   98.4817   46.7942  C     
4    C        62.3592   98.5562   47.9632  C     
5    C        63.2137   97.4910   48.2988  C     
6    C        63.3972   96.3955   47.4398  C     
7    N        64.1965   95.3911   47.8855  N     
8    C        65.1104   94.6866   47.1947  C     
9    C        66.5876   93.1440   46.8449  C     
10   C        66.4745   93.9361   45.7074  C     
11   C        68.1350   92.5648   44.5939  C     
12   C        67.2555   93.6713   44.5699  C     
13   C        67.4545   92.0397   46.8928  C     
14   C        68.2323   91.7570   45.7524  C     
15   N        65.5525   94.8843   45.9360  N     
16   N        65.7494   93.6440   47.7533  N     
17   O        68.9167   92.3171   43.5048  O     
18   C        68.5171   91.3795   42.5801  C     
19   C        67.0060   89.7988   41.5053  C     
20   N        67.9602   89.5444   40.5769  N     
21   C        67.2604   90.7251   42.5276  C     
22   C        69.4719   91.0760   41.5878  C     
23   C        69.1879   90.1371   40.5643  C     
24   C        70.1014   89.8263   39.5604  C     
25   O        71.1724   90.4228   39.5017  O     
26   N        69.8306   88.8951   38.6541  N     
27   C        70.6775   88.5301   37.5672  C     
28   O        62.4337   99.6481   48.7883  O     
29   C        63.5119  100.5592   48.4520  C     
30   C        63.7452  101.6057   49.5923  C     
31   C        62.4623  102.4021   49.9390  C     
32   C        61.8827  101.6996   51.1832  C     
33   C        62.9781  100.7365   51.6722  C     
34   N        64.1939  101.1039   50.9214  N     
35   C        65.2587  100.0699   50.9469  C     
36   F        60.2128  100.3964   47.4916  F     
37   C        60.4956   99.4967   46.4690  C     
38   F        60.9003  100.2276   45.3700  F     
39   F        59.2976   98.8758   46.1654  F     
40   H        62.7720   95.5709   45.5803  H     
41   H        61.2268   97.3190   45.0323  H     
42   H        63.7430   97.5408   49.1687  H     
43   H        64.1357   95.1942   48.8409  H     
44   H        67.1890   94.2720   43.7501  H     
45   H        67.5198   91.4611   47.7328  H     
46   H        68.8709   90.9610   45.7638  H     
47   H        65.6097   93.3013   48.6485  H     
48   H        66.1014   89.3248   41.4503  H     
49   H        66.5329   90.9146   43.2196  H     
50   H        70.3763   91.5551   41.6163  H     
51   H        68.9829   88.4260   38.7270  H     
52   H        70.8435   89.3868   36.9095  H     
53   H        70.1987   87.7359   36.9922  H     
54   H        71.6359   88.1645   37.9423  H     
55   H        64.4614  100.0367   48.2555  H     
56   H        63.2142  101.0748   47.5168  H     
57   H        64.4936  102.3069   49.2129  H     
58   H        62.7272  103.4352   50.1907  H     
59   H        61.7352  102.4274   49.1176  H     
60   H        61.6544  102.4365   51.9569  H     
61   H        60.9809  101.1360   50.9254  H     
62   H        63.1476  100.8428   52.7468  H     
63   H        62.6843   99.7063   51.4644  H     
64   H        64.5797  101.9186   51.4004  H     
65   H        65.5789   99.8905   51.9757  H     
66   H        66.1205  100.4236   50.3802  H     
67   H        64.9205   99.1233   50.5178  H     
@<TRIPOS>BOND
     1    1    2 1
     2    1    6 2
     3    2    3 2
     4    3    4 1
     5    3   37 1
     6    4    5 2
     7    4   28 1
     8    5    6 1
     9    6    7 1
    10    7    8 1
    11    8   15 2
    12    8   16 1
    13    9   10 2
    14    9   13 1
    15    9   16 1
    16   10   12 1
    17   10   15 1
    18   11   12 2
    19   11   14 1
    20   11   17 1
    21   13   14 2
    22   17   18 1
    23   18   21 2
    24   18   22 1
    25   19   20 2
    26   19   21 1
    27   20   23 1
    28   22   23 2
    29   23   24 1
    30   24   25 2
    31   24   26 am
    32   26   27 1
    33   28   29 1
    34   30   29 1
    35   30   31 1
    36   30   34 1
    37   31   32 1
    38   32   33 1
    39   33   34 1
    40   34   35 1
    41   36   37 1
    42   37   38 1
    43   37   39 1
    44    1   40 1
    45    2   41 1
    46    5   42 1
    47    7   43 1
    48   12   44 1
    49   13   45 1
    50   14   46 1
    51   16   47 1
    52   19   48 1
    53   21   49 1
    54   22   50 1
    55   26   51 1
    56   27   52 1
    57   27   53 1
    58   27   54 1
    59   29   55 1
    60   29   56 1
    61   30   57 1
    62   31   58 1
    63   31   59 1
    64   32   60 1
    65   32   61 1
    66   33   62 1
    67   33   63 1
    68   34   64 1
    69   35   65 1
    70   35   66 1
    71   35   67 1
@<TRIPOS>PROPERTY_DATA
  Total_Score	| 13.3825
  Crash		| -1.7291
  Polar		| 3.9617
  FragIndex	| 1
  FragRMSD	| 0.436

