@<TRIPOS>MOLECULE
BindingDB_17685
 70 74 0 0 0
SMALL
NO_CHARGES


@<TRIPOS>ATOM
1    C        62.9856   96.5326   46.2251  C     
2    C        62.1670   97.6407   45.9422  C     
3    C        61.9935   98.6924   46.8755  C     
4    C        62.7488   98.6362   48.0856  C     
5    C        63.5185   97.4873   48.3773  C     
6    C        63.6560   96.4340   47.4668  C     
7    N        64.3618   95.3432   47.8873  N     
8    C        65.2181   94.5842   47.1926  C     
9    C        66.6142   92.9707   46.7963  C     
10   C        66.5531   93.8043   45.6780  C     
11   C        68.2244   92.4516   44.5652  C     
12   C        67.3493   93.5598   44.5482  C     
13   C        67.4638   91.8566   46.8249  C     
14   C        68.2766   91.6052   45.6976  C     
15   N        65.6878   94.7945   45.9397  N     
16   N        65.7861   93.4785   47.7095  N     
17   O        69.0105   92.2053   43.4793  O     
18   C        68.6092   91.2701   42.5543  C     
19   C        67.0755   89.7172   41.4601  C     
20   N        68.0212   89.4744   40.5200  N     
21   C        67.3461   90.6255   42.4965  C     
22   C        69.5586   90.9653   41.5547  C     
23   C        69.2548   90.0583   40.5114  C     
24   C        70.1429   89.7588   39.4848  C     
25   O        71.2177   90.3507   39.4120  O     
26   N        69.8392   88.8467   38.5697  N     
27   C        70.6573   88.4677   37.4675  C     
28   O        62.6555   99.6883   48.9694  O     
29   C        63.7567  100.6230   49.1177  C     
30   C        63.3106  101.8430   49.9788  C     
31   C        61.8301  102.2670   49.8363  C     
32   C        61.5708  103.1844   51.0518  C     
33   C        62.7842  102.9683   51.9785  C     
34   N        63.5156  101.7776   51.4618  N     
35   C        63.1471  100.5099   52.1674  C     
36   F        61.5720  101.0140   46.9182  F     
37   F        58.8046  100.6526   47.1768  F     
38   C        59.6470   99.5796   47.3649  C     
39   F        59.0138   98.4430   46.9155  F     
40   F        59.7659   99.4618   48.7345  F     
41   C        61.0004   99.7927   46.6070  C     
42   F        60.6788   99.9213   45.2699  F     
43   H        63.0087   95.7642   45.5564  H     
44   H        61.6597   97.6371   45.0517  H     
45   H        64.0039   97.4323   49.2717  H     
46   H        64.2449   95.1036   48.8276  H     
47   H        67.3038   94.1752   43.7361  H     
48   H        67.5096   91.2555   47.6515  H     
49   H        68.9015   90.7960   45.6980  H     
50   H        65.6323   93.1287   48.6039  H     
51   H        66.1675   89.2566   41.3962  H     
52   H        66.6222   90.8106   43.1935  H     
53   H        70.4764   91.4221   41.5938  H     
54   H        68.9851   88.3902   38.6549  H     
55   H        70.8253   89.3218   36.8058  H     
56   H        70.1538   87.6822   36.9022  H     
57   H        71.6175   88.0855   37.8233  H     
58   H        64.5584  100.0674   49.6116  H     
59   H        64.1250  101.0153   48.1550  H     
60   H        63.9039  102.6896   49.6067  H     
61   H        61.6470  102.8043   48.9013  H     
62   H        61.1772  101.3920   49.8739  H     
63   H        61.5017  104.2324   50.7424  H     
64   H        60.6382  102.9061   51.5540  H     
65   H        63.4525  103.8355   51.9199  H     
66   H        62.4700  102.8765   53.0221  H     
67   H        64.5042  101.9299   51.6632  H     
68   H        63.2059  100.6368   53.2510  H     
69   H        63.8469   99.7148   51.9093  H     
70   H        62.1363  100.1870   51.9130  H     
@<TRIPOS>BOND
     1    1    2 1
     2    1    6 2
     3    2    3 2
     4    3    4 1
     5    3   41 1
     6    4    5 2
     7    4   28 1
     8    5    6 1
     9    6    7 1
    10    7    8 1
    11    8   15 2
    12    8   16 1
    13    9   10 2
    14    9   13 1
    15    9   16 1
    16   10   12 1
    17   10   15 1
    18   11   12 2
    19   11   14 1
    20   11   17 1
    21   13   14 2
    22   17   18 1
    23   18   21 2
    24   18   22 1
    25   19   20 2
    26   19   21 1
    27   20   23 1
    28   22   23 2
    29   23   24 1
    30   24   25 2
    31   24   26 am
    32   26   27 1
    33   28   29 1
    34   30   29 1
    35   30   31 1
    36   30   34 1
    37   31   32 1
    38   32   33 1
    39   33   34 1
    40   34   35 1
    41   36   41 1
    42   37   38 1
    43   38   39 1
    44   38   40 1
    45   38   41 1
    46   41   42 1
    47    1   43 1
    48    2   44 1
    49    5   45 1
    50    7   46 1
    51   12   47 1
    52   13   48 1
    53   14   49 1
    54   16   50 1
    55   19   51 1
    56   21   52 1
    57   22   53 1
    58   26   54 1
    59   27   55 1
    60   27   56 1
    61   27   57 1
    62   29   58 1
    63   29   59 1
    64   30   60 1
    65   31   61 1
    66   31   62 1
    67   32   63 1
    68   32   64 1
    69   33   65 1
    70   33   66 1
    71   34   67 1
    72   35   68 1
    73   35   69 1
    74   35   70 1
@<TRIPOS>PROPERTY_DATA
  Total_Score	| 13.4914
  Crash		| -2.1942
  Polar		| 3.7088
  FragIndex	| 1
  FragRMSD	| 0.534

