@<TRIPOS>MOLECULE
BindingDB_50389817
 45 47 0 0 0
SMALL
NO_CHARGES


@<TRIPOS>ATOM
1    S         4.6412   -3.6677   45.6115  S     
2    C         3.3836   -3.1399   44.5582  C     
3    C         3.8607   -1.9664   43.9352  C     
4    C         5.1760   -1.6155   44.3255  C     
5    C         5.7992   -2.4442   45.2725  C     
6    C         7.1125   -2.3565   45.8281  C     
7    C         7.9696   -1.2612   45.5444  C     
8    C         9.2707   -1.1899   46.0723  C     
9    C         9.7504   -2.2069   46.9110  C     
10   C         8.9167   -3.2952   47.2205  C     
11   C         7.6181   -3.3667   46.6837  C     
12   N         3.0640   -1.2643   43.0713  N     
13   C         3.2376   -0.0930   42.4780  C     
14   N         2.2576    0.3810   41.7523  N     
15   O         4.2292    0.6101   42.5963  O     
16   C         2.1852   -3.8239   44.3950  C     
17   N         1.8853   -4.8531   45.1764  N     
18   O         1.3884   -3.4680   43.5321  O     
19   C         0.6979   -5.6590   45.1325  C     
20   C        -0.2284   -5.2676   46.3107  C     
21   N        -1.4294   -6.1318   46.2961  N     
22   C        -1.1256   -7.5698   46.4548  C     
23   C        -0.1873   -8.0627   45.3228  C     
24   C         1.0741   -7.1669   45.1979  C     
25   F        10.9568   -2.1394   47.4034  F     
26   H         5.6641   -0.8144   43.9287  H     
27   H         7.6581   -0.4894   44.9497  H     
28   H         9.8653   -0.3875   45.8447  H     
29   H         9.2544   -4.0354   47.8344  H     
30   H         7.0475   -4.1804   46.9305  H     
31   H         2.2059   -1.6610   42.8893  H     
32   H         2.3359    1.2575   41.3372  H     
33   H         1.4261   -0.1152   41.6649  H     
34   H         2.5081   -5.0671   45.8915  H     
35   H         0.1332   -5.4988   44.2072  H     
36   H         0.3016   -5.3637   47.2621  H     
37   H        -0.5366   -4.2270   46.2003  H     
38   H        -2.0749   -5.8442   47.0322  H     
39   H        -1.8944   -6.0068   45.3964  H     
40   H        -0.6643   -7.7446   47.4298  H     
41   H        -2.0566   -8.1326   46.4195  H     
42   H         0.1129   -9.0966   45.5163  H     
43   H        -0.7254   -8.0423   44.3708  H     
44   H         1.6256   -7.4447   44.2933  H     
45   H         1.7275   -7.3502   46.0557  H     
@<TRIPOS>BOND
     1    1    2 1
     2    1    5 1
     3    2    3 2
     4    2   16 1
     5    3    4 1
     6    3   12 1
     7    4    5 2
     8    5    6 1
     9    6    7 2
    10    6   11 1
    11    7    8 1
    12    8    9 2
    13    9   10 1
    14    9   25 1
    15   10   11 2
    16   12   13 am
    17   13   14 am
    18   13   15 2
    19   16   17 am
    20   16   18 2
    21   19   17 1
    22   19   20 1
    23   19   24 1
    24   20   21 1
    25   21   22 1
    26   22   23 1
    27   23   24 1
    28    4   26 1
    29    7   27 1
    30    8   28 1
    31   10   29 1
    32   11   30 1
    33   12   31 1
    34   14   32 1
    35   14   33 1
    36   17   34 1
    37   19   35 1
    38   20   36 1
    39   20   37 1
    40   21   38 1
    41   21   39 1
    42   22   40 1
    43   22   41 1
    44   23   42 1
    45   23   43 1
    46   24   44 1
    47   24   45 1
@<TRIPOS>PROPERTY_DATA
  Total_Score	| 6.7003
  Crash		| -0.3084
  Polar		| 3.5263
  FragIndex	| 1
  FragRMSD	| 0.321

