@<TRIPOS>MOLECULE
BindingDB_50389815
 45 47 0 0 0
SMALL
NO_CHARGES


@<TRIPOS>ATOM
1    S         4.6170   -3.8615   45.3709  S     
2    C         3.3497   -3.2774   44.3586  C     
3    C         3.8668   -2.1411   43.7009  C     
4    C         5.2077   -1.8448   44.0434  C     
5    C         5.8187   -2.6934   44.9776  C     
6    C         7.1430   -2.6198   45.4960  C     
7    C         7.8537   -1.3924   45.5150  C     
8    C         9.1610   -1.3186   46.0305  C     
9    C         9.7815   -2.4688   46.5421  C     
10   C         9.0940   -3.6976   46.5314  C     
11   C         7.7850   -3.7700   46.0120  C     
12   N         3.1297   -1.4390   42.7836  N     
13   C         3.2295   -0.1618   42.4522  C     
14   N         2.4068    0.3135   41.5475  N     
15   O         4.0034    0.6234   42.9782  O     
16   C         2.0811   -3.8404   44.2814  C     
17   N         1.7448   -4.8655   45.0536  N     
18   O         1.2448   -3.3421   43.5404  O     
19   C         0.4653   -5.5189   45.1254  C     
20   C         0.2606   -6.0683   46.5640  C     
21   N        -1.0034   -6.8278   46.6977  N     
22   C        -1.1146   -7.9698   45.7596  C     
23   C        -0.9734   -7.4936   44.2922  C     
24   C         0.3264   -6.6754   44.0875  C     
25   Cl        9.8383   -5.0868   47.1463  Cl    
26   H         5.7251   -1.0860   43.6007  H     
27   H         7.4281   -0.5331   45.1680  H     
28   H         9.6594   -0.4252   46.0299  H     
29   H        10.7314   -2.4082   46.9152  H     
30   H         7.3197   -4.6820   45.9872  H     
31   H         2.4044   -1.9225   42.3585  H     
32   H         2.4402    1.2573   41.3180  H     
33   H         1.7613   -0.2689   41.1173  H     
34   H         2.4256   -5.1859   45.6653  H     
35   H        -0.3233   -4.7780   44.9450  H     
36   H         1.0944   -6.7208   46.8410  H     
37   H         0.2267   -5.2404   47.2700  H     
38   H        -1.0644   -7.1953   47.6539  H     
39   H        -1.7972   -6.1933   46.5446  H     
40   H        -0.3421   -8.7157   45.9854  H     
41   H        -2.0906   -8.4439   45.8979  H     
42   H        -0.9754   -8.3610   43.6192  H     
43   H        -1.8374   -6.8654   44.0436  H     
44   H         0.3106   -6.2641   43.0726  H     
45   H         1.1922   -7.3470   44.1682  H     
@<TRIPOS>BOND
     1    1    2 1
     2    1    5 1
     3    2    3 2
     4    2   16 1
     5    3    4 1
     6    3   12 1
     7    4    5 2
     8    5    6 1
     9    6    7 2
    10    6   11 1
    11    7    8 1
    12    8    9 2
    13    9   10 1
    14   10   11 2
    15   10   25 1
    16   12   13 am
    17   13   14 am
    18   13   15 2
    19   16   17 am
    20   16   18 2
    21   19   17 1
    22   19   20 1
    23   19   24 1
    24   20   21 1
    25   21   22 1
    26   22   23 1
    27   23   24 1
    28    4   26 1
    29    7   27 1
    30    8   28 1
    31    9   29 1
    32   11   30 1
    33   12   31 1
    34   14   32 1
    35   14   33 1
    36   17   34 1
    37   19   35 1
    38   20   36 1
    39   20   37 1
    40   21   38 1
    41   21   39 1
    42   22   40 1
    43   22   41 1
    44   23   42 1
    45   23   43 1
    46   24   44 1
    47   24   45 1
@<TRIPOS>PROPERTY_DATA
  Total_Score	| 6.2256
  Crash		| -0.5918
  Polar		| 3.2008
  FragIndex	| 1
  FragRMSD	| 0.638

