@<TRIPOS>MOLECULE
BindingDB_50389813
 45 47 0 0 0
SMALL
NO_CHARGES


@<TRIPOS>ATOM
1    S         4.6867   -3.7605   45.6138  S     
2    C         3.4199   -3.2107   44.5915  C     
3    C         3.8936   -2.0266   43.9706  C     
4    C         5.2107   -1.6898   44.3646  C     
5    C         5.8436   -2.5343   45.2884  C     
6    C         7.1504   -2.4426   45.8554  C     
7    C         7.9773   -1.3124   45.6432  C     
8    C         9.2762   -1.2436   46.1877  C     
9    C         9.7686   -2.3037   46.9701  C     
10   C         8.9615   -3.4245   47.2125  C     
11   C         7.6666   -3.4931   46.6643  C     
12   N         3.1089   -1.3169   43.0924  N     
13   C         3.2957   -0.1318   42.5396  C     
14   N         2.3204    0.3983   41.8335  N     
15   O         4.3063    0.5458   42.6633  O     
16   C         2.2051   -3.8751   44.4833  C     
17   N         2.0247   -5.0478   45.0784  N     
18   O         1.3021   -3.3738   43.8310  O     
19   C         0.8250   -5.8442   45.0532  C     
20   C        -0.2204   -5.2937   46.0655  C     
21   N        -1.4346   -6.1472   46.0929  N     
22   C        -1.1597   -7.5590   46.4414  C     
23   C        -0.1414   -8.1860   45.4591  C     
24   C         1.1500   -7.3316   45.3724  C     
25   F         9.4156   -4.4046   47.9442  F     
26   F        10.0171   -0.1939   45.9746  F     
27   H         5.6985   -0.8790   43.9881  H     
28   H         7.6558   -0.5204   45.0906  H     
29   H        10.7085   -2.2531   47.3641  H     
30   H         7.1078   -4.3238   46.8653  H     
31   H         2.2553   -1.7213   42.8820  H     
32   H         2.4246    1.2830   41.4526  H     
33   H         1.4760   -0.0644   41.7468  H     
34   H         2.7799   -5.4206   45.5637  H     
35   H         0.3933   -5.8144   44.0474  H     
36   H         0.2111   -5.2400   47.0680  H     
37   H        -0.5150   -4.2825   45.7802  H     
38   H        -2.1106   -5.7652   46.7596  H     
39   H        -1.8586   -6.1265   45.1632  H     
40   H        -0.7765   -7.6156   47.4657  H     
41   H        -2.0989   -8.1160   46.4025  H     
42   H         0.1095   -9.1987   45.7896  H     
43   H        -0.5974   -8.2579   44.4651  H     
44   H         1.7969   -7.7378   44.5910  H     
45   H         1.6885   -7.4013   46.3233  H     
@<TRIPOS>BOND
     1    1    2 1
     2    1    5 1
     3    2    3 2
     4    2   16 1
     5    3    4 1
     6    3   12 1
     7    4    5 2
     8    5    6 1
     9    6    7 2
    10    6   11 1
    11    7    8 1
    12    8    9 2
    13    8   26 1
    14    9   10 1
    15   10   11 2
    16   10   25 1
    17   12   13 am
    18   13   14 am
    19   13   15 2
    20   16   17 am
    21   16   18 2
    22   19   17 1
    23   19   20 1
    24   19   24 1
    25   20   21 1
    26   21   22 1
    27   22   23 1
    28   23   24 1
    29    4   27 1
    30    7   28 1
    31    9   29 1
    32   11   30 1
    33   12   31 1
    34   14   32 1
    35   14   33 1
    36   17   34 1
    37   19   35 1
    38   20   36 1
    39   20   37 1
    40   21   38 1
    41   21   39 1
    42   22   40 1
    43   22   41 1
    44   23   42 1
    45   23   43 1
    46   24   44 1
    47   24   45 1
@<TRIPOS>PROPERTY_DATA
  Total_Score	| 6.3101
  Crash		| -0.3523
  Polar		| 3.6300
  FragIndex	| 1
  FragRMSD	| 0.352

