@<TRIPOS>MOLECULE
BindingDB_50389803
 45 47 0 0 0
SMALL
NO_CHARGES


@<TRIPOS>ATOM
1    C         9.0284   -3.2808   47.1577  C     
2    C         9.8438   -2.1880   46.8193  C     
3    C         9.3489   -1.1879   45.9664  C     
4    C         8.0386   -1.2810   45.4574  C     
5    C         7.1972   -2.3775   45.7727  C     
6    C         7.7217   -3.3718   46.6406  C     
7    C         5.8742   -2.4804   45.2394  C     
8    S         4.7516   -3.7487   45.5395  S     
9    C         3.4403   -3.1812   44.5832  C     
10   C         3.8752   -1.9727   44.0002  C     
11   C         5.1923   -1.6116   44.3759  C     
12   F         9.4838   -4.2054   47.9557  F     
13   C         2.2206   -3.8497   44.4723  C     
14   O         1.3046   -3.3574   43.8304  O     
15   N         2.0494   -5.0307   45.0563  N     
16   C         0.8537   -5.8319   45.0429  C     
17   C        -0.1959   -5.2975   46.0641  C     
18   N        -1.4060   -6.1608   46.0881  N     
19   C        -1.1244   -7.5836   46.4019  C     
20   C        -0.0887   -8.1873   45.4215  C     
21   C         1.1916   -7.3153   45.3570  C     
22   N         3.0480   -1.2687   43.1615  N     
23   C         3.2292   -0.1215   42.5316  C     
24   N         2.2439    0.3538   41.8069  N     
25   O         4.2446    0.5584   42.6046  O     
26   H        10.7924   -2.1130   47.1919  H     
27   H         9.9407   -0.3940   45.7082  H     
28   H         7.7189   -0.5295   44.8477  H     
29   H         7.1513   -4.1760   46.9151  H     
30   H         5.6349   -0.7554   44.0406  H     
31   H         2.8044   -5.3914   45.5410  H     
32   H         0.4047   -5.8020   44.0406  H     
33   H         0.2481   -5.2469   47.0643  H     
34   H        -0.4896   -4.2856   45.7791  H     
35   H        -2.0779   -5.7979   46.7740  H     
36   H        -1.8417   -6.1215   45.1671  H     
37   H        -0.7609   -7.6654   47.4298  H     
38   H        -2.0594   -8.1443   46.3291  H     
39   H         0.1685   -9.1976   45.7391  H     
40   H        -0.5319   -8.2499   44.4207  H     
41   H         1.8560   -7.7190   44.5884  H     
42   H         1.7116   -7.3822   46.3168  H     
43   H         2.1727   -1.6584   43.0192  H     
44   H         2.3380    1.2088   41.3626  H     
45   H         1.4076   -0.1346   41.7422  H     
@<TRIPOS>BOND
     1    1    2 2
     2    1    6 1
     3    1   12 1
     4    2    3 1
     5    3    4 2
     6    4    5 1
     7    5    6 2
     8    5    7 1
     9    7    8 1
    10    7   11 2
    11    8    9 1
    12    9   10 2
    13    9   13 1
    14   10   11 1
    15   10   22 1
    16   13   14 2
    17   13   15 am
    18   16   15 1
    19   16   17 1
    20   16   21 1
    21   17   18 1
    22   18   19 1
    23   19   20 1
    24   20   21 1
    25   22   23 am
    26   23   24 am
    27   23   25 2
    28    2   26 1
    29    3   27 1
    30    4   28 1
    31    6   29 1
    32   11   30 1
    33   15   31 1
    34   16   32 1
    35   17   33 1
    36   17   34 1
    37   18   35 1
    38   18   36 1
    39   19   37 1
    40   19   38 1
    41   20   39 1
    42   20   40 1
    43   21   41 1
    44   21   42 1
    45   22   43 1
    46   24   44 1
    47   24   45 1
@<TRIPOS>PROPERTY_DATA
  Total_Score	| 6.0367
  Crash		| -0.5665
  Polar		| 3.5271
  FragIndex	| 1
  FragRMSD	| 0.346

