@<TRIPOS>MOLECULE
BindingDB_50281989
 29 29 0 0 0
SMALL
NO_CHARGES


@<TRIPOS>ATOM
1    P        60.0476   14.7598   32.5096  P     
2    C        56.3365   11.9462   27.9934  C     
3    C        57.9490   10.9736   29.6852  C     
4    C        55.3594   11.0772   28.3505  C     
5    C        56.0002   13.1473   27.3843  C     
6    C        56.7675   10.0002   30.0971  C     
7    C        58.8323   13.6407   32.3106  C     
8    C        55.6490    9.8305   29.0204  C     
9    C        59.1044   12.5459   31.3618  C     
10   C        57.7395   11.5855   28.2726  C     
11   O        58.0647   12.0660   30.6280  O     
12   O        60.2953   15.6389   31.2775  O     
13   O        59.6414   15.6758   33.5469  O     
14   O        56.8589   14.2010   27.3601  O     
15   O        54.8503   13.2894   26.6765  O     
16   O        60.2708   11.8548   31.4948  O     
17   O        61.3870   14.1346   32.9775  O     
18   O        57.2693    8.7111   30.4516  O     
19   O        56.0234    8.8842   28.0253  O     
20   H        58.8894   10.4172   29.6743  H     
21   H        54.4018   11.2985   28.1928  H     
22   H        56.2860   10.4145   31.0056  H     
23   H        58.6140   13.1819   33.2804  H     
24   H        57.9415   14.1875   31.9728  H     
25   H        54.7421    9.4537   29.5034  H     
26   H        58.0416   10.8579   27.5166  H     
27   H        58.4050   12.4382   28.1476  H     
28   H        57.8311    8.8844   31.2357  H     
29   H        55.3545    8.1640   28.0611  H     
@<TRIPOS>BOND
     1    1    7 1
     2    1   12 1
     3    1   13 2
     4    1   17 1
     5    2    4 2
     6    2    5 1
     7    2   10 1
     8    3    6 1
     9    3   10 1
    10    3   11 1
    11    4    8 1
    12    5   14 1
    13    5   15 2
    14    6    8 1
    15    6   18 1
    16    7    9 1
    17    8   19 1
    18    9   11 1
    19    9   16 2
    20    3   20 1
    21    4   21 1
    22    6   22 1
    23    7   23 1
    24    7   24 1
    25    8   25 1
    26   10   26 1
    27   10   27 1
    28   18   28 1
    29   19   29 1
@<TRIPOS>PROPERTY_DATA
  Total_Score	| 12.3507
  Crash		| -2.0207
  Polar		| 11.5596
  FragIndex	| 1
  FragRMSD	| 0.719

