@<TRIPOS>MOLECULE
BindingDB_50281998
 21 21 0 0 0
SMALL
NO_CHARGES


@<TRIPOS>ATOM
1    C        55.9613   13.1550   27.3683  C     
2    C        56.3050   12.0136   28.0781  C     
3    C        55.3792   11.0541   28.3159  C     
4    C        55.6131    9.8217   29.0449  C     
5    O        55.6413    8.7665   28.0825  O     
6    C        56.9213    9.8328   29.8793  C     
7    O        57.2592    8.5100   30.2775  O     
8    C        58.0828   10.4595   29.0683  C     
9    O        59.3047   10.4689   29.8080  O     
10   C        57.6703   11.8915   28.6156  C     
11   O        54.8294   13.2299   26.6132  O     
12   O        56.7278   14.2657   27.3997  O     
13   H        54.4658   11.1474   27.9182  H     
14   H        54.7806    9.6490   29.7403  H     
15   H        54.7659    8.3168   28.1372  H     
16   H        56.7468   10.4420   30.7760  H     
17   H        57.7824    8.6246   31.1010  H     
18   H        58.2515    9.8603   28.1645  H     
19   H        59.0364   10.6271   30.7460  H     
20   H        58.3979   12.2142   27.8522  H     
21   H        57.7595   12.5794   29.4557  H     
@<TRIPOS>BOND
     1    1    2 1
     2    1   11 2
     3    1   12 1
     4    2    3 2
     5    2   10 1
     6    3    4 1
     7    4    5 1
     8    4    6 1
     9    6    7 1
    10    6    8 1
    11    8    9 1
    12    8   10 1
    13    3   13 1
    14    4   14 1
    15    5   15 1
    16    6   16 1
    17    7   17 1
    18    8   18 1
    19    9   19 1
    20   10   20 1
    21   10   21 1
@<TRIPOS>PROPERTY_DATA
  Total_Score	| 11.0175
  Crash		| -0.4598
  Polar		| 10.0742
  FragIndex	| 1
  FragRMSD	| 0.051

