@<TRIPOS>MOLECULE
BindingDB_50281342
 27 27 0 0 0
SMALL
NO_CHARGES


@<TRIPOS>ATOM
1    C        56.3709   11.9869   28.0960  C     
2    C        58.0363   10.2809   29.0760  C     
3    C        55.3616   11.1309   28.3685  C     
4    C        59.9128    9.2088   30.2978  C     
5    C        56.8188    9.8102   29.9285  C     
6    O        59.3033   10.3034   29.7805  O     
7    C        56.1054   13.1689   27.4061  C     
8    C        55.5251    9.8715   29.0734  C     
9    C        57.7413   11.7291   28.5749  C     
10   C        60.7495    9.4575   31.3770  C     
11   O        55.0073   13.2963   26.6279  O     
12   O        61.3059   10.6747   31.5495  O     
13   C        59.7691    7.9690   29.7963  C     
14   O        56.9507    8.4867   30.4306  O     
15   O        56.9959   14.1860   27.3571  O     
16   O        61.1068    8.5155   32.2765  O     
17   O        55.5217    8.8448   28.0836  O     
18   H        58.1473    9.6344   28.1944  H     
19   H        54.4432   11.3303   28.0400  H     
20   H        56.7081   10.4763   30.7914  H     
21   H        54.6699    9.7175   29.7368  H     
22   H        58.4567   11.9463   27.7724  H     
23   H        57.9404   12.4304   29.3914  H     
24   H        60.2352    7.1847   30.1934  H     
25   H        59.1573    7.8031   29.0343  H     
26   H        57.5611    8.5614   31.1915  H     
27   H        54.6541    8.3987   28.1656  H     
@<TRIPOS>BOND
     1    1    3 2
     2    1    7 1
     3    1    9 1
     4    2    5 1
     5    2    6 1
     6    2    9 1
     7    3    8 1
     8    4    6 1
     9    4   10 1
    10    4   13 2
    11    5    8 1
    12    5   14 1
    13    7   11 2
    14    7   15 1
    15    8   17 1
    16   10   12 2
    17   10   16 1
    18    2   18 1
    19    3   19 1
    20    5   20 1
    21    8   21 1
    22    9   22 1
    23    9   23 1
    24   13   24 1
    25   13   25 1
    26   14   26 1
    27   17   27 1
@<TRIPOS>PROPERTY_DATA
  Total_Score	| 16.6783
  Crash		| -0.7727
  Polar		| 14.5055
  FragIndex	| 1
  FragRMSD	| 0.158

