@<TRIPOS>MOLECULE
BindingDB_50281994
 27 27 0 0 0
SMALL
NO_CHARGES


@<TRIPOS>ATOM
1    C        56.3749   11.9667   28.0934  C     
2    C        58.0285   10.2593   29.0803  C     
3    C        55.3613   11.1130   28.3607  C     
4    C        59.9126    9.1855   30.2909  C     
5    C        56.1229   13.1384   27.3810  C     
6    C        56.8100    9.7798   29.9236  C     
7    O        59.3052   10.2754   29.7696  O     
8    C        60.7478    9.4347   31.3698  C     
9    C        55.5158    9.8519   29.0659  C     
10   C        57.7409   11.7116   28.5869  C     
11   O        57.0167   14.1524   27.3349  O     
12   O        61.0994    8.5040   32.2862  O     
13   O        55.0349   13.2631   26.5865  O     
14   O        61.2923   10.6576   31.5469  O     
15   C        59.7920    7.9492   29.7727  C     
16   O        56.9557    8.4464   30.3967  O     
17   O        55.5017    8.8257   28.0722  O     
18   H        58.1187    9.6250   28.1921  H     
19   H        54.4430   11.3121   28.0243  H     
20   H        56.6923   10.4323   30.7955  H     
21   H        54.6583    9.7045   29.7303  H     
22   H        58.4639   11.9293   27.7913  H     
23   H        57.9320   12.4122   29.4081  H     
24   H        60.2530    7.1674   30.1717  H     
25   H        59.2354    7.7938   28.9696  H     
26   H        57.4913    8.5214   31.2108  H     
27   H        54.6136    8.4129   28.1345  H     
@<TRIPOS>BOND
     1    1    3 2
     2    1    5 1
     3    1   10 1
     4    2    6 1
     5    2    7 1
     6    2   10 1
     7    3    9 1
     8    4    7 1
     9    4    8 1
    10    4   15 2
    11    5   11 1
    12    5   13 2
    13    6    9 1
    14    6   16 1
    15    8   12 1
    16    8   14 2
    17    9   17 1
    18    2   18 1
    19    3   19 1
    20    6   20 1
    21    9   21 1
    22   10   22 1
    23   10   23 1
    24   15   24 1
    25   15   25 1
    26   16   26 1
    27   17   27 1
@<TRIPOS>PROPERTY_DATA
  Total_Score	| 16.6869
  Crash		| -0.7494
  Polar		| 14.4435
  FragIndex	| 1
  FragRMSD	| 0.166

