@<TRIPOS>MOLECULE
BindingDB_50281991
 25 25 0 0 0
SMALL
NO_CHARGES


@<TRIPOS>ATOM
1    P        53.2199    7.9791   28.4564  P     
2    C        56.3993   12.0813   28.2311  C     
3    C        55.9874   13.1636   27.4575  C     
4    C        55.5305   11.0677   28.4996  C     
5    C        53.5145    9.1064   29.6370  C     
6    O        52.0486    8.3473   27.6778  O     
7    O        54.8386   13.1274   26.7148  O     
8    O        54.3923    7.8991   27.4785  O     
9    O        52.9261    6.5863   29.0640  O     
10   O        54.8980    9.2381   30.0336  O     
11   C        55.8990    9.8099   29.1476  C     
12   O        56.6789   14.3194   27.4008  O     
13   C        57.7655   12.0813   28.7723  C     
14   C        58.2813   10.6963   29.2525  C     
15   C        57.1638    9.9564   30.0294  C     
16   H        54.5918   11.1473   28.1807  H     
17   H        53.0677   10.0500   29.3043  H     
18   H        52.9720    8.7855   30.5233  H     
19   H        56.1210    9.0794   28.3589  H     
20   H        58.4774   12.4453   28.0283  H     
21   H        57.7947   12.7769   29.6214  H     
22   H        58.5925   10.0977   28.3925  H     
23   H        59.1518   10.8225   29.9177  H     
24   H        56.9138   10.5370   30.9288  H     
25   H        57.5213    8.9716   30.3437  H     
@<TRIPOS>BOND
     1    1    5 1
     2    1    6 2
     3    1    8 1
     4    1    9 1
     5    2    3 1
     6    2    4 2
     7    2   13 1
     8    3    7 2
     9    3   12 1
    10    4   11 1
    11    5   10 1
    12   10   11 1
    13   11   15 1
    14   13   14 1
    15   14   15 1
    16    4   16 1
    17    5   17 1
    18    5   18 1
    19   11   19 1
    20   13   20 1
    21   13   21 1
    22   14   22 1
    23   14   23 1
    24   15   24 1
    25   15   25 1
@<TRIPOS>PROPERTY_DATA
  Total_Score	| 10.3830
  Crash		| -1.2257
  Polar		| 7.3863
  FragIndex	| 1
  FragRMSD	| 0.722

