@<TRIPOS>MOLECULE
BindingDB_50280242
 24 24 0 0 0
SMALL
NO_CHARGES


@<TRIPOS>ATOM
1    P        54.1115    8.0187   27.5352  P     
2    C        55.4109    9.8029   28.9362  C     
3    C        56.2109   11.9998   27.9995  C     
4    C        55.2374   11.0759   28.2243  C     
5    C        56.7198    9.8133   29.7812  C     
6    C        55.9246   13.1813   27.3253  C     
7    O        55.4248    8.7272   27.9900  O     
8    C        57.9114   10.3848   28.9594  C     
9    C        57.5783   11.8321   28.5069  C     
10   O        54.4779    6.5512   27.1897  O     
11   O        53.0273    7.9640   28.6398  O     
12   O        53.5864    8.5828   26.3095  O     
13   O        54.8064   13.3216   26.5682  O     
14   O        56.7374   14.2626   27.3680  O     
15   O        57.0439    8.5030   30.2538  O     
16   O        59.1273   10.3591   29.7136  O     
17   H        54.5709    9.7092   29.6313  H     
18   H        54.3271   11.2497   27.8446  H     
19   H        56.5733   10.4462   30.6727  H     
20   H        58.0609    9.7530   28.0870  H     
21   H        58.3187   12.1007   27.7426  H     
22   H        57.7184   12.5092   29.3528  H     
23   H        57.5690    8.6530   31.0758  H     
24   H        58.8949   10.5415   30.6536  H     
@<TRIPOS>BOND
     1    1    7 1
     2    1   10 1
     3    1   11 1
     4    1   12 2
     5    2    4 1
     6    2    5 1
     7    2    7 1
     8    3    4 2
     9    3    6 1
    10    3    9 1
    11    5    8 1
    12    5   15 1
    13    6   13 1
    14    6   14 2
    15    8    9 1
    16    8   16 1
    17    2   17 1
    18    4   18 1
    19    5   19 1
    20    8   20 1
    21    9   21 1
    22    9   22 1
    23   15   23 1
    24   16   24 1
@<TRIPOS>PROPERTY_DATA
  Total_Score	| 11.8661
  Crash		| -1.0734
  Polar		| 11.3292
  FragIndex	| 1
  FragRMSD	| 0.953

