@<TRIPOS>MOLECULE
BindingDB_50281343
 29 29 0 0 0
SMALL
NO_CHARGES


@<TRIPOS>ATOM
1    C        55.4548    9.8567   29.0075  C     
2    C        56.2938   11.9979   28.0453  C     
3    P        54.1050    8.1103   27.6138  P     
4    C        55.2969   11.1180   28.2938  C     
5    C        56.7593    9.8123   29.8596  C     
6    O        55.4553    8.7689   28.0471  O     
7    C        56.0166   13.1952   27.3835  C     
8    C        57.9798   10.3286   29.0493  C     
9    C        57.6609   11.7649   28.5388  C     
10   C        60.6978    9.4537   31.3980  C     
11   O        54.3673    6.7050   27.4400  O     
12   O        59.1831   10.4144   29.8492  O     
13   O        54.8741   13.3750   26.6808  O     
14   O        61.0970    8.4391   32.1959  O     
15   O        52.9852    8.2224   28.6715  O     
16   O        53.5991    8.6122   26.2478  O     
17   C        59.8702    9.1967   30.2088  C     
18   O        56.9623    8.4886   30.3377  O     
19   O        56.9247   14.1985   27.3134  O     
20   O        61.3694   10.6187   31.5138  O     
21   H        54.6322    9.7650   29.7273  H     
22   H        54.3764   11.3126   27.9628  H     
23   H        56.6250   10.4556   30.7363  H     
24   H        58.1373    9.6805   28.1786  H     
25   H        58.3795   11.9912   27.7439  H     
26   H        57.8375   12.4746   29.3535  H     
27   H        60.5218    8.9060   29.3860  H     
28   H        59.1867    8.3739   30.4155  H     
29   H        57.3889    8.5971   31.2100  H     
@<TRIPOS>BOND
     1    1    4 1
     2    1    5 1
     3    1    6 1
     4    2    4 2
     5    2    7 1
     6    2    9 1
     7    3    6 1
     8    3   11 2
     9    3   15 1
    10    3   16 1
    11    5    8 1
    12    5   18 1
    13    7   13 2
    14    7   19 1
    15    8    9 1
    16    8   12 1
    17   10   14 2
    18   10   17 1
    19   10   20 1
    20   12   17 1
    21    1   21 1
    22    4   22 1
    23    5   23 1
    24    8   24 1
    25    9   25 1
    26    9   26 1
    27   17   27 1
    28   17   28 1
    29   18   29 1
@<TRIPOS>PROPERTY_DATA
  Total_Score	| 16.9281
  Crash		| -1.6688
  Polar		| 15.9361
  FragIndex	| 1
  FragRMSD	| 0.152

