@<TRIPOS>MOLECULE
BindingDB_50281987
 26 26 0 0 0
SMALL
NO_CHARGES


@<TRIPOS>ATOM
1    C        53.8440    8.4895   28.0176  C     
2    C        56.4446   11.9759   27.9767  C     
3    C        54.3442    7.7691   26.8305  C     
4    C        52.7709    7.6581   28.5908  C     
5    C        56.0683   13.1576   27.3545  C     
6    C        55.5401   10.9877   28.1655  C     
7    O        54.8394    8.7946   29.0326  O     
8    C        55.9315    9.7000   28.7382  C     
9    O        55.3656    6.8756   26.9239  O     
10   O        51.5207    7.7016   28.0682  O     
11   O        56.8881   14.2317   27.2752  O     
12   O        53.8010    8.0079   25.6167  O     
13   O        52.9504    7.0007   29.7512  O     
14   O        54.9361   13.2482   26.6256  O     
15   C        57.8274   11.7524   28.4342  C     
16   C        57.8802   11.0383   29.8201  C     
17   C        56.7694    9.9559   30.0265  C     
18   H        53.3757    9.4166   27.6852  H     
19   H        54.5772   11.1471   27.9574  H     
20   H        56.5861    9.2010   28.0231  H     
21   H        58.3224   11.1094   27.6960  H     
22   H        58.4058   12.6785   28.4937  H     
23   H        58.8740   10.5852   29.9383  H     
24   H        57.7841   11.8028   30.5995  H     
25   H        56.0985   10.2874   30.8259  H     
26   H        57.2311    9.0178   30.3497  H     
@<TRIPOS>BOND
     1    1    3 1
     2    1    4 1
     3    1    7 1
     4    2    5 1
     5    2    6 2
     6    2   15 1
     7    3    9 2
     8    3   12 1
     9    4   10 2
    10    4   13 1
    11    5   11 2
    12    5   14 1
    13    6    8 1
    14    7    8 1
    15    8   17 1
    16   15   16 1
    17   16   17 1
    18    1   18 1
    19    6   19 1
    20    8   20 1
    21   15   21 1
    22   15   22 1
    23   16   23 1
    24   16   24 1
    25   17   25 1
    26   17   26 1
@<TRIPOS>PROPERTY_DATA
  Total_Score	| 11.2838
  Crash		| -2.1906
  Polar		| 10.2344
  FragIndex	| 1
  FragRMSD	| 1.160

