@<TRIPOS>MOLECULE
BindingDB_50281993
 29 29 0 0 0
SMALL
NO_CHARGES


@<TRIPOS>ATOM
1    C        55.4254    9.8356   28.9784  C     
2    P        54.0527    8.0748   27.6062  P     
3    C        56.2918   11.9580   27.9969  C     
4    C        55.2855   11.0854   28.2372  C     
5    C        56.7277    9.7901   29.8254  C     
6    C        56.0203   13.1676   27.3626  C     
7    O        55.4021    8.7341   28.0384  O     
8    C        57.9551   10.2522   28.9904  C     
9    C        57.6637   11.6919   28.4569  C     
10   C        60.6444    9.4080   31.4029  C     
11   O        53.5507    8.5605   26.2367  O     
12   O        54.3295    6.6704   27.4335  O     
13   O        59.1911   10.3319   29.7553  O     
14   O        56.9072   14.1908   27.3612  O     
15   O        54.8725   13.3736   26.6754  O     
16   O        61.0689    8.3998   32.2017  O     
17   O        61.2967   10.5935   31.5133  O     
18   O        52.9140    8.1521   28.6493  O     
19   C        59.8414    9.1101   30.1986  C     
20   O        56.8835    8.4730   30.3337  O     
21   H        54.5987    9.7782   29.6967  H     
22   H        54.3718   11.2847   27.8975  H     
23   H        56.6170   10.4646   30.6836  H     
24   H        58.0906    9.5813   28.1305  H     
25   H        58.3628   11.8779   27.6323  H     
26   H        57.8909   12.4115   29.2516  H     
27   H        60.5190    8.7414   29.4169  H     
28   H        59.1340    8.3143   30.4371  H     
29   H        57.3435    8.5935   31.1987  H     
@<TRIPOS>BOND
     1    1    4 1
     2    1    5 1
     3    1    7 1
     4    2    7 1
     5    2   11 1
     6    2   12 2
     7    2   18 1
     8    3    4 2
     9    3    6 1
    10    3    9 1
    11    5    8 1
    12    5   20 1
    13    6   14 1
    14    6   15 2
    15    8    9 1
    16    8   13 1
    17   10   16 1
    18   10   17 2
    19   10   19 1
    20   13   19 1
    21    1   21 1
    22    4   22 1
    23    5   23 1
    24    8   24 1
    25    9   25 1
    26    9   26 1
    27   19   27 1
    28   19   28 1
    29   20   29 1
@<TRIPOS>PROPERTY_DATA
  Total_Score	| 16.9874
  Crash		| -1.5566
  Polar		| 15.8276
  FragIndex	| 1
  FragRMSD	| 0.194

