@<TRIPOS>MOLECULE
BindingDB_50283578
 29 29 0 0 0
SMALL
NO_CHARGES


@<TRIPOS>ATOM
1    C        55.7271    9.8169   29.0032  C     
2    P        53.3883    8.6436   28.8364  P     
3    C        56.4273   11.9904   28.1043  C     
4    C        55.5770   10.9405   28.0808  C     
5    C        57.2169    9.3574   29.0840  C     
6    C        56.1670   13.1243   27.3291  C     
7    O        54.9427    8.6484   28.6501  O     
8    C        58.2844   10.4968   28.9309  C     
9    C        57.6083   11.9034   28.9783  C     
10   C        60.8513    9.4887   31.3983  C     
11   O        52.9575    7.3671   29.5805  O     
12   O        52.8408    9.8075   29.4880  O     
13   O        59.3338   10.4985   29.9193  O     
14   O        56.9358   14.2323   27.4112  O     
15   O        55.0802   13.2221   26.5251  O     
16   O        61.1776    8.4714   32.2257  O     
17   O        61.4772   10.6728   31.5893  O     
18   O        52.7791    8.5327   27.4300  O     
19   C        60.0603    9.2749   30.1784  C     
20   O        57.3621    8.6190   30.3048  O     
21   H        55.4387   10.1795   29.9995  H     
22   H        54.8026   10.9341   27.4532  H     
23   H        57.3961    8.6465   28.2737  H     
24   H        58.7586   10.4154   27.9509  H     
25   H        58.3579   12.6595   28.7325  H     
26   H        57.2739   12.1050   29.9991  H     
27   H        60.7388    9.0733   29.3450  H     
28   H        59.3830    8.4094   30.2839  H     
29   H        57.6767    9.2823   30.9695  H     
@<TRIPOS>BOND
     1    1    4 1
     2    1    5 1
     3    1    7 1
     4    2    7 1
     5    2   11 1
     6    2   12 2
     7    2   18 1
     8    3    4 2
     9    3    6 1
    10    3    9 1
    11    5    8 1
    12    5   20 1
    13    6   14 1
    14    6   15 2
    15    8    9 1
    16    8   13 1
    17   10   16 1
    18   10   17 2
    19   10   19 1
    20   13   19 1
    21    1   21 1
    22    4   22 1
    23    5   23 1
    24    8   24 1
    25    9   25 1
    26    9   26 1
    27   19   27 1
    28   19   28 1
    29   20   29 1
@<TRIPOS>PROPERTY_DATA
  Total_Score	| 16.1629
  Crash		| -1.8079
  Polar		| 15.6541
  FragIndex	| 1
  FragRMSD	| 0.429

