@<TRIPOS>MOLECULE
BindingDB_50281988
 24 24 0 0 0
SMALL
NO_CHARGES


@<TRIPOS>ATOM
1    C        55.3972    9.8394   28.9266  C     
2    P        54.0931    8.0205   27.5830  P     
3    C        56.2368   11.9878   27.9534  C     
4    C        55.2554   11.0774   28.1585  C     
5    C        56.6904    9.8247   29.7997  C     
6    O        55.4255    8.7193   28.0083  O     
7    C        55.9673   13.1647   27.2565  C     
8    C        57.8950   10.3504   28.9819  C     
9    C        57.5872   11.7947   28.5007  C     
10   O        54.4508    6.5618   27.2340  O     
11   O        53.1204    7.9628   28.6452  O     
12   O        54.8641   13.3126   26.4891  O     
13   O        53.4820    8.6167   26.3020  O     
14   O        56.9593    8.5200   30.3042  O     
15   O        56.7894   14.2347   27.3312  O     
16   O        59.1061   10.3058   29.7366  O     
17   H        54.5577    9.7657   29.6295  H     
18   H        54.3548   11.2365   27.7677  H     
19   H        56.5386   10.4810   30.6662  H     
20   H        58.0417    9.7097   28.1059  H     
21   H        58.3328   12.0472   27.7390  H     
22   H        57.7180   12.4861   29.3373  H     
23   H        57.5080    8.6591   31.1056  H     
24   H        58.8670   10.5790   30.6439  H     
@<TRIPOS>BOND
     1    1    4 1
     2    1    5 1
     3    1    6 1
     4    2    6 1
     5    2   10 1
     6    2   11 2
     7    2   13 1
     8    3    4 2
     9    3    7 1
    10    3    9 1
    11    5    8 1
    12    5   14 1
    13    7   12 2
    14    7   15 1
    15    8    9 1
    16    8   16 1
    17    1   17 1
    18    4   18 1
    19    5   19 1
    20    8   20 1
    21    9   21 1
    22    9   22 1
    23   14   23 1
    24   16   24 1
@<TRIPOS>PROPERTY_DATA
  Total_Score	| 11.8077
  Crash		| -1.0556
  Polar		| 11.2017
  FragIndex	| 1
  FragRMSD	| 0.204

