@<TRIPOS>MOLECULE
BindingDB_50281346
 26 26 0 0 0
SMALL
NO_CHARGES


@<TRIPOS>ATOM
1    C        56.2472   12.0097   28.0537  C     
2    C        57.9237   10.4044   29.1146  C     
3    C        59.7926    9.3453   30.3573  C     
4    C        55.2781   11.0854   28.2610  C     
5    N        59.0709   10.4028   29.9761  N     
6    C        56.7104    9.8347   29.8977  C     
7    C        55.9672   13.1662   27.3321  C     
8    C        55.4518    9.8483   28.9962  C     
9    C        60.6971    9.4716   31.3789  C     
10   C        57.5977   11.8461   28.6238  C     
11   O        59.6373    8.2369   29.8376  O     
12   O        56.7637   14.2512   27.3926  O     
13   O        60.6743    8.5923   32.4067  O     
14   O        56.9855    8.5165   30.3603  O     
15   O        54.8621   13.2910   26.5580  O     
16   O        61.3048   10.6595   31.6042  O     
17   O        55.5146    8.7966   28.0444  O     
18   H        58.0925    9.7735   28.2256  H     
19   H        54.3830   11.2077   27.8418  H     
20   H        59.2477   11.2250   30.4514  H     
21   H        56.5353   10.4662   30.7780  H     
22   H        54.5923    9.6820   29.6463  H     
23   H        58.3479   12.1106   27.8681  H     
24   H        57.7097   12.5514   29.4563  H     
25   H        57.5247    8.6380   31.1713  H     
26   H        54.6607    8.3128   28.1283  H     
@<TRIPOS>BOND
     1    1    4 2
     2    1    7 1
     3    1   10 1
     4    2    5 1
     5    2    6 1
     6    2   10 1
     7    3    5 am
     8    3    9 1
     9    3   11 2
    10    4    8 1
    11    6    8 1
    12    6   14 1
    13    7   12 2
    14    7   15 1
    15    8   17 1
    16    9   13 2
    17    9   16 1
    18    2   18 1
    19    4   19 1
    20    5   20 1
    21    6   21 1
    22    8   22 1
    23   10   23 1
    24   10   24 1
    25   14   25 1
    26   17   26 1
@<TRIPOS>PROPERTY_DATA
  Total_Score	| 15.0746
  Crash		| -0.9855
  Polar		| 14.3199
  FragIndex	| 1
  FragRMSD	| 0.987

