@<TRIPOS>MOLECULE
BindingDB_50281345
 26 26 0 0 0
SMALL
NO_CHARGES


@<TRIPOS>ATOM
1    C        56.3547   11.9467   28.1361  C     
2    C        55.3757   11.0593   28.4224  C     
3    C        56.8816    9.7748   29.9701  C     
4    C        56.0469   13.1085   27.4290  C     
5    C        55.5829    9.8083   29.1277  C     
6    C        58.0775   10.3185   29.1488  C     
7    C        57.7269   11.7450   28.6235  C     
8    C        60.8289    9.4782   31.4425  C     
9    O        59.2786   10.4425   29.9412  O     
10   O        56.9128   14.1363   27.3232  O     
11   O        61.4647   10.6601   31.6125  O     
12   C        60.0412    9.2415   30.2261  C     
13   O        57.0751    8.4428   30.4250  O     
14   O        54.8968   13.2415   26.7263  O     
15   O        55.6050    8.7863   28.1319  O     
16   O        61.1876    8.4478   32.2356  O     
17   H        54.4423   11.2243   28.1039  H     
18   H        56.7403   10.4108   30.8474  H     
19   H        54.7381    9.6248   29.8017  H     
20   H        58.2468    9.6751   28.2815  H     
21   H        58.4376   11.9826   27.8189  H     
22   H        57.8942   12.4738   29.4267  H     
23   H        60.7203    9.0422   29.3889  H     
24   H        59.4030    8.3612   30.3826  H     
25   H        57.5660    8.5325   31.2646  H     
26   H        54.6999    8.3906   28.1352  H     
@<TRIPOS>BOND
     1    1    2 2
     2    1    4 1
     3    1    7 1
     4    2    5 1
     5    3    5 1
     6    3    6 1
     7    3   13 1
     8    4   10 2
     9    4   14 1
    10    5   15 1
    11    6    7 1
    12    6    9 1
    13    8   11 2
    14    8   12 1
    15    8   16 1
    16    9   12 1
    17    2   17 1
    18    3   18 1
    19    5   19 1
    20    6   20 1
    21    7   21 1
    22    7   22 1
    23   12   23 1
    24   12   24 1
    25   13   25 1
    26   15   26 1
@<TRIPOS>PROPERTY_DATA
  Total_Score	| 16.1827
  Crash		| -0.9026
  Polar		| 14.5340
  FragIndex	| 1
  FragRMSD	| 0.940

