@<TRIPOS>MOLECULE
BindingDB_50385918
 68 71 0 0 0
SMALL
NO_CHARGES


@<TRIPOS>ATOM
1    C        24.5685   -6.1173   18.3752  C     
2    C        24.8113   -7.4500   17.9550  C     
3    N        25.4210   -8.2368   18.8817  N     
4    C        25.8007   -7.8855   20.1376  C     
5    C        25.5315   -6.5524   20.5185  C     
6    N        24.9227   -5.7282   19.6261  N     
7    C        24.4725   -8.0237   16.6796  C     
8    C        24.8100   -9.3760   16.3936  C     
9    C        24.4378   -9.9951   15.1901  C     
10   C        23.7125   -9.2802   14.2287  C     
11   C        23.3814   -7.9231   14.4426  C     
12   C        23.7829   -7.3131   15.6604  C     
13   N        25.8167   -6.0561   21.7385  N     
14   C        26.4669   -8.8780   20.9070  C     
15   C        26.0351  -10.2323   20.8321  C     
16   C        26.7760  -11.2796   21.4179  C     
17   C        27.9173  -10.9939   22.2089  C     
18   C        28.3390   -9.6431   22.3082  C     
19   C        27.6367   -8.6105   21.6612  C     
20   C        28.6422  -11.9968   22.8586  C     
21   O        29.8492  -12.1128   22.7029  O     
22   N        28.1061  -12.8328   23.7354  N     
23   O        26.3638  -12.5579   21.1076  O     
24   C        26.9759  -13.2812   20.0060  C     
25   C        25.9234  -13.6120   18.9855  C     
26   C        28.1939  -12.6372   19.2851  C     
27   C        25.2452  -12.5024   18.3891  C     
28   C        24.3055  -12.6858   17.3592  C     
29   C        24.0271  -13.9781   16.8927  C     
30   C        24.6575  -15.0849   17.4747  C     
31   C        25.6180  -14.9389   18.5166  C     
32   C        26.2846  -16.1755   19.0450  C     
33   F        25.9054  -17.3550   18.4443  F     
34   F        27.6455  -16.0943   18.8735  F     
35   F        25.9909  -16.3356   20.3756  F     
36   C        22.6796   -7.1629   13.3682  C     
37   N        21.5775   -6.2469   13.8031  N     
38   C        20.8674   -5.6242   12.6413  C     
39   C        20.5977   -6.8618   14.7371  C     
40   H        24.1152   -5.4295   17.7795  H     
41   H        25.3096   -9.9510   17.0726  H     
42   H        24.6800  -10.9765   15.0229  H     
43   H        23.4578   -9.7507   13.3598  H     
44   H        23.5524   -6.3333   15.7926  H     
45   H        25.6205   -5.1334   21.9441  H     
46   H        26.1945   -6.6228   22.4313  H     
47   H        25.1617  -10.4737   20.3639  H     
48   H        29.1638   -9.3982   22.8573  H     
49   H        28.0317   -7.6692   21.6965  H     
50   H        28.6591  -13.5071   24.1557  H     
51   H        27.1652  -12.7677   23.9694  H     
52   H        27.3579  -14.1850   20.4695  H     
53   H        27.9355  -11.6511   18.8870  H     
54   H        28.5307  -13.2633   18.4542  H     
55   H        29.0300  -12.5279   19.9786  H     
56   H        25.4898  -11.5483   18.6361  H     
57   H        23.8532  -11.8774   16.9302  H     
58   H        23.3775  -14.1055   16.1254  H     
59   H        24.4034  -16.0054   17.1160  H     
60   H        23.4509   -6.5670   12.8805  H     
61   H        22.2810   -7.8459   12.6052  H     
62   H        22.0131   -5.4797   14.3131  H     
63   H        21.5820   -5.1528   11.9563  H     
64   H        20.1819   -4.8456   12.9911  H     
65   H        20.2951   -6.3776   12.0819  H     
66   H        20.1447   -7.7524   14.2924  H     
67   H        19.8177   -6.1423   15.0016  H     
68   H        21.0811   -7.1496   15.6685  H     
@<TRIPOS>BOND
     1    1    2 2
     2    1    6 1
     3    2    3 1
     4    2    7 1
     5    3    4 2
     6    4    5 1
     7    4   14 1
     8    5    6 2
     9    5   13 1
    10    7    8 2
    11    7   12 1
    12    8    9 1
    13    9   10 2
    14   10   11 1
    15   11   12 2
    16   11   36 1
    17   14   15 2
    18   14   19 1
    19   15   16 1
    20   16   17 2
    21   16   23 1
    22   17   18 1
    23   17   20 1
    24   18   19 2
    25   20   21 2
    26   20   22 am
    27   23   24 1
    28   24   25 1
    29   24   26 1
    30   25   27 2
    31   25   31 1
    32   27   28 1
    33   28   29 2
    34   29   30 1
    35   30   31 2
    36   31   32 1
    37   32   33 1
    38   32   34 1
    39   32   35 1
    40   36   37 1
    41   37   38 1
    42   37   39 1
    43    1   40 1
    44    8   41 1
    45    9   42 1
    46   10   43 1
    47   12   44 1
    48   13   45 1
    49   13   46 1
    50   15   47 1
    51   18   48 1
    52   19   49 1
    53   22   50 1
    54   22   51 1
    55   24   52 1
    56   26   53 1
    57   26   54 1
    58   26   55 1
    59   27   56 1
    60   28   57 1
    61   29   58 1
    62   30   59 1
    63   36   60 1
    64   36   61 1
    65   37   62 1
    66   38   63 1
    67   38   64 1
    68   38   65 1
    69   39   66 1
    70   39   67 1
    71   39   68 1
@<TRIPOS>PROPERTY_DATA
  Total_Score	| 4.9497
  Crash		| -2.9346
  Polar		| 1.3185
  FragIndex	| 1
  FragRMSD	| 0.848

