@<TRIPOS>MOLECULE
BindingDB_50330593
 53 55 0 0 0
SMALL
NO_CHARGES


@<TRIPOS>ATOM
1    C        26.1567   -7.0446   13.4049  C     
2    C        26.0999   -8.5883   13.3378  C     
3    O        24.8427   -9.2018   13.6941  O     
4    C        24.0358   -8.5167   14.5737  C     
5    C        24.4808   -8.2684   15.8834  C     
6    C        23.7057   -7.4935   16.7811  C     
7    C        24.2558   -7.0637   18.0108  C     
8    N        24.9940   -7.9347   18.7494  N     
9    C        25.5972   -7.6631   19.9450  C     
10   C        26.3506   -8.6920   20.6201  C     
11   C        26.4753   -9.9827   20.0466  C     
12   C        27.1667  -11.0257   20.6965  C     
13   O        27.2783  -12.2368   20.0803  O     
14   C        26.1913  -13.1312   20.3689  C     
15   C        27.7721  -10.7960   21.9438  C     
16   O        28.3828  -11.8109   22.6133  O     
17   C        29.7969  -11.9019   22.3683  C     
18   C        27.6708   -9.5294   22.5453  C     
19   O        28.2774   -9.2875   23.7521  O     
20   C        27.3532   -8.9716   24.8056  C     
21   C        26.9883   -8.4911   21.8813  C     
22   C        25.4068   -6.3471   20.4362  C     
23   N        24.6906   -5.4529   19.7149  N     
24   C        24.1238   -5.7450   18.5154  C     
25   N        23.5168   -4.7343   17.8698  N     
26   C        22.4355   -7.0586   16.3676  C     
27   C        21.9687   -7.3287   15.0699  C     
28   C        22.7850   -8.0018   14.1346  C     
29   C        22.3591   -8.0828   12.7686  C     
30   O        23.1935   -8.4555   11.7606  O     
31   O        21.1371   -7.6610   12.3756  O     
32   H        25.3442   -6.6118   12.8093  H     
33   H        27.1168   -6.6949   13.0079  H     
34   H        26.0521   -6.7122   14.4449  H     
35   H        26.3152   -8.8959   12.3099  H     
36   H        26.8888   -9.0019   13.9682  H     
37   H        25.3860   -8.6240   16.1822  H     
38   H        26.0630  -10.1837   19.1279  H     
39   H        26.1548  -13.3744   21.4368  H     
40   H        26.3512  -14.0583   19.8128  H     
41   H        25.2263  -12.7101   20.0584  H     
42   H        30.0038  -12.1123   21.3131  H     
43   H        30.1876  -12.7284   22.9658  H     
44   H        30.3208  -10.9868   22.6694  H     
45   H        26.7704   -8.0803   24.5638  H     
46   H        27.9223   -8.7677   25.7175  H     
47   H        26.6745   -9.8071   25.0084  H     
48   H        26.9652   -7.5731   22.3416  H     
49   H        25.7992   -6.0304   21.3234  H     
50   H        23.4973   -3.8461   18.2717  H     
51   H        23.1534   -4.8615   16.9777  H     
52   H        21.8262   -6.5434   17.0094  H     
53   H        21.0442   -6.9720   14.8072  H     
@<TRIPOS>BOND
     1    1    2 1
     2    2    3 1
     3    3    4 1
     4    4    5 1
     5    4   28 2
     6    5    6 2
     7    6    7 1
     8    6   26 1
     9    7    8 2
    10    7   24 1
    11    8    9 1
    12    9   10 1
    13    9   22 2
    14   10   11 1
    15   10   21 2
    16   11   12 2
    17   12   13 1
    18   12   15 1
    19   13   14 1
    20   15   16 1
    21   15   18 2
    22   16   17 1
    23   18   19 1
    24   18   21 1
    25   19   20 1
    26   22   23 1
    27   23   24 2
    28   24   25 1
    29   26   27 2
    30   27   28 1
    31   28   29 1
    32   29   30 2
    33   29   31 1
    34    1   32 1
    35    1   33 1
    36    1   34 1
    37    2   35 1
    38    2   36 1
    39    5   37 1
    40   11   38 1
    41   14   39 1
    42   14   40 1
    43   14   41 1
    44   17   42 1
    45   17   43 1
    46   17   44 1
    47   20   45 1
    48   20   46 1
    49   20   47 1
    50   21   48 1
    51   22   49 1
    52   25   50 1
    53   25   51 1
    54   26   52 1
    55   27   53 1
@<TRIPOS>PROPERTY_DATA
  Total_Score	| 8.5636
  Crash		| -1.1433
  Polar		| 3.2688
  FragIndex	| 1
  FragRMSD	| 0.751

