@<TRIPOS>MOLECULE
BindingDB_50330596
 52 54 0 0 0
SMALL
NO_CHARGES


@<TRIPOS>ATOM
1    C        25.3307   -6.2502   20.3662  C     
2    C        25.6126   -7.5491   19.8768  C     
3    N        25.1174   -7.8241   18.6376  N     
4    C        24.4155   -6.9813   17.8287  C     
5    C        24.1790   -5.6810   18.3463  C     
6    N        24.6414   -5.3893   19.5876  N     
7    N        23.5869   -4.6771   17.6692  N     
8    C        24.0521   -7.4527   16.5371  C     
9    C        22.7766   -7.2005   15.9799  C     
10   C        22.3785   -7.7431   14.7286  C     
11   C        23.3217   -8.5338   13.9858  C     
12   C        24.5904   -8.7956   14.5546  C     
13   C        24.9522   -8.2567   15.8008  C     
14   C        23.0606   -9.0355   12.6930  C     
15   O        22.7075   -8.2142   11.6899  O     
16   O        23.3368  -10.3269   12.3649  O     
17   C        26.3632   -8.5690   20.5523  C     
18   C        27.0714   -8.3062   21.7503  C     
19   C        27.7949   -9.3208   22.4132  C     
20   C        27.8877  -10.6125   21.8548  C     
21   C        27.1780  -10.8958   20.6783  C     
22   C        26.4193   -9.8974   20.0371  C     
23   O        27.1736  -12.1707   20.1891  O     
24   C        26.0759  -12.9570   20.7060  C     
25   O        28.5359  -11.6233   22.5231  O     
26   C        29.9297  -11.7799   22.1756  C     
27   O        28.4263   -9.0627   23.5998  O     
28   C        27.5983   -9.4204   24.7312  C     
29   C        20.9628   -7.5501   14.2976  C     
30   C        20.6712   -6.1185   13.7993  C     
31   H        25.6430   -5.9258   21.2859  H     
32   H        23.4970   -3.8049   18.0894  H     
33   H        23.2707   -4.7903   16.7599  H     
34   H        22.0953   -6.6624   16.5083  H     
35   H        25.2746   -9.3649   14.0563  H     
36   H        25.8890   -8.4630   16.1572  H     
37   H        27.0587   -7.3767   22.1827  H     
38   H        25.9438  -10.1721   19.1711  H     
39   H        26.0920  -13.0468   21.7929  H     
40   H        26.1612  -13.9467   20.2787  H     
41   H        25.1208  -12.5105   20.3805  H     
42   H        30.0501  -11.9992   21.1129  H     
43   H        30.3285  -12.6138   22.7444  H     
44   H        30.5049  -10.8805   22.4318  H     
45   H        26.6849   -8.8041   24.7516  H     
46   H        28.1441   -9.2289   25.6515  H     
47   H        27.3119  -10.4744   24.7136  H     
48   H        20.6770   -8.2501   13.5072  H     
49   H        20.3103   -7.7778   15.1385  H     
50   H        20.7869   -5.3963   14.6114  H     
51   H        19.6354   -6.0638   13.4425  H     
52   H        21.3396   -5.8477   12.9841  H     
@<TRIPOS>BOND
     1    1    2 2
     2    1    6 1
     3    2    3 1
     4    2   17 1
     5    3    4 2
     6    4    5 1
     7    4    8 1
     8    5    6 2
     9    5    7 1
    10    8    9 1
    11    8   13 2
    12    9   10 2
    13   10   11 1
    14   10   29 1
    15   11   12 2
    16   11   14 1
    17   12   13 1
    18   14   15 1
    19   14   16 2
    20   17   18 2
    21   17   22 1
    22   18   19 1
    23   19   20 2
    24   19   27 1
    25   20   21 1
    26   20   25 1
    27   21   22 2
    28   21   23 1
    29   23   24 1
    30   25   26 1
    31   27   28 1
    32   29   30 1
    33    1   31 1
    34    7   32 1
    35    7   33 1
    36    9   34 1
    37   12   35 1
    38   13   36 1
    39   18   37 1
    40   22   38 1
    41   24   39 1
    42   24   40 1
    43   24   41 1
    44   26   42 1
    45   26   43 1
    46   26   44 1
    47   28   45 1
    48   28   46 1
    49   28   47 1
    50   29   48 1
    51   29   49 1
    52   30   50 1
    53   30   51 1
    54   30   52 1
@<TRIPOS>PROPERTY_DATA
  Total_Score	| 8.7532
  Crash		| -1.0303
  Polar		| 4.0938
  FragIndex	| 1
  FragRMSD	| 0.508

