@<TRIPOS>MOLECULE
BindingDB_50330576
 50 52 0 0 0
SMALL
NO_CHARGES


@<TRIPOS>ATOM
1    C        26.3391   -8.5080   13.3203  C     
2    O        24.9572   -8.8861   13.4841  O     
3    C        24.1845   -8.2723   14.4579  C     
4    C        24.6990   -7.9592   15.7384  C     
5    C        23.8821   -7.3629   16.7316  C     
6    C        24.4195   -6.9548   17.9744  C     
7    N        25.1283   -7.8416   18.7181  N     
8    C        25.6810   -7.6097   19.9438  C     
9    C        26.3914   -8.6652   20.6174  C     
10   C        26.4876   -9.9563   20.0343  C     
11   C        27.1749  -11.0090   20.6687  C     
12   O        27.2786  -12.2267   20.0513  O     
13   C        26.1909  -13.1203   20.3502  C     
14   C        27.7926  -10.7979   21.9159  C     
15   O        28.4046  -11.8632   22.5305  O     
16   C        29.8119  -11.9946   22.2314  C     
17   C        27.6881   -9.5402   22.5401  C     
18   O        28.2855   -9.3224   23.7527  O     
19   C        27.3719   -8.9444   24.7910  C     
20   C        27.0222   -8.4849   21.8746  C     
21   C        25.4413   -6.3146   20.4687  C     
22   N        24.7367   -5.4125   19.7526  N     
23   C        24.2256   -5.6684   18.5248  C     
24   N        23.5853   -4.6680   17.8989  N     
25   C        22.5081   -7.1711   16.4553  C     
26   C        21.9846   -7.4994   15.1980  C     
27   C        22.8110   -8.0277   14.1769  C     
28   C        22.2443   -8.2651   12.8951  C     
29   O        22.9931   -8.2315   11.7696  O     
30   O        20.9107   -8.2180   12.6852  O     
31   H        26.4802   -7.4182   13.3575  H     
32   H        26.6819   -8.8799   12.3530  H     
33   H        26.9443   -8.9828   14.1047  H     
34   H        25.6905   -8.1319   15.9382  H     
35   H        26.0686  -10.1567   19.1190  H     
36   H        26.1875  -13.3913   21.4101  H     
37   H        26.3271  -14.0325   19.7707  H     
38   H        25.2267  -12.6871   20.0796  H     
39   H        30.0216  -12.0040   21.1495  H     
40   H        30.1490  -12.9415   22.6559  H     
41   H        30.3870  -11.1882   22.7008  H     
42   H        26.8867   -7.9875   24.5658  H     
43   H        27.9410   -8.8312   25.7143  H     
44   H        26.6057   -9.7083   24.9548  H     
45   H        26.9976   -7.5870   22.3463  H     
46   H        25.7849   -6.0213   21.3787  H     
47   H        23.4846   -3.8075   18.3323  H     
48   H        23.2386   -4.7965   17.0032  H     
49   H        21.8798   -6.7862   17.1666  H     
50   H        20.9909   -7.3227   15.0259  H     
@<TRIPOS>BOND
     1    1    2 1
     2    2    3 1
     3    3    4 1
     4    3   27 2
     5    4    5 2
     6    5    6 1
     7    5   25 1
     8    6    7 2
     9    6   23 1
    10    7    8 1
    11    8    9 1
    12    8   21 2
    13    9   10 1
    14    9   20 2
    15   10   11 2
    16   11   12 1
    17   11   14 1
    18   12   13 1
    19   14   15 1
    20   14   17 2
    21   15   16 1
    22   17   18 1
    23   17   20 1
    24   18   19 1
    25   21   22 1
    26   22   23 2
    27   23   24 1
    28   25   26 2
    29   26   27 1
    30   27   28 1
    31   28   29 2
    32   28   30 1
    33    1   31 1
    34    1   32 1
    35    1   33 1
    36    4   34 1
    37   10   35 1
    38   13   36 1
    39   13   37 1
    40   13   38 1
    41   16   39 1
    42   16   40 1
    43   16   41 1
    44   19   42 1
    45   19   43 1
    46   19   44 1
    47   20   45 1
    48   21   46 1
    49   24   47 1
    50   24   48 1
    51   25   49 1
    52   26   50 1
@<TRIPOS>PROPERTY_DATA
  Total_Score	| 8.5023
  Crash		| -0.8647
  Polar		| 3.8357
  FragIndex	| 1
  FragRMSD	| 0.806

