@<TRIPOS>MOLECULE
BindingDB_50330578
 51 53 0 0 0
SMALL
NO_CHARGES


@<TRIPOS>ATOM
1    C        26.0939  -13.1299   20.4689  C     
2    O        27.1984  -12.2645   20.1576  O     
3    C        27.0878  -11.0243   20.7279  C     
4    C        26.3742  -10.0146   20.0533  C     
5    C        26.2601   -8.7025   20.5794  C     
6    C        25.5092   -7.7024   19.8797  C     
7    C        25.1003   -6.4666   20.4273  C     
8    N        24.4118   -5.5934   19.6581  N     
9    C        24.0606   -5.8361   18.3704  C     
10   N        23.4826   -4.7957   17.7452  N     
11   C        24.4084   -7.0848   17.7803  C     
12   N        24.1161   -7.5295   16.5069  N     
13   C        24.9979   -8.4989   15.8640  C     
14   C        24.9261   -8.4842   14.3152  C     
15   C        23.4721   -8.7204   13.8074  C     
16   C        23.3384   -8.2881   12.3952  C     
17   O        23.2360   -9.1917   11.3936  O     
18   O        23.2609   -6.9759   12.0811  O     
19   C        22.3955   -8.0573   14.7297  C     
20   C        22.9781   -7.0388   15.7496  C     
21   N        25.1257   -7.9167   18.5924  N     
22   C        26.9195   -8.4399   21.8072  C     
23   C        27.6070   -9.4482   22.5161  C     
24   O        28.2289   -9.1798   23.7103  O     
25   C        27.3555   -8.7141   24.7512  C     
26   C        27.7250  -10.7359   21.9535  C     
27   O        28.4038  -11.7203   22.6215  O     
28   C        29.8010  -11.7834   22.2895  C     
29   H        26.0409  -13.3339   21.5411  H     
30   H        26.2461  -14.0763   19.9495  H     
31   H        25.1470  -12.7052   20.1302  H     
32   H        25.9287  -10.2593   19.1651  H     
33   H        25.2967   -6.2029   21.3919  H     
34   H        23.2759   -4.8298   16.8019  H     
35   H        23.3376   -3.9657   18.2287  H     
36   H        26.0414   -8.2774   16.1170  H     
37   H        24.7680   -9.5034   16.2343  H     
38   H        25.2964   -7.5095   13.9751  H     
39   H        25.5927   -9.2523   13.9086  H     
40   H        23.3007   -9.8027   13.8326  H     
41   H        21.6151   -7.5586   14.1459  H     
42   H        21.8940   -8.8438   15.2960  H     
43   H        22.1547   -6.7648   16.4133  H     
44   H        23.2940   -6.1529   15.1999  H     
45   H        26.9188   -7.5014   22.2071  H     
46   H        26.8961   -7.7579   24.4938  H     
47   H        27.9510   -8.5694   25.6529  H     
48   H        26.5708   -9.4426   24.9692  H     
49   H        29.9502  -11.9928   21.2277  H     
50   H        30.2499  -12.5955   22.8619  H     
51   H        30.3156  -10.8566   22.5527  H     
@<TRIPOS>BOND
     1    1    2 1
     2    2    3 1
     3    3    4 1
     4    3   26 2
     5    4    5 2
     6    5    6 1
     7    5   22 1
     8    6    7 1
     9    6   21 2
    10    7    8 2
    11    8    9 1
    12    9   10 1
    13    9   11 2
    14   11   12 1
    15   11   21 1
    16   12   13 1
    17   12   20 1
    18   13   14 1
    19   14   15 1
    20   15   16 1
    21   15   19 1
    22   16   17 2
    23   16   18 1
    24   19   20 1
    25   22   23 2
    26   23   24 1
    27   23   26 1
    28   24   25 1
    29   26   27 1
    30   27   28 1
    31    1   29 1
    32    1   30 1
    33    1   31 1
    34    4   32 1
    35    7   33 1
    36   10   34 1
    37   10   35 1
    38   13   36 1
    39   13   37 1
    40   14   38 1
    41   14   39 1
    42   15   40 1
    43   19   41 1
    44   19   42 1
    45   20   43 1
    46   20   44 1
    47   22   45 1
    48   25   46 1
    49   25   47 1
    50   25   48 1
    51   28   49 1
    52   28   50 1
    53   28   51 1
@<TRIPOS>PROPERTY_DATA
  Total_Score	| 7.5181
  Crash		| -1.6739
  Polar		| 4.4829
  FragIndex	| 1
  FragRMSD	| 0.182

