@<TRIPOS>MOLECULE
BindingDB_50330594
 54 56 0 0 0
SMALL
NO_CHARGES


@<TRIPOS>ATOM
1    C        25.3930   -6.5291   20.5911  C     
2    C        25.8126   -7.7786   20.0897  C     
3    N        25.5280   -8.0033   18.7804  N     
4    C        24.9078   -7.1687   17.8929  C     
5    C        24.5029   -5.9182   18.4538  C     
6    N        24.7622   -5.6649   19.7613  N     
7    N        23.8638   -4.9120   17.8273  N     
8    N        24.7917   -7.6210   16.5873  N     
9    C        24.2167   -6.7665   15.5614  C     
10   C        24.2082   -7.2254   14.0717  C     
11   C        23.9383   -8.7565   13.9918  C     
12   C        25.0414   -9.4951   14.7959  C     
13   C        25.1656   -8.9878   16.2626  C     
14   C        23.8167   -9.2599   12.5956  C     
15   O        23.4507   -8.4239   11.5941  O     
16   O        23.6313  -10.5809   12.3640  O     
17   C        26.5114   -8.7752   20.8398  C     
18   C        27.1623   -8.4600   22.0609  C     
19   C        27.7948   -9.4531   22.8354  C     
20   C        27.8704  -10.7754   22.3503  C     
21   C        27.2616  -11.1056   21.1217  C     
22   C        26.5901  -10.1124   20.3828  C     
23   O        27.3730  -12.3757   20.6193  O     
24   C        26.2285  -13.2028   20.8799  C     
25   O        28.4842  -11.7495   23.0909  O     
26   C        29.8793  -11.9143   22.7900  C     
27   O        28.3729   -9.1339   24.0330  O     
28   C        27.4184   -8.7169   25.0235  C     
29   C        25.4825   -6.7442   13.3154  C     
30   H        25.5318   -6.2491   21.5637  H     
31   H        23.6732   -4.0868   18.3142  H     
32   H        23.6173   -4.9794   16.8888  H     
33   H        23.1743   -6.5978   15.8480  H     
34   H        24.7403   -5.7979   15.6089  H     
35   H        23.3677   -6.7201   13.5899  H     
36   H        22.9771   -8.9648   14.4766  H     
37   H        24.8308  -10.5684   14.8208  H     
38   H        26.0033   -9.3716   14.2940  H     
39   H        26.2074   -9.1492   16.5606  H     
40   H        24.5466   -9.6439   16.8810  H     
41   H        27.1893   -7.4972   22.4044  H     
42   H        26.1535  -10.3838   19.4988  H     
43   H        26.0672  -13.3404   21.9523  H     
44   H        26.4090  -14.1816   20.4347  H     
45   H        25.3314  -12.7774   20.4257  H     
46   H        30.0383  -12.1501   21.7356  H     
47   H        30.2592  -12.7442   23.3872  H     
48   H        30.4454  -11.0190   23.0531  H     
49   H        26.9707   -7.7591   24.7476  H     
50   H        27.9446   -8.5857   25.9703  H     
51   H        26.6291   -9.4613   25.1679  H     
52   H        25.5341   -5.6552   13.3011  H     
53   H        25.4684   -7.0807   12.2811  H     
54   H        26.3871   -7.1211   13.7886  H     
@<TRIPOS>BOND
     1    1    2 2
     2    1    6 1
     3    2    3 1
     4    2   17 1
     5    3    4 2
     6    4    5 1
     7    4    8 1
     8    5    6 2
     9    5    7 1
    10    8    9 1
    11    8   13 1
    12    9   10 1
    13   10   11 1
    14   10   29 1
    15   11   12 1
    16   11   14 1
    17   12   13 1
    18   14   15 1
    19   14   16 2
    20   17   18 2
    21   17   22 1
    22   18   19 1
    23   19   20 2
    24   19   27 1
    25   20   21 1
    26   20   25 1
    27   21   22 2
    28   21   23 1
    29   23   24 1
    30   25   26 1
    31   27   28 1
    32    1   30 1
    33    7   31 1
    34    7   32 1
    35    9   33 1
    36    9   34 1
    37   10   35 1
    38   11   36 1
    39   12   37 1
    40   12   38 1
    41   13   39 1
    42   13   40 1
    43   18   41 1
    44   22   42 1
    45   24   43 1
    46   24   44 1
    47   24   45 1
    48   26   46 1
    49   26   47 1
    50   26   48 1
    51   28   49 1
    52   28   50 1
    53   28   51 1
    54   29   52 1
    55   29   53 1
    56   29   54 1
@<TRIPOS>PROPERTY_DATA
  Total_Score	| 5.8069
  Crash		| -2.7568
  Polar		| 4.1872
  FragIndex	| 1
  FragRMSD	| 0.312

