@<TRIPOS>MOLECULE
BindingDB_50330595
 54 56 0 0 0
SMALL
NO_CHARGES


@<TRIPOS>ATOM
1    C        25.0985   -6.4004   20.3674  C     
2    C        25.5742   -7.5940   19.7756  C     
3    N        25.1699   -7.8131   18.4890  N     
4    C        24.3594   -7.0077   17.7394  C     
5    C        23.9489   -5.8015   18.3695  C     
6    N        24.3268   -5.5555   19.6482  N     
7    N        23.2783   -4.8080   17.7554  N     
8    N        23.9802   -7.4326   16.4883  N     
9    C        22.6107   -7.3674   16.0163  C     
10   C        22.4841   -6.6793   14.6252  C     
11   C        23.5214   -7.2434   13.5875  C     
12   C        24.9379   -7.3926   14.2302  C     
13   C        24.9120   -8.1098   15.6088  C     
14   C        23.1014   -8.4959   12.9065  C     
15   O        22.8681   -9.6391   13.5901  O     
16   O        22.8733   -8.4981   11.5699  O     
17   C        26.3421   -8.5758   20.4847  C     
18   C        27.0434   -8.2713   21.6801  C     
19   C        27.6814   -9.2715   22.4423  C     
20   C        27.7123  -10.5981   21.9668  C     
21   C        27.0467  -10.9241   20.7677  C     
22   C        26.3852   -9.9179   20.0339  C     
23   O        27.0832  -12.2058   20.2865  O     
24   C        25.9500  -12.9952   20.6843  C     
25   O        28.3225  -11.5813   22.7039  O     
26   C        29.7163  -11.7352   22.3929  C     
27   O        28.3141   -8.9581   23.6159  O     
28   C        27.4077   -8.7508   24.7162  C     
29   C        21.0117   -6.6887   14.1178  C     
30   H        25.2954   -6.1558   21.3364  H     
31   H        23.1079   -3.9751   18.2332  H     
32   H        23.0649   -4.8651   16.8116  H     
33   H        22.2451   -8.3897   15.9191  H     
34   H        21.9443   -6.8787   16.7311  H     
35   H        22.7383   -5.6322   14.7865  H     
36   H        23.6188   -6.4905   12.7979  H     
37   H        25.6119   -7.9216   13.5485  H     
38   H        25.3567   -6.3938   14.3791  H     
39   H        25.9331   -8.1148   16.0000  H     
40   H        24.6109   -9.1519   15.4852  H     
41   H        27.0892   -7.3150   22.0292  H     
42   H        25.9086  -10.1911   19.1718  H     
43   H        25.8988  -13.0997   21.7710  H     
44   H        26.0591  -13.9886   20.2499  H     
45   H        25.0163  -12.5623   20.3154  H     
46   H        29.8633  -12.0029   21.3429  H     
47   H        30.1127  -12.5407   23.0108  H     
48   H        30.2780  -10.8249   22.6174  H     
49   H        26.8107   -7.8467   24.5645  H     
50   H        27.9984   -8.6197   25.6216  H     
51   H        26.7382   -9.6039   24.8661  H     
52   H        20.6421   -7.7094   13.9865  H     
53   H        20.9417   -6.1697   13.1594  H     
54   H        20.3587   -6.1812   14.8328  H     
@<TRIPOS>BOND
     1    1    2 2
     2    1    6 1
     3    2    3 1
     4    2   17 1
     5    3    4 2
     6    4    5 1
     7    4    8 1
     8    5    6 2
     9    5    7 1
    10    8    9 1
    11    8   13 1
    12    9   10 1
    13   10   11 1
    14   10   29 1
    15   11   12 1
    16   11   14 1
    17   12   13 1
    18   14   15 1
    19   14   16 2
    20   17   18 2
    21   17   22 1
    22   18   19 1
    23   19   20 2
    24   19   27 1
    25   20   21 1
    26   20   25 1
    27   21   22 2
    28   21   23 1
    29   23   24 1
    30   25   26 1
    31   27   28 1
    32    1   30 1
    33    7   31 1
    34    7   32 1
    35    9   33 1
    36    9   34 1
    37   10   35 1
    38   11   36 1
    39   12   37 1
    40   12   38 1
    41   13   39 1
    42   13   40 1
    43   18   41 1
    44   22   42 1
    45   24   43 1
    46   24   44 1
    47   24   45 1
    48   26   46 1
    49   26   47 1
    50   26   48 1
    51   28   49 1
    52   28   50 1
    53   28   51 1
    54   29   52 1
    55   29   53 1
    56   29   54 1
@<TRIPOS>PROPERTY_DATA
  Total_Score	| 6.8640
  Crash		| -3.1502
  Polar		| 4.0822
  FragIndex	| 1
  FragRMSD	| 0.251

