@<TRIPOS>MOLECULE
BindingDB_50330599
 55 57 0 0 0
SMALL
NO_CHARGES


@<TRIPOS>ATOM
1    C        25.4815   -6.2971   20.4403  C     
2    C        25.7437   -7.6178   19.9894  C     
3    N        25.2349   -7.9146   18.7536  N     
4    C        24.5343   -7.0899   17.9267  C     
5    C        24.3406   -5.7633   18.4101  C     
6    N        24.8255   -5.4415   19.6450  N     
7    N        23.8324   -4.7322   17.7275  N     
8    N        24.0779   -7.6396   16.7386  N     
9    C        24.7741   -8.7634   16.1198  C     
10   C        24.7959   -8.6846   14.5676  C     
11   C        23.3639   -8.4675   13.9941  C     
12   C        22.7385   -7.2117   14.6784  C     
13   C        22.7476   -7.3524   16.2258  C     
14   C        23.3773   -8.3925   12.5141  C     
15   O        23.2365   -9.5416   11.7952  O     
16   O        23.5235   -7.2005   11.8823  O     
17   C        26.4544   -8.6265   20.7114  C     
18   C        27.0979   -8.3749   21.9533  C     
19   C        27.7743   -9.3861   22.6697  C     
20   C        27.8911  -10.6782   22.1146  C     
21   C        27.2615  -10.9616   20.8851  C     
22   C        26.5490   -9.9496   20.2088  C     
23   O        27.3873  -12.1843   20.2881  O     
24   C        26.2284  -13.0152   20.4717  C     
25   O        28.5487  -11.6773   22.7939  O     
26   C        29.8914  -11.8977   22.3335  C     
27   O        28.3683   -9.1138   23.8812  O     
28   C        27.4193   -8.7258   24.8936  C     
29   C        23.1890   -9.6243   10.3658  C     
30   H        25.7949   -5.9544   21.3478  H     
31   H        23.8401   -3.8379   18.1310  H     
32   H        23.5166   -4.8545   16.8108  H     
33   H        25.8222   -8.8363   16.4419  H     
34   H        24.2744   -9.6926   16.4100  H     
35   H        25.4485   -7.8512   14.2696  H     
36   H        25.2225   -9.6124   14.1595  H     
37   H        22.7469   -9.3348   14.2601  H     
38   H        23.3132   -6.3198   14.4012  H     
39   H        21.7057   -7.0858   14.3325  H     
40   H        22.1054   -8.1931   16.4746  H     
41   H        22.2773   -6.4651   16.6519  H     
42   H        27.0836   -7.4482   22.3816  H     
43   H        26.1090  -10.2016   19.3189  H     
44   H        26.0749  -13.2536   21.5335  H     
45   H        26.4069  -13.9400   19.9258  H     
46   H        25.3229  -12.5470   20.0702  H     
47   H        29.9222  -12.1492   21.2688  H     
48   H        30.3105  -12.7382   22.8961  H     
49   H        30.5197  -11.0216   22.5233  H     
50   H        26.9104   -7.7938   24.6263  H     
51   H        27.9654   -8.5616   25.8190  H     
52   H        26.6740   -9.5123   25.0635  H     
53   H        22.2986   -9.1083    9.9828  H     
54   H        23.1434  -10.6746   10.0719  H     
55   H        24.0851   -9.1755    9.9237  H     
@<TRIPOS>BOND
     1    1    2 2
     2    1    6 1
     3    2    3 1
     4    2   17 1
     5    3    4 2
     6    4    5 1
     7    4    8 1
     8    5    6 2
     9    5    7 1
    10    8    9 1
    11    8   13 1
    12    9   10 1
    13   10   11 1
    14   11   12 1
    15   11   14 1
    16   12   13 1
    17   14   15 1
    18   14   16 2
    19   15   29 1
    20   17   18 2
    21   17   22 1
    22   18   19 1
    23   19   20 2
    24   19   27 1
    25   20   21 1
    26   20   25 1
    27   21   22 2
    28   21   23 1
    29   23   24 1
    30   25   26 1
    31   27   28 1
    32    1   30 1
    33    7   31 1
    34    7   32 1
    35    9   33 1
    36    9   34 1
    37   10   35 1
    38   10   36 1
    39   11   37 1
    40   12   38 1
    41   12   39 1
    42   13   40 1
    43   13   41 1
    44   18   42 1
    45   22   43 1
    46   24   44 1
    47   24   45 1
    48   24   46 1
    49   26   47 1
    50   26   48 1
    51   26   49 1
    52   28   50 1
    53   28   51 1
    54   28   52 1
    55   29   53 1
    56   29   54 1
    57   29   55 1
@<TRIPOS>PROPERTY_DATA
  Total_Score	| 6.4363
  Crash		| -2.6023
  Polar		| 3.7208
  FragIndex	| 1
  FragRMSD	| 0.510

