@<TRIPOS>MOLECULE
BindingDB_50330607
 47 49 0 0 0
SMALL
NO_CHARGES


@<TRIPOS>ATOM
1    C        25.1584   -6.5834   20.4816  C     
2    C        25.5970   -7.8264   19.9869  C     
3    N        25.4144   -8.0191   18.6548  N     
4    C        24.8770   -7.1623   17.7403  C     
5    C        24.4718   -5.9117   18.2968  C     
6    N        24.6238   -5.6845   19.6231  N     
7    N        23.9104   -4.8740   17.6514  N     
8    N        24.8784   -7.5677   16.4151  N     
9    C        25.0466   -8.9701   16.0359  C     
10   C        24.2143   -9.3789   14.7800  C     
11   C        24.2667   -8.3504   13.5969  C     
12   C        25.1997   -7.1416   13.9188  C     
13   C        24.8864   -6.5923   15.3430  C     
14   C        22.9236   -7.8798   13.1459  C     
15   O        22.7700   -7.3885   11.8944  O     
16   O        21.9460   -7.6158   14.0461  O     
17   C        26.2931   -8.8171   20.7477  C     
18   C        26.3527  -10.1629   20.3045  C     
19   C        27.0853  -11.1332   21.0127  C     
20   C        27.7849  -10.7795   22.1807  C     
21   C        27.6970   -9.4593   22.6668  C     
22   C        26.9881   -8.4856   21.9368  C     
23   O        28.3326   -9.1073   23.8262  O     
24   C        27.4179   -8.7128   24.8626  C     
25   O        28.4796  -11.7350   22.8743  O     
26   C        29.8770  -11.7776   22.5359  C     
27   H        25.2271   -6.3293   21.4665  H     
28   H        23.6717   -4.0714   18.1443  H     
29   H        23.7308   -4.9066   16.7137  H     
30   H        26.1073   -9.1389   15.8174  H     
31   H        24.7640   -9.6569   16.8363  H     
32   H        24.5787  -10.3530   14.4270  H     
33   H        23.1833   -9.5342   15.1086  H     
34   H        24.7115   -8.8641   12.7329  H     
35   H        26.2413   -7.4863   13.8903  H     
36   H        25.1010   -6.3563   13.1633  H     
37   H        23.8934   -6.1305   15.2990  H     
38   H        25.6472   -5.8287   15.5535  H     
39   H        25.8654  -10.4568   19.4568  H     
40   H        27.1168  -12.0968   20.6708  H     
41   H        26.9985   -7.5270   22.2895  H     
42   H        26.8329   -7.8378   24.5692  H     
43   H        27.9989   -8.4545   25.7475  H     
44   H        26.7426   -9.5298   25.1233  H     
45   H        30.0275  -11.9486   21.4677  H     
46   H        30.3366  -12.6020   23.0829  H     
47   H        30.3771  -10.8525   22.8258  H     
@<TRIPOS>BOND
     1    1    2 2
     2    1    6 1
     3    2    3 1
     4    2   17 1
     5    3    4 2
     6    4    5 1
     7    4    8 1
     8    5    6 2
     9    5    7 1
    10    8    9 1
    11    8   13 1
    12    9   10 1
    13   10   11 1
    14   11   12 1
    15   11   14 1
    16   12   13 1
    17   14   15 1
    18   14   16 2
    19   17   18 2
    20   17   22 1
    21   18   19 1
    22   19   20 2
    23   20   21 1
    24   20   25 1
    25   21   22 2
    26   21   23 1
    27   23   24 1
    28   25   26 1
    29    1   27 1
    30    7   28 1
    31    7   29 1
    32    9   30 1
    33    9   31 1
    34   10   32 1
    35   10   33 1
    36   11   34 1
    37   12   35 1
    38   12   36 1
    39   13   37 1
    40   13   38 1
    41   18   39 1
    42   19   40 1
    43   22   41 1
    44   24   42 1
    45   24   43 1
    46   24   44 1
    47   26   45 1
    48   26   46 1
    49   26   47 1
@<TRIPOS>PROPERTY_DATA
  Total_Score	| 6.0956
  Crash		| -1.9950
  Polar		| 4.0970
  FragIndex	| 1
  FragRMSD	| 0.208

