@<TRIPOS>MOLECULE
BindingDB_50385917
 68 71 0 0 0
SMALL
NO_CHARGES


@<TRIPOS>ATOM
1    C        25.5109   -6.3317   20.6015  C     
2    C        25.6573   -7.6667   20.1606  C     
3    N        25.1425   -7.9378   18.9281  N     
4    C        24.5308   -7.0558   18.0892  C     
5    C        24.4376   -5.7201   18.5571  C     
6    N        24.9147   -5.4242   19.7930  N     
7    C        26.3252   -8.6995   20.8942  C     
8    C        26.7962   -8.5108   22.2180  C     
9    C        27.4730   -9.5331   22.9091  C     
10   C        27.7049  -10.7857   22.3039  C     
11   C        27.2348  -10.9892   20.9894  C     
12   C        26.5514   -9.9687   20.3029  C     
13   C        28.4163  -11.8592   23.0511  C     
14   N        27.4940  -12.7049   23.8802  N     
15   C        26.3058  -13.2016   23.1222  C     
16   C        28.2112  -13.8248   24.5566  C     
17   N        23.9599   -4.6870   17.8428  N     
18   C        24.0297   -7.5556   16.8481  C     
19   C        24.7322   -8.5580   16.1335  C     
20   C        24.2148   -9.1682   14.9701  C     
21   C        22.9407   -8.7572   14.5003  C     
22   C        22.2484   -7.7264   15.1710  C     
23   C        22.7733   -7.1572   16.3408  C     
24   C        22.2963   -9.4040   13.4730  C     
25   O        22.2569   -8.9107   12.3564  O     
26   N        21.5353  -10.4423   13.7376  N     
27   O        24.9148  -10.2392   14.4416  O     
28   C        25.4837  -10.1712   13.1104  C     
29   C        26.9789  -10.3576   13.0314  C     
30   C        24.8073  -11.2322   12.2007  C     
31   C        27.6018   -9.8075   11.8742  C     
32   C        28.9560  -10.0240   11.5802  C     
33   C        29.7331  -10.8004   12.4456  C     
34   C        29.1509  -11.3484   13.5969  C     
35   C        27.7798  -11.1587   13.9209  C     
36   C        27.2920  -11.7606   15.2106  C     
37   F        28.1296  -12.6911   15.7859  F     
38   F        27.1699  -10.7695   16.1477  F     
39   F        26.1025  -12.4303   15.0992  F     
40   H        25.8749   -6.0084   21.4978  H     
41   H        26.6385   -7.6310   22.7129  H     
42   H        27.7953   -9.3562   23.8649  H     
43   H        27.3827  -11.8867   20.5204  H     
44   H        26.2394  -10.1646   19.3474  H     
45   H        28.9841  -12.5020   22.3693  H     
46   H        29.1489  -11.3596   23.6936  H     
47   H        27.1349  -12.1056   24.6276  H     
48   H        25.7372  -12.3673   22.7084  H     
49   H        25.6327  -13.7543   23.7822  H     
50   H        26.6076  -13.8546   22.3000  H     
51   H        28.6412  -14.5169   23.8261  H     
52   H        27.5288  -14.3818   25.2057  H     
53   H        29.0171  -13.4397   25.1877  H     
54   H        23.9513   -3.7988   18.2314  H     
55   H        23.6705   -4.8074   16.9263  H     
56   H        25.6330   -8.8782   16.4856  H     
57   H        21.3187   -7.4302   14.8571  H     
58   H        22.1905   -6.4875   16.8466  H     
59   H        20.9881  -10.8186   13.0333  H     
60   H        21.4848  -10.7988   14.6391  H     
61   H        25.2129   -9.2060   12.6679  H     
62   H        25.0037  -12.2460   12.5399  H     
63   H        25.1670  -11.1419   11.1745  H     
64   H        23.7271  -11.0878   12.1791  H     
65   H        27.0636   -9.2535   11.2028  H     
66   H        29.3748   -9.6219   10.7377  H     
67   H        30.7249  -10.9544   12.2496  H     
68   H        29.7635  -11.8943   14.2025  H     
@<TRIPOS>BOND
     1    1    2 2
     2    1    6 1
     3    2    3 1
     4    2    7 1
     5    3    4 2
     6    4    5 1
     7    4   18 1
     8    5    6 2
     9    5   17 1
    10    7    8 2
    11    7   12 1
    12    8    9 1
    13    9   10 2
    14   10   11 1
    15   10   13 1
    16   11   12 2
    17   13   14 1
    18   14   15 1
    19   14   16 1
    20   18   19 2
    21   18   23 1
    22   19   20 1
    23   20   21 2
    24   20   27 1
    25   21   22 1
    26   21   24 1
    27   22   23 2
    28   24   25 2
    29   24   26 am
    30   27   28 1
    31   28   29 1
    32   28   30 1
    33   29   31 2
    34   29   35 1
    35   31   32 1
    36   32   33 2
    37   33   34 1
    38   34   35 2
    39   35   36 1
    40   36   37 1
    41   36   38 1
    42   36   39 1
    43    1   40 1
    44    8   41 1
    45    9   42 1
    46   11   43 1
    47   12   44 1
    48   13   45 1
    49   13   46 1
    50   14   47 1
    51   15   48 1
    52   15   49 1
    53   15   50 1
    54   16   51 1
    55   16   52 1
    56   16   53 1
    57   17   54 1
    58   17   55 1
    59   19   56 1
    60   22   57 1
    61   23   58 1
    62   26   59 1
    63   26   60 1
    64   28   61 1
    65   30   62 1
    66   30   63 1
    67   30   64 1
    68   31   65 1
    69   32   66 1
    70   33   67 1
    71   34   68 1
@<TRIPOS>PROPERTY_DATA
  Total_Score	| 8.8084
  Crash		| -1.8512
  Polar		| 3.1990
  FragIndex	| 1
  FragRMSD	| 0.515

