@<TRIPOS>MOLECULE
BindingDB_50330579
 46 48 0 0 0
SMALL
NO_CHARGES


@<TRIPOS>ATOM
1    O        23.6951  -10.0115   12.1631  O     
2    C        23.1879   -8.8744   12.6918  C     
3    O        22.7198   -7.9664   11.8065  O     
4    C        23.4441   -8.5065   14.0349  C     
5    C        24.5273   -9.0782   14.7425  C     
6    C        24.8504   -8.6425   16.0396  C     
7    C        22.6500   -7.5383   14.6927  C     
8    C        22.9524   -7.1313   16.0071  C     
9    C        24.0903   -7.6357   16.6845  C     
10   C        24.4738   -7.1621   17.9749  C     
11   N        25.1040   -8.0203   18.8212  N     
12   C        24.3062   -5.8386   18.4484  C     
13   N        23.8496   -4.8256   17.6929  N     
14   N        24.6876   -5.5433   19.7160  N     
15   C        25.2769   -6.4395   20.5425  C     
16   C        25.5482   -7.7486   20.0789  C     
17   C        26.2701   -8.7584   20.8006  C     
18   C        26.9979   -8.4698   21.9827  C     
19   C        26.3166  -10.0984   20.3303  C     
20   C        27.0835  -11.0921   20.9744  C     
21   O        27.0788  -12.3846   20.5183  O     
22   C        28.0830  -12.6671   19.5293  C     
23   C        27.7878  -10.7736   22.1534  C     
24   O        28.4714  -11.7537   22.8247  O     
25   C        29.9021  -11.6549   22.6995  C     
26   C        27.7086   -9.4671   22.6799  C     
27   O        28.3487   -9.1546   23.8497  O     
28   C        27.4442   -8.7292   24.8838  C     
29   H        25.1241   -9.7852   14.3034  H     
30   H        25.6730   -9.0486   16.4956  H     
31   H        21.8450   -7.1177   14.2200  H     
32   H        22.3406   -6.4411   16.4632  H     
33   H        23.7830   -3.9351   18.0688  H     
34   H        23.6353   -4.9751   16.7537  H     
35   H        25.5248   -6.1254   21.4801  H     
36   H        27.0230   -7.5258   22.3666  H     
37   H        25.7898  -10.3735   19.4995  H     
38   H        27.9137  -12.0930   18.6175  H     
39   H        28.0159  -13.7238   19.2754  H     
40   H        29.0892  -12.4670   19.9016  H     
41   H        30.2194  -11.7178   21.6579  H     
42   H        30.3465  -12.4905   23.2382  H     
43   H        30.2812  -10.7284   23.1359  H     
44   H        26.8937   -7.8347   24.5852  H     
45   H        28.0303   -8.4848   25.7698  H     
46   H        26.7358   -9.5197   25.1463  H     
@<TRIPOS>BOND
     1    1    2 1
     2    2    3 2
     3    2    4 1
     4    4    5 1
     5    4    7 2
     6    5    6 2
     7    6    9 1
     8    7    8 1
     9    8    9 2
    10    9   10 1
    11   10   11 2
    12   10   12 1
    13   11   16 1
    14   12   13 1
    15   12   14 2
    16   14   15 1
    17   15   16 2
    18   16   17 1
    19   17   18 1
    20   17   19 2
    21   18   26 2
    22   19   20 1
    23   20   21 1
    24   20   23 2
    25   21   22 1
    26   23   24 1
    27   23   26 1
    28   24   25 1
    29   26   27 1
    30   27   28 1
    31    5   29 1
    32    6   30 1
    33    7   31 1
    34    8   32 1
    35   13   33 1
    36   13   34 1
    37   15   35 1
    38   18   36 1
    39   19   37 1
    40   22   38 1
    41   22   39 1
    42   22   40 1
    43   25   41 1
    44   25   42 1
    45   25   43 1
    46   28   44 1
    47   28   45 1
    48   28   46 1
@<TRIPOS>PROPERTY_DATA
  Total_Score	| 6.8928
  Crash		| -0.7049
  Polar		| 4.0262
  FragIndex	| 1
  FragRMSD	| 0.628

