@<TRIPOS>MOLECULE
BindingDB_50330592
 54 56 0 0 0
SMALL
NO_CHARGES


@<TRIPOS>ATOM
1    C        25.4265   -6.3110   20.4701  C     
2    C        25.7484   -7.5738   19.9233  C     
3    N        25.2739   -7.7874   18.6710  N     
4    C        24.5289   -6.9493   17.9027  C     
5    C        24.2886   -5.6748   18.4706  C     
6    N        24.7270   -5.4182   19.7284  N     
7    N        23.7415   -4.6467   17.8039  N     
8    N        24.0550   -7.4030   16.7002  N     
9    C        22.6674   -7.2532   16.3195  C     
10   C        22.4574   -6.9255   14.8074  C     
11   C        23.2671   -7.9446   13.9283  C     
12   C        24.7333   -8.0420   14.4335  C     
13   C        24.8062   -8.3746   15.9452  C     
14   C        23.2570   -7.6537   12.4623  C     
15   O        23.5607   -8.6460   11.6108  O     
16   O        22.4314   -6.7101   11.9344  O     
17   C        26.4476   -8.6265   20.6126  C     
18   C        26.5177   -9.9315   20.0591  C     
19   C        27.1282  -10.9956   20.7478  C     
20   C        27.7505  -10.7741   22.0072  C     
21   C        27.6681   -9.4806   22.5843  C     
22   C        27.0856   -8.4243   21.8634  C     
23   O        28.2554   -9.2548   23.8059  O     
24   C        27.3418   -8.8149   24.8315  C     
25   O        28.3162  -11.8606   22.6160  O     
26   C        29.7650  -11.8876   22.6098  C     
27   O        27.1731  -12.2296   20.1509  O     
28   C        26.0349  -13.0459   20.4766  C     
29   C        20.9267   -6.8704   14.4787  C     
30   H        25.6790   -6.0433   21.4126  H     
31   H        23.6606   -3.7717   18.2243  H     
32   H        23.5122   -4.7391   16.8633  H     
33   H        22.1657   -8.1972   16.5299  H     
34   H        22.1497   -6.5166   16.9259  H     
35   H        22.8600   -5.9281   14.6328  H     
36   H        22.8097   -8.9244   14.0501  H     
37   H        25.2643   -8.8315   13.8960  H     
38   H        25.2484   -7.1004   14.2488  H     
39   H        25.8618   -8.4059   16.2236  H     
40   H        24.4076   -9.3794   16.1196  H     
41   H        26.0879  -10.1258   19.1562  H     
42   H        27.1090   -7.5043   22.3044  H     
43   H        26.9367   -7.8225   24.6165  H     
44   H        27.8969   -8.7482   25.7726  H     
45   H        26.5141   -9.5154   24.9657  H     
46   H        30.1862  -11.6970   21.6129  H     
47   H        30.0766  -12.8735   22.9495  H     
48   H        30.1686  -11.1485   23.3122  H     
49   H        26.0086  -13.2674   21.5441  H     
50   H        26.1292  -13.9858   19.9372  H     
51   H        25.0962  -12.5745   20.1797  H     
52   H        20.5689   -7.8048   14.0626  H     
53   H        20.7169   -6.0842   13.7497  H     
54   H        20.3181   -6.6710   15.3531  H     
@<TRIPOS>BOND
     1    1    2 2
     2    1    6 1
     3    2    3 1
     4    2   17 1
     5    3    4 2
     6    4    5 1
     7    4    8 1
     8    5    6 2
     9    5    7 1
    10    8    9 1
    11    8   13 1
    12    9   10 1
    13   10   11 1
    14   10   29 1
    15   11   12 1
    16   11   14 1
    17   12   13 1
    18   14   15 1
    19   14   16 2
    20   17   18 2
    21   17   22 1
    22   18   19 1
    23   19   20 2
    24   19   27 1
    25   20   21 1
    26   20   25 1
    27   21   22 2
    28   21   23 1
    29   23   24 1
    30   25   26 1
    31   27   28 1
    32    1   30 1
    33    7   31 1
    34    7   32 1
    35    9   33 1
    36    9   34 1
    37   10   35 1
    38   11   36 1
    39   12   37 1
    40   12   38 1
    41   13   39 1
    42   13   40 1
    43   18   41 1
    44   22   42 1
    45   24   43 1
    46   24   44 1
    47   24   45 1
    48   26   46 1
    49   26   47 1
    50   26   48 1
    51   28   49 1
    52   28   50 1
    53   28   51 1
    54   29   52 1
    55   29   53 1
    56   29   54 1
@<TRIPOS>PROPERTY_DATA
  Total_Score	| 7.1239
  Crash		| -2.8672
  Polar		| 4.8109
  FragIndex	| 1
  FragRMSD	| 0.217

