@<TRIPOS>MOLECULE
BindingDB_50330597
 49 51 0 0 0
SMALL
NO_CHARGES


@<TRIPOS>ATOM
1    C        25.1382   -6.5077   20.6501  C     
2    C        25.4842   -7.7990   20.1637  C     
3    N        25.0967   -8.0612   18.8854  N     
4    C        24.4762   -7.2056   18.0308  C     
5    C        24.2018   -5.9082   18.5518  C     
6    N        24.5354   -5.6235   19.8317  N     
7    N        23.7089   -4.8855   17.8237  N     
8    C        24.1855   -7.6169   16.6953  C     
9    C        25.0054   -8.5220   15.9537  C     
10   C        24.7091   -8.7691   14.5929  C     
11   C        23.6265   -8.1412   13.9358  C     
12   C        22.7829   -7.3021   14.6942  C     
13   C        23.0457   -7.0624   16.0557  C     
14   C        23.3694   -8.3616   12.5608  C     
15   O        22.4617   -7.6252   11.8778  O     
16   O        24.0011   -9.3209   11.8545  O     
17   C        26.2383   -8.7787   20.8927  C     
18   C        26.4243  -10.0959   20.3883  C     
19   C        27.2113  -11.0619   21.0608  C     
20   C        27.9030  -10.7015   22.2381  C     
21   C        27.7196   -9.4144   22.7788  C     
22   C        26.9061   -8.4746   22.1096  C     
23   O        28.3869   -9.0570   23.9250  O     
24   C        27.4999   -8.7825   25.0282  C     
25   O        28.6915  -11.5925   22.9183  O     
26   C        30.0179  -11.7448   22.3510  C     
27   O        27.5095  -12.2846   20.4987  O     
28   C        26.4268  -13.2425   20.5619  C     
29   C        26.1964   -9.1667   16.5544  C     
30   H        25.3805   -6.1993   21.5846  H     
31   H        23.5723   -4.0176   18.2364  H     
32   H        23.5450   -4.9795   16.8818  H     
33   H        25.3101   -9.4073   14.0646  H     
34   H        21.9706   -6.8493   14.2595  H     
35   H        22.3822   -6.4677   16.5777  H     
36   H        25.9868  -10.3802   19.5120  H     
37   H        26.8736   -7.5438   22.5175  H     
38   H        26.8529   -7.9258   24.8003  H     
39   H        28.1215   -8.5319   25.8940  H     
40   H        26.8874   -9.6566   25.2849  H     
41   H        29.9616  -12.0265   21.2829  H     
42   H        30.5275  -12.5551   22.9015  H     
43   H        30.6263  -10.8328   22.4446  H     
44   H        26.1328  -13.4508   21.6093  H     
45   H        26.7875  -14.1806   20.1114  H     
46   H        25.5441  -12.9066   19.9885  H     
47   H        26.8178   -8.4175   17.0339  H     
48   H        26.8205   -9.6862   15.8339  H     
49   H        25.8942   -9.8937   17.3027  H     
@<TRIPOS>BOND
     1    1    2 2
     2    1    6 1
     3    2    3 1
     4    2   17 1
     5    3    4 2
     6    4    5 1
     7    4    8 1
     8    5    6 2
     9    5    7 1
    10    8    9 1
    11    8   13 2
    12    9   10 2
    13    9   29 1
    14   10   11 1
    15   11   12 2
    16   11   14 1
    17   12   13 1
    18   14   15 1
    19   14   16 2
    20   17   18 2
    21   17   22 1
    22   18   19 1
    23   19   20 2
    24   19   27 1
    25   20   21 1
    26   20   25 1
    27   21   22 2
    28   21   23 1
    29   23   24 1
    30   25   26 1
    31   27   28 1
    32    1   30 1
    33    7   31 1
    34    7   32 1
    35   10   33 1
    36   12   34 1
    37   13   35 1
    38   18   36 1
    39   22   37 1
    40   24   38 1
    41   24   39 1
    42   24   40 1
    43   26   41 1
    44   26   42 1
    45   26   43 1
    46   28   44 1
    47   28   45 1
    48   28   46 1
    49   29   47 1
    50   29   48 1
    51   29   49 1
@<TRIPOS>PROPERTY_DATA
  Total_Score	| 6.8628
  Crash		| -1.2133
  Polar		| 3.9204
  FragIndex	| 1
  FragRMSD	| 0.574

