@<TRIPOS>MOLECULE
BindingDB_50330600
 49 51 0 0 0
SMALL
NO_CHARGES


@<TRIPOS>ATOM
1    C        25.2470   -6.3335   20.4082  C     
2    C        25.5050   -7.6240   19.9041  C     
3    N        25.0074   -7.8582   18.6644  N     
4    C        24.3029   -7.0292   17.8382  C     
5    C        24.0698   -5.7333   18.4050  C     
6    N        24.5511   -5.4574   19.6475  N     
7    N        23.3953   -4.6874   17.8879  N     
8    N        23.9639   -7.5492   16.5937  N     
9    C        25.0109   -8.1411   15.7501  C     
10   C        24.5986   -8.9148   14.4665  C     
11   C        23.4349   -8.2261   13.7285  C     
12   C        22.2661   -8.0599   14.7189  C     
13   C        22.6916   -7.2415   15.9698  C     
14   C        26.2547   -8.6505   20.5629  C     
15   C        26.4356   -9.9178   19.9516  C     
16   C        27.2177  -10.9300   20.5484  C     
17   C        27.8377  -10.6865   21.7919  C     
18   C        27.6542   -9.4445   22.4368  C     
19   C        26.8944   -8.4346   21.8079  C     
20   O        28.2953   -9.2052   23.6254  O     
21   C        27.4225   -8.8145   24.7017  C     
22   O        28.7275  -11.5975   22.2993  O     
23   C        28.2889  -12.2637   23.4939  C     
24   O        27.4759  -12.1031   19.8854  O     
25   C        26.5513  -13.1694   20.1576  C     
26   H        25.5526   -6.0362   21.3338  H     
27   H        23.3491   -3.8562   18.3903  H     
28   H        22.9360   -4.7336   17.0429  H     
29   H        25.6838   -7.3301   15.4443  H     
30   H        25.6022   -8.8517   16.3408  H     
31   H        25.4583   -8.9966   13.7931  H     
32   H        24.2933   -9.9302   14.7386  H     
33   H        23.7458   -7.2523   13.3429  H     
34   H        23.1160   -8.8465   12.8860  H     
35   H        21.4269   -7.5657   14.2183  H     
36   H        21.9231   -9.0533   15.0390  H     
37   H        21.8891   -7.4155   16.6746  H     
38   H        22.6999   -6.1764   15.7116  H     
39   H        26.0179  -10.1147   19.0397  H     
40   H        26.8479   -7.5228   22.2643  H     
41   H        28.0106   -8.7741   25.6204  H     
42   H        26.6057   -9.5298   24.8466  H     
43   H        27.0009   -7.8215   24.5233  H     
44   H        28.1167  -11.5562   24.3095  H     
45   H        29.0748  -12.9526   23.8035  H     
46   H        27.3792  -12.8427   23.3196  H     
47   H        26.4678  -13.3692   21.2295  H     
48   H        26.9207  -14.0734   19.6694  H     
49   H        25.5605  -12.9463   19.7539  H     
@<TRIPOS>BOND
     1    1    2 2
     2    1    6 1
     3    2    3 1
     4    2   14 1
     5    3    4 2
     6    4    5 1
     7    4    8 1
     8    5    6 2
     9    5    7 1
    10    8    9 1
    11    8   13 1
    12    9   10 1
    13   10   11 1
    14   11   12 1
    15   12   13 1
    16   14   15 2
    17   14   19 1
    18   15   16 1
    19   16   17 2
    20   16   24 1
    21   17   18 1
    22   17   22 1
    23   18   19 2
    24   18   20 1
    25   20   21 1
    26   22   23 1
    27   24   25 1
    28    1   26 1
    29    7   27 1
    30    7   28 1
    31    9   29 1
    32    9   30 1
    33   10   31 1
    34   10   32 1
    35   11   33 1
    36   11   34 1
    37   12   35 1
    38   12   36 1
    39   13   37 1
    40   13   38 1
    41   15   39 1
    42   19   40 1
    43   21   41 1
    44   21   42 1
    45   21   43 1
    46   23   44 1
    47   23   45 1
    48   23   46 1
    49   25   47 1
    50   25   48 1
    51   25   49 1
@<TRIPOS>PROPERTY_DATA
  Total_Score	| 5.6302
  Crash		| -0.7765
  Polar		| 2.3819
  FragIndex	| 1
  FragRMSD	| 0.648

