@<TRIPOS>MOLECULE
BindingDB_50330577
 49 51 0 0 0
SMALL
NO_CHARGES


@<TRIPOS>ATOM
1    C        21.1054   -7.2675   14.3341  C     
2    C        22.4665   -7.6425   14.8018  C     
3    C        22.8414   -7.1774   16.0838  C     
4    C        23.3644   -8.4675   14.0702  C     
5    C        23.0874   -8.9374   12.7699  C     
6    O        22.8928   -8.0499   11.7602  O     
7    O        23.3983  -10.2076   12.4037  O     
8    C        24.5960   -8.8277   14.6625  C     
9    C        24.9561   -8.3523   15.9299  C     
10   C        24.0939   -7.4980   16.6529  C     
11   C        24.4766   -7.0276   17.9485  C     
12   N        25.1559   -7.8941   18.7501  N     
13   C        24.2434   -5.7345   18.4767  C     
14   N        23.6848   -4.7190   17.8051  N     
15   N        24.6696   -5.4627   19.7380  N     
16   C        25.3325   -6.3573   20.5127  C     
17   C        25.6208   -7.6506   20.0097  C     
18   C        26.3543   -8.6747   20.6900  C     
19   C        26.9966   -8.4642   21.9362  C     
20   C        26.4616   -9.9736   20.1192  C     
21   C        27.1978  -10.9998   20.7541  C     
22   O        27.2430  -12.2471   20.2018  O     
23   C        26.1723  -13.0911   20.6532  C     
24   C        27.8597  -10.7501   21.9769  C     
25   O        28.5571  -11.7501   22.6001  O     
26   C        29.9512  -11.8041   22.2254  C     
27   C        27.7230   -9.4836   22.5794  C     
28   O        28.3018   -9.2587   23.7916  O     
29   C        27.4543   -9.6420   24.8898  C     
30   H        20.3731   -7.5851   15.0785  H     
31   H        20.8254   -7.7304   13.3904  H     
32   H        21.0343   -6.1827   14.2160  H     
33   H        22.1783   -6.6183   16.6196  H     
34   H        25.2641   -9.4232   14.1607  H     
35   H        25.8632   -8.6234   16.3149  H     
36   H        23.5836   -3.8510   18.2399  H     
37   H        23.4218   -4.8227   16.8803  H     
38   H        25.6256   -6.0553   21.4412  H     
39   H        26.9486   -7.5697   22.4142  H     
40   H        26.0288  -10.1951   19.2221  H     
41   H        26.2046  -13.2348   21.7407  H     
42   H        26.2898  -14.0647   20.1862  H     
43   H        25.2006  -12.6851   20.3689  H     
44   H        30.0764  -11.9857   21.1595  H     
45   H        30.4152  -12.6270   22.7712  H     
46   H        30.4714  -10.8827   22.5049  H     
47   H        26.4987   -9.1101   24.8768  H     
48   H        27.9640   -9.3798   25.8163  H     
49   H        27.2714  -10.7228   24.8960  H     
@<TRIPOS>BOND
     1    1    2 1
     2    2    3 1
     3    2    4 2
     4    3   10 2
     5    4    5 1
     6    4    8 1
     7    5    6 2
     8    5    7 1
     9    8    9 2
    10    9   10 1
    11   10   11 1
    12   11   12 2
    13   11   13 1
    14   12   17 1
    15   13   14 1
    16   13   15 2
    17   15   16 1
    18   16   17 2
    19   17   18 1
    20   18   19 1
    21   18   20 2
    22   19   27 2
    23   20   21 1
    24   21   22 1
    25   21   24 2
    26   22   23 1
    27   24   25 1
    28   24   27 1
    29   25   26 1
    30   27   28 1
    31   28   29 1
    32    1   30 1
    33    1   31 1
    34    1   32 1
    35    3   33 1
    36    8   34 1
    37    9   35 1
    38   14   36 1
    39   14   37 1
    40   16   38 1
    41   19   39 1
    42   20   40 1
    43   23   41 1
    44   23   42 1
    45   23   43 1
    46   26   44 1
    47   26   45 1
    48   26   46 1
    49   29   47 1
    50   29   48 1
    51   29   49 1
@<TRIPOS>PROPERTY_DATA
  Total_Score	| 8.2088
  Crash		| -0.6230
  Polar		| 4.3166
  FragIndex	| 1
  FragRMSD	| 0.773

