@<TRIPOS>MOLECULE
BindingDB_18492
 47 48 0 0 0
SMALL
NO_CHARGES


@<TRIPOS>ATOM
1    C        15.5560   -8.6289   -1.4741  C     
2    C        16.1229  -10.5007   -2.8173  C     
3    C        14.7515   -8.7975   -3.7598  C     
4    C        14.8257   -8.0578   -2.5463  C     
5    N        16.1812   -9.8223   -1.6459  N     
6    N        15.4046   -9.9859   -3.8395  N     
7    N        15.6879   -8.0483   -0.2646  N     
8    N        16.7878  -11.6543   -2.9830  N     
9    C        14.2718   -6.8760   -2.4484  C     
10   C        13.7679   -5.7921   -2.3922  C     
11   C        13.1709   -4.5505   -2.3596  C     
12   C        12.6602   -4.1459   -3.7108  C     
13   C        11.8302   -5.0008   -4.4800  C     
14   C        12.9256   -2.8480   -4.2112  C     
15   C        12.4056   -2.4219   -5.4488  C     
16   C        11.6003   -3.2947   -6.2105  C     
17   C        11.2868   -4.5797   -5.7126  C     
18   O        10.4835   -5.4117   -6.4480  O     
19   C         9.2619   -5.7891   -5.7816  C     
20   O        11.0515   -2.8219   -7.3740  O     
21   C        11.6276   -3.3868   -8.5720  C     
22   O        12.5690   -1.1199   -5.8451  O     
23   C        13.7663   -0.8636   -6.5997  C     
24   C        12.0448   -4.4921   -1.2950  C     
25   C        14.0160   -8.3524   -4.9662  C     
26   H        16.2271   -8.4767    0.4165  H     
27   H        15.2670   -7.1975   -0.0720  H     
28   H        16.7734  -12.1056   -3.8453  H     
29   H        17.3157  -12.0189   -2.2550  H     
30   H        13.9511   -3.8591   -2.0352  H     
31   H        11.6058   -5.9348   -4.1346  H     
32   H        13.4832   -2.1920   -3.6610  H     
33   H         9.4665   -6.4106   -4.9014  H     
34   H         8.6646   -6.3773   -6.4771  H     
35   H         8.6831   -4.9087   -5.4831  H     
36   H        12.7114   -3.2180   -8.6261  H     
37   H        11.1620   -2.9025   -9.4295  H     
38   H        11.4329   -4.4605   -8.6339  H     
39   H        14.6609   -1.0538   -6.0058  H     
40   H        13.7620    0.1862   -6.8830  H     
41   H        13.7986   -1.4604   -7.5114  H     
42   H        11.2568   -5.2202   -1.5029  H     
43   H        11.5989   -3.4951   -1.2839  H     
44   H        12.4491   -4.6906   -0.2952  H     
45   H        12.9578   -8.2387   -4.7275  H     
46   H        14.1094   -9.0756   -5.7808  H     
47   H        14.4107   -7.3954   -5.3138  H     
@<TRIPOS>BOND
     1    1    4 2
     2    1    5 1
     3    1    7 1
     4    2    5 2
     5    2    6 1
     6    2    8 1
     7    3    4 1
     8    3    6 2
     9    3   25 1
    10    4    9 1
    11    9   10 3
    12   10   11 1
    13   11   12 1
    14   11   24 1
    15   12   13 1
    16   12   14 2
    17   13   17 2
    18   14   15 1
    19   15   16 2
    20   15   22 1
    21   16   17 1
    22   16   20 1
    23   17   18 1
    24   18   19 1
    25   20   21 1
    26   22   23 1
    27    7   26 1
    28    7   27 1
    29    8   28 1
    30    8   29 1
    31   11   30 1
    32   13   31 1
    33   14   32 1
    34   19   33 1
    35   19   34 1
    36   19   35 1
    37   21   36 1
    38   21   37 1
    39   21   38 1
    40   23   39 1
    41   23   40 1
    42   23   41 1
    43   24   42 1
    44   24   43 1
    45   24   44 1
    46   25   45 1
    47   25   46 1
    48   25   47 1
@<TRIPOS>PROPERTY_DATA
  Total_Score	| 8.8280
  Crash		| -0.6505
  Polar		| 3.0064
  FragIndex	| 1
  FragRMSD	| 0.291

