@<TRIPOS>MOLECULE
BindingDB_50329608
 50 51 0 0 0
SMALL
NO_CHARGES


@<TRIPOS>ATOM
1    C         9.4846   -5.4643   -6.9886  C     
2    O        10.8743   -5.1478   -7.1851  O     
3    C        11.4753   -4.5322   -6.1294  C     
4    C        11.5730   -5.1847   -4.8876  C     
5    C        12.0875   -3.2728   -6.3140  C     
6    O        11.9051   -2.6238   -7.5097  O     
7    C        12.7024   -3.1546   -8.5955  C     
8    C        12.8513   -2.7009   -5.2631  C     
9    O        13.7112   -1.6300   -5.3928  O     
10   C        13.4326   -0.6898   -6.4452  C     
11   C        12.8926   -3.3577   -4.0166  C     
12   C        12.2357   -4.5974   -3.7727  C     
13   C        12.2081   -5.2858   -2.4188  C     
14   C        12.6348   -4.3592   -1.2378  C     
15   C        10.7782   -5.8312   -2.0784  C     
16   C        13.0928   -6.3474   -2.4312  C     
17   C        13.8358   -7.2870   -2.4416  C     
18   C        14.6099   -8.3343   -2.5390  C     
19   C        14.5545   -9.1864   -3.6792  C     
20   C        13.6349   -8.9749   -4.8219  C     
21   N        15.4043  -10.2441   -3.7532  N     
22   C        16.3035  -10.5349   -2.7859  C     
23   N        17.1326  -11.5738   -2.9568  N     
24   N        16.3580   -9.7477   -1.6855  N     
25   C        15.5448   -8.6664   -1.5255  C     
26   N        15.7134   -7.9619   -0.3876  N     
27   H         9.3790   -6.2728   -6.2604  H     
28   H         9.0749   -5.7635   -7.9507  H     
29   H         8.9181   -4.5920   -6.6653  H     
30   H        11.1152   -6.0999   -4.8153  H     
31   H        13.7694   -3.0514   -8.3940  H     
32   H        12.4532   -2.5858   -9.4957  H     
33   H        12.4749   -4.2051   -8.7995  H     
34   H        13.5803   -1.1760   -7.4357  H     
35   H        14.1223    0.1378   -6.3560  H     
36   H        12.4155   -0.2767   -6.3668  H     
37   H        13.4286   -2.8955   -3.2760  H     
38   H        13.6822   -4.0541   -1.3264  H     
39   H        12.4972   -4.8399   -0.2659  H     
40   H        12.0234   -3.4550   -1.2445  H     
41   H        10.0382   -5.0347   -2.1579  H     
42   H        10.7282   -6.2259   -1.0664  H     
43   H        10.4654   -6.6355   -2.7432  H     
44   H        12.6005   -8.9584   -4.4715  H     
45   H        13.7306   -9.7662   -5.5705  H     
46   H        13.8630   -8.0182   -5.2989  H     
47   H        17.7928  -11.7852   -2.2785  H     
48   H        17.0864  -12.0982   -3.7740  H     
49   H        16.3927   -8.2303    0.2467  H     
50   H        15.1779   -7.1796   -0.1940  H     
@<TRIPOS>BOND
     1    1    2 1
     2    2    3 1
     3    3    4 2
     4    3    5 1
     5    4   12 1
     6    5    6 1
     7    5    8 2
     8    6    7 1
     9    8    9 1
    10    8   11 1
    11    9   10 1
    12   11   12 2
    13   12   13 1
    14   13   14 1
    15   13   15 1
    16   13   16 1
    17   16   17 3
    18   17   18 1
    19   18   19 2
    20   18   25 1
    21   19   20 1
    22   19   21 1
    23   21   22 2
    24   22   23 1
    25   22   24 1
    26   24   25 2
    27   25   26 1
    28    1   27 1
    29    1   28 1
    30    1   29 1
    31    4   30 1
    32    7   31 1
    33    7   32 1
    34    7   33 1
    35   10   34 1
    36   10   35 1
    37   10   36 1
    38   11   37 1
    39   14   38 1
    40   14   39 1
    41   14   40 1
    42   15   41 1
    43   15   42 1
    44   15   43 1
    45   20   44 1
    46   20   45 1
    47   20   46 1
    48   23   47 1
    49   23   48 1
    50   26   49 1
    51   26   50 1
@<TRIPOS>PROPERTY_DATA
  Total_Score	| 9.0900
  Crash		| -2.2719
  Polar		| 3.1496
  FragIndex	| 1
  FragRMSD	| 1.002

