@<TRIPOS>MOLECULE
BindingDB_50298800
 52 54 0 0 0
SMALL
NO_CHARGES


@<TRIPOS>ATOM
1    N        16.3243   -9.7885   -1.6816  N     
2    C        16.1731  -10.6109   -2.7476  C     
3    N        15.3523  -10.2307   -3.7554  N     
4    C        14.6775   -9.0513   -3.7578  C     
5    C        14.8294   -8.1724   -2.6490  C     
6    C        15.6842   -8.5944   -1.5971  C     
7    N        15.9340   -7.8658   -0.4934  N     
8    C        14.2603   -6.9908   -2.6228  C     
9    C        13.7635   -5.9007   -2.6240  C     
10   C        13.2176   -4.6344   -2.6393  C     
11   C        12.7140   -4.2654   -4.0027  C     
12   C        13.3651   -3.2665   -4.7717  C     
13   C        12.8967   -2.9167   -6.0560  C     
14   C        11.7445   -3.5377   -6.5674  C     
15   C        11.0622   -4.5343   -5.8321  C     
16   C        11.5678   -4.8955   -4.5584  C     
17   C        13.8612   -8.7941   -4.9678  C     
18   O        13.5644   -2.0445   -6.8717  O     
19   C        13.5748   -0.6786   -6.4506  C     
20   C         9.9039   -5.1521   -6.3632  C     
21   C         9.8626   -5.6078   -7.7036  C     
22   C         8.7162   -6.2524   -8.2142  C     
23   C         7.5760   -6.4396   -7.4015  C     
24   C         7.6043   -5.9570   -6.0740  C     
25   C         8.7528   -5.3277   -5.5637  C     
26   C        12.1312   -4.4689   -1.5380  C     
27   C         6.3881   -7.1362   -7.9434  C     
28   N        16.8507  -11.7666   -2.8286  N     
29   H        15.4868   -7.0183   -0.3484  H     
30   H        16.5819   -8.1753    0.1588  H     
31   H        14.0350   -3.9692   -2.3576  H     
32   H        14.2077   -2.8073   -4.4175  H     
33   H        11.4089   -3.2647   -7.4980  H     
34   H        11.1097   -5.6470   -4.0305  H     
35   H        14.5017   -8.8322   -5.8523  H     
36   H        13.3677   -7.8227   -4.9515  H     
37   H        13.0923   -9.5651   -5.0585  H     
38   H        12.5710   -0.3089   -6.2259  H     
39   H        13.9807   -0.0774   -7.2708  H     
40   H        14.2224   -0.5558   -5.5797  H     
41   H        10.6778   -5.5031   -8.3131  H     
42   H         8.7251   -6.5904   -9.1805  H     
43   H         6.7893   -6.0697   -5.4651  H     
44   H         8.7353   -4.9893   -4.5949  H     
45   H        11.3211   -5.1951   -1.6573  H     
46   H        11.7022   -3.4652   -1.5829  H     
47   H        12.5713   -4.5997   -0.5424  H     
48   H         5.9977   -6.5857   -8.8009  H     
49   H         5.5916   -7.2244   -7.2019  H     
50   H         6.6674   -8.1419   -8.2625  H     
51   H        16.7772  -12.3222   -3.6229  H     
52   H        17.4538  -12.0258   -2.1130  H     
@<TRIPOS>BOND
     1    1    2 2
     2    1    6 1
     3    2    3 1
     4    2   28 1
     5    3    4 2
     6    4    5 1
     7    4   17 1
     8    5    6 2
     9    5    8 1
    10    6    7 1
    11    8    9 3
    12    9   10 1
    13   10   11 1
    14   10   26 1
    15   11   12 2
    16   11   16 1
    17   12   13 1
    18   13   14 2
    19   13   18 1
    20   14   15 1
    21   15   16 2
    22   15   20 1
    23   18   19 1
    24   20   21 2
    25   20   25 1
    26   21   22 1
    27   22   23 2
    28   23   24 1
    29   23   27 1
    30   24   25 2
    31    7   29 1
    32    7   30 1
    33   10   31 1
    34   12   32 1
    35   14   33 1
    36   16   34 1
    37   17   35 1
    38   17   36 1
    39   17   37 1
    40   19   38 1
    41   19   39 1
    42   19   40 1
    43   21   41 1
    44   22   42 1
    45   24   43 1
    46   25   44 1
    47   26   45 1
    48   26   46 1
    49   26   47 1
    50   27   48 1
    51   27   49 1
    52   27   50 1
    53   28   51 1
    54   28   52 1
@<TRIPOS>PROPERTY_DATA
  Total_Score	| 10.1271
  Crash		| -1.0813
  Polar		| 2.8469
  FragIndex	| 1
  FragRMSD	| 0.808

