@<TRIPOS>MOLECULE
BindingDB_50298809
 53 55 0 0 0
SMALL
NO_CHARGES


@<TRIPOS>ATOM
1    N        16.2611   -9.7659   -1.6955  N     
2    C        16.1122  -10.4769   -2.8384  C     
3    N        15.2320  -10.0559   -3.7735  N     
4    C        14.4992   -8.9230   -3.6324  C     
5    C        14.6664   -8.1297   -2.4647  C     
6    C        15.5631   -8.6179   -1.4753  C     
7    N        15.7940   -7.9911   -0.3061  N     
8    C        14.1182   -6.9441   -2.3545  C     
9    C        13.6537   -5.8415   -2.2961  C     
10   C        13.1680   -4.5519   -2.2577  C     
11   C        12.8510   -4.0545   -3.6350  C     
12   C        13.4678   -2.8757   -4.1315  C     
13   C        13.2013   -2.4081   -5.4274  C     
14   C        12.3346   -3.1425   -6.2645  C     
15   C        11.6606   -4.2955   -5.7937  C     
16   C        11.9263   -4.7332   -4.4719  C     
17   C        13.6029   -8.6027   -4.7667  C     
18   C        11.9740   -4.3896   -1.2838  C     
19   O        13.8933   -1.2958   -5.8432  O     
20   C        13.2519   -0.4828   -6.8529  C     
21   C        10.7184   -4.9653   -6.6367  C     
22   C        11.0541   -5.3006   -7.9737  C     
23   C        10.1090   -5.8882   -8.8323  C     
24   C         8.7987   -6.1498   -8.3830  C     
25   C         8.4652   -5.8479   -7.0453  C     
26   C         9.4012   -5.2498   -6.1881  C     
27   O         7.9140   -6.7479   -9.2367  O     
28   C         6.6609   -6.0532   -9.4076  C     
29   N        16.8493  -11.5722   -3.0726  N     
30   H        15.3079   -7.1849   -0.0645  H     
31   H        16.4626   -8.3469    0.3000  H     
32   H        13.9865   -3.9566   -1.8412  H     
33   H        14.1232   -2.3529   -3.5454  H     
34   H        12.1848   -2.8000   -7.2116  H     
35   H        11.4695   -5.5854   -4.1353  H     
36   H        14.2053   -8.4204   -5.6598  H     
37   H        12.9805   -7.7214   -4.5935  H     
38   H        12.9345   -9.4449   -4.9649  H     
39   H        11.1331   -5.0278   -1.5635  H     
40   H        11.6404   -3.3464   -1.2909  H     
41   H        12.2782   -4.6429   -0.2643  H     
42   H        13.2377   -1.0063   -7.8208  H     
43   H        13.8268    0.4320   -6.9738  H     
44   H        12.2301   -0.2251   -6.5642  H     
45   H        12.0009   -5.1260   -8.3251  H     
46   H        10.3721   -6.1166   -9.7922  H     
47   H         7.5246   -6.0576   -6.7031  H     
48   H         9.1208   -5.0182   -5.2332  H     
49   H         6.0840   -6.0618   -8.4750  H     
50   H         6.0866   -6.5557  -10.1767  H     
51   H         6.8265   -5.0161   -9.7231  H     
52   H        16.7818  -12.0405   -3.9232  H     
53   H        17.4867  -11.8772   -2.4100  H     
@<TRIPOS>BOND
     1    1    2 2
     2    1    6 1
     3    2    3 1
     4    2   29 1
     5    3    4 2
     6    4    5 1
     7    4   17 1
     8    5    6 2
     9    5    8 1
    10    6    7 1
    11    8    9 3
    12    9   10 1
    13   10   11 1
    14   10   18 1
    15   11   12 2
    16   11   16 1
    17   12   13 1
    18   13   14 2
    19   13   19 1
    20   14   15 1
    21   15   16 2
    22   15   21 1
    23   19   20 1
    24   21   22 2
    25   21   26 1
    26   22   23 1
    27   23   24 2
    28   24   25 1
    29   24   27 1
    30   25   26 2
    31   27   28 1
    32    7   30 1
    33    7   31 1
    34   10   32 1
    35   12   33 1
    36   14   34 1
    37   16   35 1
    38   17   36 1
    39   17   37 1
    40   17   38 1
    41   18   39 1
    42   18   40 1
    43   18   41 1
    44   20   42 1
    45   20   43 1
    46   20   44 1
    47   22   45 1
    48   23   46 1
    49   25   47 1
    50   26   48 1
    51   28   49 1
    52   28   50 1
    53   28   51 1
    54   29   52 1
    55   29   53 1
@<TRIPOS>PROPERTY_DATA
  Total_Score	| 10.7318
  Crash		| -1.3947
  Polar		| 3.2054
  FragIndex	| 1
  FragRMSD	| 0.874

