@<TRIPOS>MOLECULE
BindingDB_26518
 40 41 0 0 0
SMALL
NO_CHARGES


@<TRIPOS>ATOM
1    C        15.6034   -8.5439   -1.5682  C     
2    C        16.1188  -10.3509   -3.0168  C     
3    C        15.0897   -8.4127   -3.9418  C     
4    C        15.0720   -7.8042   -2.6557  C     
5    N        16.1070   -9.7893   -1.7832  N     
6    N        15.6111   -9.6618   -4.0647  N     
7    N        16.6462  -11.5667   -3.2264  N     
8    N        15.6629   -8.0785   -0.3058  N     
9    C        14.5994   -6.5955   -2.4947  C     
10   C        14.1254   -5.5064   -2.3993  C     
11   C        12.7504   -3.9160   -3.5300  C     
12   C        11.7361   -4.7727   -4.0446  C     
13   C        12.9654   -2.6735   -4.1740  C     
14   C        12.2514   -2.3088   -5.3400  C     
15   C        11.2985   -3.2003   -5.8614  C     
16   C        11.0394   -4.4221   -5.2187  C     
17   C        13.5399   -4.2714   -2.3107  C     
18   C        14.6032   -7.7559   -5.1776  C     
19   O        12.3907   -1.0743   -5.9190  O     
20   C        13.6239   -0.8631   -6.6271  C     
21   O        11.4906   -5.9928   -3.4795  O     
22   C        10.5385   -5.9712   -2.4022  C     
23   H        16.6747  -11.9327   -4.1251  H     
24   H        17.0220  -12.0690   -2.4890  H     
25   H        16.0888   -8.6096    0.3872  H     
26   H        15.3254   -7.1950   -0.0889  H     
27   H        13.6431   -2.0103   -3.7903  H     
28   H        10.7810   -2.9570   -6.7081  H     
29   H        10.3369   -5.0600   -5.6087  H     
30   H        12.8736   -4.2653   -1.4470  H     
31   H        14.3365   -3.5479   -2.1185  H     
32   H        13.5466   -7.5038   -5.0760  H     
33   H        14.7208   -8.4012   -6.0521  H     
34   H        15.1771   -6.8435   -5.3446  H     
35   H        14.4711   -0.8524   -5.9392  H     
36   H        13.5772    0.1113   -7.1189  H     
37   H        13.7861   -1.6215   -7.3975  H     
38   H        10.8506   -5.3143   -1.5854  H     
39   H        10.4618   -6.9858   -2.0110  H     
40   H         9.5506   -5.6672   -2.7519  H     
@<TRIPOS>BOND
     1    1    4 1
     2    1    5 2
     3    1    8 1
     4    2    5 1
     5    2    6 2
     6    2    7 1
     7    3    4 2
     8    3    6 1
     9    3   18 1
    10    4    9 1
    11    9   10 3
    12   10   17 1
    13   11   12 2
    14   11   13 1
    15   11   17 1
    16   12   16 1
    17   12   21 1
    18   13   14 2
    19   14   15 1
    20   14   19 1
    21   15   16 2
    22   19   20 1
    23   21   22 1
    24    7   23 1
    25    7   24 1
    26    8   25 1
    27    8   26 1
    28   13   27 1
    29   15   28 1
    30   16   29 1
    31   17   30 1
    32   17   31 1
    33   18   32 1
    34   18   33 1
    35   18   34 1
    36   20   35 1
    37   20   36 1
    38   20   37 1
    39   22   38 1
    40   22   39 1
    41   22   40 1
@<TRIPOS>PROPERTY_DATA
  Total_Score	| 8.0599
  Crash		| -0.6326
  Polar		| 3.1845
  FragIndex	| 1
  FragRMSD	| 0.391

