@<TRIPOS>MOLECULE
BindingDB_25819
 52 54 0 0 0
SMALL
NO_CHARGES


@<TRIPOS>ATOM
1    C        15.3986   -8.6126   -1.5477  C     
2    C        16.1132  -10.4729   -2.8420  C     
3    C        14.4037   -9.0679   -3.7151  C     
4    C        14.4664   -8.2493   -2.5533  C     
5    C        13.5044   -8.8039   -4.8647  C     
6    N        15.5855   -7.9290   -0.4030  N     
7    N        16.9173  -11.5317   -3.0158  N     
8    N        16.1866   -9.7045   -1.7284  N     
9    N        15.2270  -10.1445   -3.8084  N     
10   C        13.6879   -7.2016   -2.4502  C     
11   C        12.9444   -6.2632   -2.4087  C     
12   C        12.0808   -5.1983   -2.3180  C     
13   C        12.5165   -4.3088   -1.1269  C     
14   C        11.8848   -4.5025   -3.6388  C     
15   C        11.1931   -5.1833   -4.6693  C     
16   C        12.2821   -3.1672   -3.9039  C     
17   C        12.0030   -2.5459   -5.1418  C     
18   C        11.2565   -3.2315   -6.1129  C     
19   C        10.8729   -4.5737   -5.9102  C     
20   O        12.3878   -1.2542   -5.3971  O     
21   C        13.6247   -1.1829   -6.1466  C     
22   C        10.1354   -5.2835   -6.9089  C     
23   C         8.2625   -6.7953   -7.3926  C     
24   C         8.9797   -5.9910   -6.4962  C     
25   C        10.5431   -5.3709   -8.2806  C     
26   C         9.7928   -6.1786   -9.1713  C     
27   C         8.6728   -6.8949   -8.7272  C     
28   C        11.7796   -4.7170   -8.8034  C     
29   H        12.4662   -8.7894   -4.5254  H     
30   H        13.6038   -9.5719   -5.6388  H     
31   H        13.7489   -7.8334   -5.3061  H     
32   H        16.2751   -8.2088    0.2202  H     
33   H        15.0754   -7.1309   -0.2051  H     
34   H        16.8683  -12.0481   -3.8389  H     
35   H        17.5669  -11.7654   -2.3373  H     
36   H        11.1077   -5.6148   -2.0300  H     
37   H        12.4726   -4.8638   -0.1869  H     
38   H        11.8402   -3.4554   -1.0436  H     
39   H        13.5355   -3.9495   -1.2652  H     
40   H        10.8879   -6.1439   -4.5032  H     
41   H        12.7764   -2.6182   -3.2016  H     
42   H        10.9930   -2.7424   -6.9751  H     
43   H        14.4677   -1.5941   -5.5664  H     
44   H        13.8321   -0.1287   -6.3491  H     
45   H        13.5517   -1.7059   -7.1103  H     
46   H         7.4506   -7.3188   -7.0689  H     
47   H         8.6574   -5.9356   -5.5287  H     
48   H        10.0820   -6.2773  -10.1488  H     
49   H         8.1703   -7.4977   -9.3765  H     
50   H        11.6605   -3.6298   -8.8194  H     
51   H        12.0213   -5.0389   -9.8273  H     
52   H        12.6291   -4.9861   -8.1649  H     
@<TRIPOS>BOND
     1    1    4 1
     2    1    6 1
     3    1    8 2
     4    2    7 1
     5    2    8 1
     6    2    9 2
     7    3    4 2
     8    3    5 1
     9    3    9 1
    10    4   10 1
    11   10   11 3
    12   11   12 1
    13   12   13 1
    14   12   14 1
    15   14   15 2
    16   14   16 1
    17   15   19 1
    18   16   17 2
    19   17   18 1
    20   17   20 1
    21   18   19 2
    22   19   22 1
    23   20   21 1
    24   22   24 2
    25   22   25 1
    26   23   24 1
    27   23   27 2
    28   25   26 2
    29   25   28 1
    30   26   27 1
    31    5   29 1
    32    5   30 1
    33    5   31 1
    34    6   32 1
    35    6   33 1
    36    7   34 1
    37    7   35 1
    38   12   36 1
    39   13   37 1
    40   13   38 1
    41   13   39 1
    42   15   40 1
    43   16   41 1
    44   18   42 1
    45   21   43 1
    46   21   44 1
    47   21   45 1
    48   23   46 1
    49   24   47 1
    50   26   48 1
    51   27   49 1
    52   28   50 1
    53   28   51 1
    54   28   52 1
@<TRIPOS>PROPERTY_DATA
  Total_Score	| 9.8339
  Crash		| -1.9906
  Polar		| 3.0281
  FragIndex	| 1
  FragRMSD	| 0.635

