@<TRIPOS>MOLECULE
BindingDB_18496
 48 49 0 0 0
SMALL
NO_CHARGES


@<TRIPOS>ATOM
1    C        15.5188   -8.5837   -1.4922  C     
2    C        16.1397  -10.4230   -2.8523  C     
3    C        14.7435   -8.7330   -3.7890  C     
4    C        14.7772   -8.0177   -2.5628  C     
5    N        16.1737   -9.7590   -1.6715  N     
6    N        15.4264   -9.9028   -3.8816  N     
7    N        15.6391   -8.0084   -0.2836  N     
8    N        16.8133  -11.5719   -3.0227  N     
9    C        14.1759   -6.8567   -2.4455  C     
10   C        13.6363   -5.7923   -2.3913  C     
11   C        13.0027   -4.5672   -2.3855  C     
12   C        12.5304   -4.1260   -3.7441  C     
13   C        11.7893   -4.9855   -4.5951  C     
14   C        12.7571   -2.8074   -4.1900  C     
15   C        12.2968   -2.3622   -5.4494  C     
16   C        11.5428   -3.2283   -6.2732  C     
17   C        11.2742   -4.5465   -5.8339  C     
18   O        10.5833   -5.4113   -6.6417  O     
19   C         9.3112   -5.8685   -6.1070  C     
20   O        11.1811   -2.7274   -7.5082  O     
21   C        10.2656   -3.4942   -8.3239  C     
22   O        12.5475   -1.0751   -5.8329  O     
23   C        13.7744   -0.9157   -6.5549  C     
24   O        11.9707   -4.4803   -1.3703  O     
25   C        10.7770   -5.2794   -1.4848  C     
26   C        14.0108   -8.2797   -4.9955  C     
27   H        16.1907   -8.4252    0.3892  H     
28   H        15.2074   -7.1600   -0.0885  H     
29   H        16.7888  -12.0285   -3.8862  H     
30   H        17.3301  -11.9502   -2.2915  H     
31   H        13.7816   -3.8761   -2.0534  H     
32   H        11.6074   -5.9487   -4.3086  H     
33   H        13.2679   -2.1510   -3.5965  H     
34   H         9.4299   -6.4976   -5.2106  H     
35   H         8.8225   -6.4758   -6.8778  H     
36   H         8.6521   -5.0337   -5.8564  H     
37   H        10.7704   -4.3229   -8.8167  H     
38   H         9.8610   -2.8419   -9.0993  H     
39   H         9.4415   -3.8884   -7.7250  H     
40   H        14.6382   -1.1683   -5.9329  H     
41   H        13.8660    0.1314   -6.8494  H     
42   H        13.7893   -1.5249   -7.4609  H     
43   H        10.1928   -4.9802   -2.3553  H     
44   H        10.1643   -5.1236   -0.5943  H     
45   H        11.0134   -6.3370   -1.5534  H     
46   H        12.9470   -8.1787   -4.7532  H     
47   H        14.1093   -8.9981   -5.8185  H     
48   H        14.3993   -7.3130   -5.3313  H     
@<TRIPOS>BOND
     1    1    4 2
     2    1    5 1
     3    1    7 1
     4    2    5 2
     5    2    6 1
     6    2    8 1
     7    3    4 1
     8    3    6 2
     9    3   26 1
    10    4    9 1
    11    9   10 3
    12   10   11 1
    13   11   12 1
    14   11   24 1
    15   12   13 1
    16   12   14 2
    17   13   17 2
    18   14   15 1
    19   15   16 2
    20   15   22 1
    21   16   17 1
    22   16   20 1
    23   17   18 1
    24   18   19 1
    25   20   21 1
    26   22   23 1
    27   24   25 1
    28    7   27 1
    29    7   28 1
    30    8   29 1
    31    8   30 1
    32   11   31 1
    33   13   32 1
    34   14   33 1
    35   19   34 1
    36   19   35 1
    37   19   36 1
    38   21   37 1
    39   21   38 1
    40   21   39 1
    41   23   40 1
    42   23   41 1
    43   23   42 1
    44   25   43 1
    45   25   44 1
    46   25   45 1
    47   26   46 1
    48   26   47 1
    49   26   48 1
@<TRIPOS>PROPERTY_DATA
  Total_Score	| 8.6000
  Crash		| -1.5087
  Polar		| 3.0330
  FragIndex	| 1
  FragRMSD	| 0.278

