@<TRIPOS>MOLECULE
BindingDB_26519
 43 44 0 0 0
SMALL
NO_CHARGES


@<TRIPOS>ATOM
1    C        15.5542   -8.6183   -1.4541  C     
2    C        16.0528  -10.5283   -2.7680  C     
3    C        14.6418   -8.8540   -3.7000  C     
4    C        14.7926   -8.0711   -2.5204  C     
5    N        16.1680   -9.8143   -1.6213  N     
6    N        15.3033  -10.0375   -3.7851  N     
7    N        16.7427  -11.6735   -2.9337  N     
8    N        15.6857   -8.0316   -0.2534  N     
9    C        14.2874   -6.8661   -2.4393  C     
10   C        13.7939   -5.7751   -2.3642  C     
11   C        12.5997   -4.0697   -3.5827  C     
12   C        11.6393   -4.8687   -4.2604  C     
13   C        12.9232   -2.8010   -4.1342  C     
14   C        12.3240   -2.3494   -5.3316  C     
15   C        11.4013   -3.1740   -5.9922  C     
16   C        11.0792   -4.4340   -5.4793  C     
17   C        13.2155   -4.5258   -2.2929  C     
18   C        13.8892   -8.4408   -4.9092  C     
19   O        12.5209   -1.0743   -5.7964  O     
20   C        13.6895   -0.9248   -6.6236  C     
21   O        11.2369   -6.0895   -3.7720  O     
22   C         9.9745   -6.0168   -3.0738  C     
23   C        14.8482   -7.9594   -6.0231  C     
24   H        16.7234  -12.1498   -3.7859  H     
25   H        17.3260  -12.0008   -2.2246  H     
26   H        16.1944   -8.4699    0.4410  H     
27   H        15.2425   -7.1949   -0.0706  H     
28   H        13.6010   -2.1981   -3.6412  H     
29   H        10.9468   -2.8398   -6.8412  H     
30   H        10.4031   -5.0207   -5.9663  H     
31   H        12.4370   -4.5558   -1.5329  H     
32   H        13.9988   -3.8225   -1.9556  H     
33   H        13.2912   -9.2803   -5.2842  H     
34   H        13.1956   -7.6425   -4.6441  H     
35   H        14.6027   -1.0054   -6.0205  H     
36   H        13.6578    0.0741   -7.0609  H     
37   H        13.7236   -1.6522   -7.4412  H     
38   H        10.0311   -5.3420   -2.2039  H     
39   H         9.7376   -7.0270   -2.7168  H     
40   H         9.1500   -5.7012   -3.7410  H     
41   H        15.4653   -7.1316   -5.6582  H     
42   H        14.2632   -7.6148   -6.8768  H     
43   H        15.4957   -8.7857   -6.3396  H     
@<TRIPOS>BOND
     1    1    4 1
     2    1    5 2
     3    1    8 1
     4    2    5 1
     5    2    6 2
     6    2    7 1
     7    3    4 2
     8    3    6 1
     9    3   18 1
    10    4    9 1
    11    9   10 3
    12   10   17 1
    13   11   12 2
    14   11   13 1
    15   11   17 1
    16   12   16 1
    17   12   21 1
    18   13   14 2
    19   14   15 1
    20   14   19 1
    21   15   16 2
    22   18   23 1
    23   19   20 1
    24   21   22 1
    25    7   24 1
    26    7   25 1
    27    8   26 1
    28    8   27 1
    29   13   28 1
    30   15   29 1
    31   16   30 1
    32   17   31 1
    33   17   32 1
    34   18   33 1
    35   18   34 1
    36   20   35 1
    37   20   36 1
    38   20   37 1
    39   22   38 1
    40   22   39 1
    41   22   40 1
    42   23   41 1
    43   23   42 1
    44   23   43 1
@<TRIPOS>PROPERTY_DATA
  Total_Score	| 8.5362
  Crash		| -1.0693
  Polar		| 2.8636
  FragIndex	| 1
  FragRMSD	| 0.857

