@<TRIPOS>MOLECULE
BindingDB_18490
 44 45 0 0 0
SMALL
NO_CHARGES


@<TRIPOS>ATOM
1    C        15.5889   -8.6586   -1.4677  C     
2    C        16.1523  -10.5314   -2.8110  C     
3    C        14.8095   -8.8113   -3.7617  C     
4    C        14.8783   -8.0747   -2.5469  C     
5    N        16.2026   -9.8605   -1.6362  N     
6    N        15.4529  -10.0056   -3.8396  N     
7    N        15.7187   -8.0773   -0.2594  N     
8    N        16.7946  -11.6987   -2.9646  N     
9    C        14.3520   -6.8755   -2.4679  C     
10   C        13.9104   -5.7645   -2.4513  C     
11   C        13.4392   -4.4814   -2.4661  C     
12   C        12.7316   -4.1591   -3.7338  C     
13   C        11.4061   -4.5938   -3.9465  C     
14   C        13.3463   -3.3667   -4.7374  C     
15   C        12.6416   -2.9643   -5.8922  C     
16   C        11.3200   -3.4234   -6.0875  C     
17   C        10.7024   -4.2444   -5.1186  C     
18   O         9.3754   -4.5616   -5.2429  O     
19   C         9.0777   -5.9567   -5.3817  C     
20   O        10.5708   -2.9847   -7.1480  O     
21   C        10.4555   -3.9322   -8.2214  C     
22   O        13.1878   -2.1978   -6.8948  O     
23   C        13.5667   -0.8307   -6.5812  C     
24   C        14.1009   -8.3398   -4.9782  C     
25   H        16.2489   -8.5054    0.4294  H     
26   H        15.3045   -7.2216   -0.0759  H     
27   H        16.7667  -12.1591   -3.8208  H     
28   H        17.3019  -12.0740   -2.2290  H     
29   H        12.7705   -4.3419   -1.6156  H     
30   H        14.2918   -3.8123   -2.3181  H     
31   H        10.9279   -5.1268   -3.2185  H     
32   H        14.3071   -3.0408   -4.6301  H     
33   H         9.4966   -6.3628   -6.3012  H     
34   H         7.9939   -6.0557   -5.4225  H     
35   H         9.4367   -6.5354   -4.5300  H     
36   H        11.4333   -4.1682   -8.6447  H     
37   H         9.8471   -3.4846   -9.0041  H     
38   H         9.9709   -4.8515   -7.8931  H     
39   H        12.7070   -0.2482   -6.2088  H     
40   H        13.9281   -0.3656   -7.4950  H     
41   H        14.3768   -0.8003   -5.8300  H     
42   H        13.0486   -8.1558   -4.7492  H     
43   H        14.1514   -9.0733   -5.7863  H     
44   H        14.5579   -7.4114   -5.3283  H     
@<TRIPOS>BOND
     1    1    4 2
     2    1    5 1
     3    1    7 1
     4    2    5 2
     5    2    6 1
     6    2    8 1
     7    3    4 1
     8    3    6 2
     9    3   24 1
    10    4    9 1
    11    9   10 3
    12   10   11 1
    13   11   12 1
    14   12   13 1
    15   12   14 2
    16   13   17 2
    17   14   15 1
    18   15   16 2
    19   15   22 1
    20   16   17 1
    21   16   20 1
    22   17   18 1
    23   18   19 1
    24   20   21 1
    25   22   23 1
    26    7   25 1
    27    7   26 1
    28    8   27 1
    29    8   28 1
    30   11   29 1
    31   11   30 1
    32   13   31 1
    33   14   32 1
    34   19   33 1
    35   19   34 1
    36   19   35 1
    37   21   36 1
    38   21   37 1
    39   21   38 1
    40   23   39 1
    41   23   40 1
    42   23   41 1
    43   24   42 1
    44   24   43 1
    45   24   44 1
@<TRIPOS>PROPERTY_DATA
  Total_Score	| 8.0402
  Crash		| -0.7056
  Polar		| 2.9680
  FragIndex	| 1
  FragRMSD	| 0.654

